@<TRIPOS>MOLECULE
ZINC00047312
   31    33     0     0     0
SMALL
USER_CHARGES
2-[(2-oxo-1,3-dihydrobenzoimidazol-5-yl)iminomethyl]benzoic acid
@<TRIPOS>ATOM
      1 C1          2.3831   -0.5669   -0.0349 C.ar      1 <0>        -0.1373
      2 C2          3.5436   -1.3156   -0.1447 C.ar      1 <0>        -0.1152
      3 C3          4.7781   -0.6976   -0.1480 C.ar      1 <0>        -0.0887
      4 C4          4.8640    0.6888   -0.0305 C.ar      1 <0>        -0.0792
      5 C5          3.6830    1.4517    0.0809 C.ar      1 <0>        -0.0637
      6 C6          2.4448    0.8071    0.0772 C.ar      1 <0>        -0.0857
      7 C7          3.7554    2.9164    0.1996 C.2       1 <0>         0.2199
      8 N1          2.6709    3.6074    0.4094 N.2       1 <0>        -0.5272
      9 C8          2.7382    4.9680    0.5196 C.ar      1 <0>         0.1258
     10 C9          3.7366    5.5587    1.3024 C.ar      1 <0>        -0.1368
     11 C10         3.8066    6.9294    1.4145 C.ar      1 <0>        -0.0834
     12 C11         2.8857    7.7298    0.7506 C.ar      1 <0>         0.0647
     13 C12         1.8855    7.1465   -0.0332 C.ar      1 <0>         0.1006
     14 C13         1.8143    5.7702   -0.1532 C.ar      1 <0>        -0.1061
     15 N2          1.1290    8.1904   -0.5620 N.am      1 <0>        -0.6415
     16 H1          0.3618    8.0957   -1.1480 H         1 <0>         0.4337
     17 C14         1.6449    9.3530   -0.1206 C.2       1 <0>         0.6841
     18 O1          1.2181   10.4584   -0.3972 O.2       1 <0>        -0.5672
     19 N3          2.7045    9.1076    0.6725 N.am      1 <0>        -0.6398
     20 H2          3.2490    9.7774    1.1150 H         1 <0>         0.4333
     21 C15         6.1811    1.3541   -0.0288 C.2       1 <0>         0.4915
     22 O2          6.2490    2.5670   -0.0369 O.co2     1 <0>        -0.6231
     23 H3          1.4233   -1.0621   -0.0373 H         1 <0>         0.1183
     24 H4          3.4818   -2.3903   -0.2325 H         1 <0>         0.1194
     25 H5          5.6775   -1.2886   -0.2382 H         1 <0>         0.1353
     26 H6          1.5354    1.3835    0.1617 H         1 <0>         0.1303
     27 H7          4.7075    3.4187    0.1129 H         1 <0>         0.1717
     28 H8          4.4534    4.9383    1.8198 H         1 <0>         0.1390
     29 H9          4.5783    7.3826    2.0190 H         1 <0>         0.1328
     30 H10         1.0450    5.3180   -0.7615 H         1 <0>         0.1344
     31 O3          7.3085    0.6162   -0.0183 O.co2     1 <0>        -0.7399
@<TRIPOS>BOND
     1    1    6 ar
     2    1    2 ar
     3    1   23 1
     4    2    3 ar
     5    2   24 1
     6    3    4 ar
     7    3   25 1
     8    4    5 ar
     9    4   21 1
    10    5    6 ar
    11    5    7 1
    12    6   26 1
    13    7    8 2
    14    7   27 1
    15    8    9 1
    16    9   14 ar
    17    9   10 ar
    18   10   11 ar
    19   10   28 1
    20   11   12 ar
    21   11   29 1
    22   12   19 1
    23   12   13 ar
    24   13   14 ar
    25   13   15 1
    26   14   30 1
    27   15   16 1
    28   15   17 am
    29   17   18 2
    30   17   19 am
    31   19   20 1
    32   21   22 2
    33   21   31 1
@<TRIPOS>MOLECULE
ZINC22158235
   36    37     0     0     0
SMALL
USER_CHARGES
4-[[(1S,2R)-2-methylcyclohexyl]sulfamoyl]-1H-pyrrole-2-carboxylic acid
@<TRIPOS>ATOM
      1 C1          1.4400    1.5329   -3.8583 C.3       1 <0>        -0.1520
      2 C2          2.8605    2.1008   -3.8787 C.3       1 <0>        -0.0931
      3 H1          2.8887    2.9950   -4.5187 H         1 <0>         0.0789
      4 C3          3.8229    1.0476   -4.4313 C.3       1 <0>        -0.1135
      5 C4          5.2435    1.6156   -4.4517 C.3       1 <0>        -0.1199
      6 C5          5.6623    1.9929   -3.0294 C.3       1 <0>        -0.1165
      7 C6          4.6999    3.0461   -2.4767 C.3       1 <0>        -0.1340
      8 C7          3.2794    2.4781   -2.4563 C.3       1 <0>         0.1665
      9 H2          2.5769    3.2070   -2.0259 H         1 <0>         0.0771
     10 N1          3.2418    1.2872   -1.6041 N.pl3     1 <0>        -1.1187
     11 S1          2.7878    1.4188   -0.0170 S.o2      1 <0>         2.7205
     12 O1          3.5385    2.4929    0.5325 O.2       1 <0>        -0.9748
     13 O2          2.8258    0.1063    0.5265 O.2       1 <0>        -0.9716
     14 C8          1.0995    1.9229    0.0019 C.2       1 <0>        -0.7628
     15 C9         -0.0126    1.0758    0.0080 C.2       1 <0>        -0.0844
     16 C10        -1.1326    1.8818    0.0169 C.2       1 <0>        -0.0194
     17 N2         -0.7011    3.1894    0.0259 N.pl3     1 <0>        -0.5204
     18 H3         -1.4333    4.0101    0.0411 H         1 <0>         0.4555
     19 C11         0.6484    3.2004    0.0131 C.2       1 <0>         0.1044
     20 C12        -2.5259    1.4291    0.0202 C.2       1 <0>         0.5162
     21 O3         -2.7788    0.2395    0.0148 O.co2     1 <0>        -0.6153
     22 O4         -3.5283    2.3317    0.0292 O.co2     1 <0>        -0.7630
     23 H4          1.1389    1.2617   -4.8809 H         1 <0>         0.0539
     24 H5          0.7481    2.2901   -3.4610 H         1 <0>         0.0578
     25 H6          1.4118    0.6386   -3.2184 H         1 <0>         0.0614
     26 H7          3.7947    0.1534   -3.7913 H         1 <0>         0.0644
     27 H8          3.5217    0.7763   -5.4539 H         1 <0>         0.0632
     28 H9          5.9354    0.8584   -4.8490 H         1 <0>         0.0589
     29 H10         5.2717    2.5098   -5.0917 H         1 <0>         0.0596
     30 H11         5.6341    1.0986   -2.3895 H         1 <0>         0.0674
     31 H12         6.6836    2.4012   -3.0440 H         1 <0>         0.0578
     32 H13         5.0011    3.3173   -1.4541 H         1 <0>         0.0783
     33 H14         4.7281    3.9404   -3.1166 H         1 <0>         0.0678
     34 H15         3.3531    0.2879   -2.0502 H         1 <0>         0.4328
     35 H16         0.0021   -0.0041    0.0020 H         1 <0>         0.1464
     36 H17         1.2685    4.0846    0.0122 H         1 <0>         0.1708
@<TRIPOS>BOND
     1    1    2 1
     2    1   23 1
     3    1   24 1
     4    1   25 1
     5    2    3 1
     6    2    8 1
     7    2    4 1
     8    4    5 1
     9    4   26 1
    10    4   27 1
    11    5    6 1
    12    5   28 1
    13    5   29 1
    14    6    7 1
    15    6   30 1
    16    6   31 1
    17    7    8 1
    18    7   32 1
    19    7   33 1
    20    8    9 1
    21    8   10 1
    22   10   11 1
    23   10   34 1
    24   11   12 2
    25   11   13 2
    26   11   14 1
    27   14   19 2
    28   14   15 1
    29   15   16 2
    30   15   35 1
    31   16   17 1
    32   16   20 1
    33   17   18 1
    34   17   19 1
    35   19   36 1
    36   20   21 2
    37   20   22 1
@<TRIPOS>MOLECULE
ZINC37795343
   37    39     0     0     0
SMALL
USER_CHARGES

@<TRIPOS>ATOM
      1 C1          0.1535    1.3780    0.6384 C.ar      1 <0>        -0.1246
      2 C2          1.1539    2.0975    0.0530 C.ar      1 <0>        -0.0801
      3 C3          2.2144    1.4353   -0.5807 C.ar      1 <0>        -0.1600
      4 C4          3.3734    1.8792   -1.2626 C.2       1 <0>         0.0693
      5 N1          4.0424    0.8390   -1.6680 N.2       1 <0>        -0.2560
      6 N2          3.3759   -0.3311   -1.2842 N.pl3     1 <0>        -0.5061
      7 H1          3.6679   -1.2383   -1.4650 H         1 <0>         0.4375
      8 C5          2.2383    0.0293   -0.6077 C.ar      1 <0>         0.0978
      9 C6          1.2036   -0.6898   -0.0024 C.ar      1 <0>         0.1541
     10 C7          0.1704   -0.0103    0.6158 C.ar      1 <0>        -0.0950
     11 N3          1.2138   -2.0893   -0.0216 N.am      1 <0>        -0.6882
     12 C8          0.0576   -2.7732    0.0872 C.2       1 <0>         0.5112
     13 O1         -0.9996   -2.1789    0.1006 O.2       1 <0>        -0.4290
     14 C9          0.0783   -4.2764    0.1920 C.3       1 <0>        -0.0788
     15 H2          0.5499   -4.6962   -0.6965 H         1 <0>         0.0828
     16 C10         0.8706   -4.6902    1.4338 C.3       1 <0>        -0.1105
     17 C11         0.2085   -4.1010    2.6810 C.3       1 <0>        -0.1171
     18 C12        -1.2249   -4.6242    2.7929 C.3       1 <0>        -0.1176
     19 C13        -2.0172   -4.2105    1.5511 C.3       1 <0>        -0.1102
     20 C14        -1.3551   -4.7997    0.3039 C.3       1 <0>        -0.1368
     21 H3         -1.3402   -5.8869    0.3798 H         1 <0>         0.0633
     22 C15        -2.1355   -4.3921   -0.9191 C.2       1 <0>         0.4918
     23 O2         -2.9213   -5.1726   -1.4289 O.co2     1 <0>        -0.7124
     24 O3         -1.9811   -3.2819   -1.3989 O.co2     1 <0>        -0.6663
     25 H4         -0.6585    1.8941    1.1289 H         1 <0>         0.1268
     26 H5          1.1285    3.1769    0.0774 H         1 <0>         0.1243
     27 H6          3.6552    2.9097   -1.4203 H         1 <0>         0.1914
     28 H7         -0.6298   -0.5636    1.0848 H         1 <0>         0.1532
     29 H8          2.0531   -2.5670   -0.1131 H         1 <0>         0.3955
     30 H9          0.8856   -5.7774    1.5097 H         1 <0>         0.0702
     31 H10         1.8918   -4.3174    1.3541 H         1 <0>         0.0560
     32 H11         0.7730   -4.3958    3.5656 H         1 <0>         0.0567
     33 H12         0.1936   -3.0137    2.6051 H         1 <0>         0.0586
     34 H13        -1.2099   -5.7115    2.8687 H         1 <0>         0.0553
     35 H14        -1.6965   -4.2045    3.6814 H         1 <0>         0.0540
     36 H15        -3.0384   -4.5832    1.6308 H         1 <0>         0.0529
     37 H16        -2.0322   -3.1232    1.4752 H         1 <0>         0.0858
@<TRIPOS>BOND
     1    1   10 ar
     2    1    2 ar
     3    1   25 1
     4    2    3 ar
     5    2   26 1
     6    3    8 ar
     7    3    4 1
     8    4    5 2
     9    4   27 1
    10    5    6 1
    11    6    7 1
    12    6    8 1
    13    8    9 ar
    14    9   10 ar
    15    9   11 1
    16   10   28 1
    17   11   12 am
    18   11   29 1
    19   12   13 2
    20   12   14 1
    21   14   15 1
    22   14   20 1
    23   14   16 1
    24   16   17 1
    25   16   30 1
    26   16   31 1
    27   17   18 1
    28   17   32 1
    29   17   33 1
    30   18   19 1
    31   18   34 1
    32   18   35 1
    33   19   20 1
    34   19   36 1
    35   19   37 1
    36   20   21 1
    37   20   22 1
    38   22   23 2
    39   22   24 1
@<TRIPOS>MOLECULE
ZINC41992016
   36    38     0     0     0
SMALL
USER_CHARGES

@<TRIPOS>ATOM
      1 C1         -0.0105    1.3697    0.6662 C.ar      1 <0>        -0.1331
      2 C2          1.1837    2.0641    0.6059 C.ar      1 <0>        -0.1294
      3 C3          2.3627    1.3813    0.3948 C.ar      1 <0>        -0.1152
      4 C4          2.3619   -0.0007    0.2346 C.ar      1 <0>        -0.0051
      5 C5          1.1737   -0.6867    0.2759 C.ar      1 <0>        -0.0521
      6 C6         -0.0134    0.0003    0.5035 C.ar      1 <0>        -0.1250
      7 C7          1.0823   -2.1732    0.0539 C.3       1 <0>        -0.0804
      8 C8          2.0762   -2.9208    0.9470 C.3       1 <0>        -0.1361
      9 C9          3.3601   -3.1253    0.1484 C.3       1 <0>        -0.1251
     10 C10         3.5722   -1.9416   -0.7975 C.3       1 <0>        -0.0948
     11 C11         3.7009   -0.6686    0.0372 C.3       1 <0>        -0.0680
     12 C12         4.2802   -1.0187    1.3837 C.2       1 <0>         0.5352
     13 O1          3.6186   -0.8517    2.3941 O.co2     1 <0>        -0.6542
     14 O2          5.4105   -1.4689    1.4626 O.co2     1 <0>        -0.6697
     15 S1          4.8198    0.4833   -0.8064 S.3       1 <0>         0.0415
     16 C13         4.0742    0.7228   -2.3848 C.2       1 <0>         0.1960
     17 N1          2.9222    0.2372   -2.7857 N.2       1 <0>        -0.2827
     18 N2          2.6873    0.6107   -3.9929 N.2       1 <0>        -0.2758
     19 C14         3.6665    1.3504   -4.4308 C.2       1 <0>         0.1023
     20 N3          4.5823    1.4533   -3.4204 N.pl3     1 <0>        -0.3180
     21 N4          5.7621    2.1414   -3.4435 N.3       1 <0>        -0.5849
     22 H1         -0.9362    1.8969    0.8443 H         1 <0>         0.1103
     23 H2          1.1928    3.1376    0.7233 H         1 <0>         0.1099
     24 H3          3.2954    1.9242    0.3531 H         1 <0>         0.1227
     25 H4         -0.9455   -0.5429    0.5533 H         1 <0>         0.1116
     26 H5          0.0710   -2.5084    0.2842 H         1 <0>         0.0579
     27 H6          1.3029   -2.3937   -0.9906 H         1 <0>         0.0758
     28 H7          2.2866   -2.3310    1.8392 H         1 <0>         0.1030
     29 H8          1.6612   -3.8875    1.2323 H         1 <0>         0.0528
     30 H9          4.2052   -3.1986    0.8328 H         1 <0>         0.0861
     31 H10         3.2835   -4.0445   -0.4324 H         1 <0>         0.0495
     32 H11         4.4836   -2.0939   -1.3756 H         1 <0>         0.0613
     33 H12         2.7192   -1.8534   -1.4703 H         1 <0>         0.0820
     34 H13         3.7392    1.8024   -5.4090 H         1 <0>         0.2155
     35 H14         6.5152    1.5570   -3.7741 H         1 <0>         0.3643
     36 H15         5.6819    2.9781   -4.0017 H         1 <0>         0.3719
@<TRIPOS>BOND
     1    1    6 ar
     2    1    2 ar
     3    1   22 1
     4    2    3 ar
     5    2   23 1
     6    3    4 ar
     7    3   24 1
     8    4   11 1
     9    4    5 ar
    10    5    6 ar
    11    5    7 1
    12    6   25 1
    13    7    8 1
    14    7   26 1
    15    7   27 1
    16    8    9 1
    17    8   28 1
    18    8   29 1
    19    9   10 1
    20    9   30 1
    21    9   31 1
    22   10   11 1
    23   10   32 1
    24   10   33 1
    25   11   12 1
    26   11   15 1
    27   12   13 2
    28   12   14 1
    29   15   16 1
    30   16   20 1
    31   16   17 2
    32   17   18 1
    33   18   19 2
    34   19   20 1
    35   19   34 1
    36   20   21 1
    37   21   35 1
    38   21   36 1
@<TRIPOS>MOLECULE
ZINC61563753
   25    26     0     0     0
SMALL
USER_CHARGES

@<TRIPOS>ATOM
      1 C1         -0.2734    1.2681    1.0993 C.2       1 <0>        -0.1575
      2 C2         -0.1907   -0.0972    0.8168 C.2       1 <0>        -0.0076
      3 N1         -1.2763   -0.4401    0.1714 N.2       1 <0>        -0.2693
      4 H1         -2.9110    0.5492   -0.4414 H         1 <0>         0.4515
      5 N2         -2.0523    0.5705    0.0092 N.pl3     1 <0>        -0.3684
      6 C3         -1.4867    1.6784    0.5740 C.2       1 <0>        -0.0295
      7 C4         -2.0500    3.0369    0.6090 C.2       1 <0>         0.5871
      8 O1         -1.4312    3.9383    1.1419 O.2       1 <0>        -0.5179
      9 N3         -3.2517    3.2828    0.0504 N.am      1 <0>        -0.6345
     10 C5         -3.8264    4.5448    0.1638 C.ar      1 <0>         0.1921
     11 C6         -3.0266    5.6786    0.1481 C.ar      1 <0>        -0.1476
     12 C7         -3.5989    6.9321    0.2613 C.ar      1 <0>         0.0793
     13 C8         -4.9775    7.0669    0.3910 C.ar      1 <0>         0.0364
     14 C9         -5.7860    5.9517    0.4079 C.ar      1 <0>        -0.0723
     15 C10        -5.2196    4.6770    0.2888 C.ar      1 <0>        -0.1417
     16 C11        -6.0771    3.4833    0.3005 C.2       1 <0>         0.5306
     17 O2         -7.2947    3.6047    0.3104 O.co2     1 <0>        -0.6668
     18 O3         -5.5734    2.3681    0.3003 O.co2     1 <0>        -0.6850
     19 F1         -5.5256    8.2968    0.5013 F         1 <0>        -0.1364
     20 F2         -2.8149    8.0323    0.2462 F         1 <0>        -0.1330
     21 H2          0.4528    1.8740    1.6208 H         1 <0>         0.1648
     22 H3          0.6246   -0.7534    1.0834 H         1 <0>         0.1880
     23 H4         -3.7159    2.5799   -0.4305 H         1 <0>         0.4243
     24 H5         -1.9557    5.5818    0.0477 H         1 <0>         0.1578
     25 H6         -6.8557    6.0609    0.5091 H         1 <0>         0.1555
@<TRIPOS>BOND
     1    1    2 1
     2    1   21 1
     3    1    6 2
     4    2    3 2
     5    2   22 1
     6    3    5 1
     7    4    5 1
     8    5    6 1
     9    6    7 1
    10    7    8 2
    11    7    9 am
    12    9   10 1
    13    9   23 1
    14   10   15 ar
    15   10   11 ar
    16   11   12 ar
    17   11   24 1
    18   12   13 ar
    19   12   20 1
    20   13   14 ar
    21   13   19 1
    22   14   15 ar
    23   14   25 1
    24   15   16 1
    25   16   17 2
    26   16   18 1
@<TRIPOS>MOLECULE
ZINC62828060
   37    38     0     0     0
SMALL
USER_CHARGES

@<TRIPOS>ATOM
      1 C1         -0.0184    1.5028    0.0103 C.3       1 <0>        -0.0987
      2 C2          0.0021   -0.0041    0.0020 C.2       1 <0>        -0.0435
      3 C3          0.0066   -0.7115   -1.1412 C.2       1 <0>        -0.2668
      4 S1          0.0327   -2.4000   -0.5809 S.3       1 <0>         0.1992
      5 C4          0.0371   -2.1618    1.0798 C.2       1 <0>         0.0660
      6 C5          0.0242   -0.7786    1.2238 C.2       1 <0>        -0.2444
      7 C6          0.0278   -0.1607    2.4995 C.2       1 <0>         0.5405
      8 O1          0.0120    1.0610    2.5884 O.co2     1 <0>        -0.6832
      9 O2          0.0468   -0.8484    3.5131 O.co2     1 <0>        -0.7096
     10 N1          0.0545   -3.1215    2.0775 N.am      1 <0>        -0.6126
     11 C7          0.0709   -4.4297    1.7539 C.2       1 <0>         0.6939
     12 O3          0.0705   -4.7671    0.5859 O.2       1 <0>        -0.5707
     13 N2          0.0877   -5.3640    2.7252 N.am      1 <0>        -0.7422
     14 C8          0.1056   -6.7860    2.3734 C.3       1 <0>         0.1517
     15 C9          0.1225   -7.6273    3.6512 C.3       1 <0>        -0.1376
     16 H1         -0.7063   -7.3542    4.3045 H         1 <0>         0.0946
     17 C10         0.0853   -9.1432    3.3155 C.3       1 <0>        -0.1467
     18 C11         0.8127   -9.7355    4.5488 C.3       1 <0>         0.0512
     19 O4          1.8383   -8.7833    4.8724 O.3       1 <0>        -0.3853
     20 C12         1.4723   -7.4827    4.3865 C.3       1 <0>         0.0524
     21 C13        -0.0072   -0.1975   -2.5578 C.3       1 <0>        -0.0488
     22 H2          1.0042    1.8801    0.0026 H         1 <0>         0.0570
     23 H3         -0.5455    1.8639   -0.8728 H         1 <0>         0.0421
     24 H4         -0.5286    1.8543    0.9071 H         1 <0>         0.1053
     25 H5          0.0548   -2.8524    3.0094 H         1 <0>         0.4307
     26 H6          0.0881   -5.0949    3.6571 H         1 <0>         0.4012
     27 H7         -0.7837   -7.0275    1.7912 H         1 <0>         0.0732
     28 H8          0.9961   -7.0033    1.7836 H         1 <0>         0.0724
     29 H9         -0.9405   -9.5065    3.2525 H         1 <0>         0.0875
     30 H10         0.6325   -9.3557    2.3971 H         1 <0>         0.0845
     31 H11         0.1186   -9.8419    5.3824 H         1 <0>         0.0609
     32 H12         1.2564  -10.6994    4.2994 H         1 <0>         0.0859
     33 H13         2.2328   -7.1193    3.6953 H         1 <0>         0.0761
     34 H14         1.3667   -6.7885    5.2202 H         1 <0>         0.0723
     35 H15         1.0171   -0.0592   -2.9041 H         1 <0>         0.0624
     36 H16        -0.5140   -0.9172   -3.2005 H         1 <0>         0.0599
     37 H17        -0.5345    0.7558   -2.5933 H         1 <0>         0.0689
@<TRIPOS>BOND
     1    1    2 1
     2    1   22 1
     3    1   23 1
     4    1   24 1
     5    2    6 1
     6    2    3 2
     7    3    4 1
     8    3   21 1
     9    4    5 1
    10    5    6 2
    11    5   10 1
    12    6    7 1
    13    7    8 2
    14    7    9 1
    15   10   11 am
    16   10   25 1
    17   11   12 2
    18   11   13 am
    19   13   14 1
    20   13   26 1
    21   14   15 1
    22   14   27 1
    23   14   28 1
    24   15   16 1
    25   15   20 1
    26   15   17 1
    27   17   18 1
    28   17   29 1
    29   17   30 1
    30   18   19 1
    31   18   31 1
    32   18   32 1
    33   19   20 1
    34   20   33 1
    35   20   34 1
    36   21   35 1
    37   21   36 1
    38   21   37 1
@<TRIPOS>MOLECULE
ZINC21785093
   51    54     0     0     0
SMALL
USER_CHARGES
3-(3-methoxyphenyl)-1-[1-(5-methyl-[1,2,4]triazolo[5,1-b]pyrimidin-7-yl)-4-piperidyl]urea
@<TRIPOS>ATOM
      1 C1         -4.8181   15.1407    7.5641 C.3       1 <0>        -0.1113
      2 C2         -3.6116   14.2582    7.7557 C.2       1 <0>         0.2548
      3 C3         -3.6585   12.9257    7.3541 C.2       1 <0>        -0.2915
      4 C4         -2.5432   12.1310    7.5368 C.2       1 <0>         0.4081
      5 N1         -1.4333   12.6807    8.1109 N.pl3     1 <0>        -0.3401
      6 C5         -1.4324   13.9951    8.4845 C.2       1 <0>         0.4724
      7 N2         -2.5200   14.7523    8.3012 N.2       1 <0>        -0.4852
      8 N3         -0.2362   14.2548    9.0011 N.2       1 <0>        -0.5313
      9 C6          0.5106   13.1577    8.9765 C.2       1 <0>         0.2572
     10 N4         -0.1690   12.1746    8.4385 N.2       1 <0>        -0.3391
     11 N5         -2.5529   10.8086    7.1524 N.pl3     1 <0>        -0.4772
     12 C7         -3.8487   10.4399    6.5682 C.3       1 <0>         0.0521
     13 C8         -3.8738    8.9356    6.2878 C.3       1 <0>        -0.1240
     14 C9         -2.7386    8.5823    5.3228 C.3       1 <0>         0.1629
     15 C10        -1.4042    9.0206    5.9325 C.3       1 <0>        -0.1260
     16 C11        -1.4513   10.5222    6.2246 C.3       1 <0>         0.0529
     17 N6         -2.7214    7.1350    5.0962 N.am      1 <0>        -0.7493
     18 C12        -2.1907    6.6368    3.9620 C.2       1 <0>         0.7068
     19 O1         -1.7261    7.3884    3.1268 O.2       1 <0>        -0.5722
     20 N7         -2.1748    5.3053    3.7535 N.am      1 <0>        -0.6976
     21 C13        -1.5257    4.7806    2.6302 C.ar      1 <0>         0.2107
     22 C14        -2.0177    3.6370    2.0136 C.ar      1 <0>        -0.1873
     23 C15        -1.3765    3.1186    0.9055 C.ar      1 <0>        -0.0589
     24 C16        -0.2446    3.7356    0.4073 C.ar      1 <0>        -0.2284
     25 C17         0.2510    4.8784    1.0188 C.ar      1 <0>         0.1479
     26 C18        -0.3868    5.3986    2.1343 C.ar      1 <0>        -0.1589
     27 O2          1.3641    5.4841    0.5278 O.3       1 <0>        -0.3153
     28 C19         1.9729    4.8900   -0.6205 C.3       1 <0>         0.0238
     29 H1         -5.6272   14.5594    7.0978 H         1 <0>         0.0874
     30 H2         -4.5534   15.9876    6.9139 H         1 <0>         0.0947
     31 H3         -5.1543   15.5192    8.5407 H         1 <0>         0.0953
     32 H4         -4.5536   12.5193    6.9068 H         1 <0>         0.1740
     33 H5          1.5264   13.0882    9.3365 H         1 <0>         0.2324
     34 H6         -4.6543   10.6946    7.2726 H         1 <0>         0.1027
     35 H7         -3.9967   10.9903    5.6274 H         1 <0>         0.0684
     36 H8         -3.7409    8.3846    7.2306 H         1 <0>         0.0854
     37 H9         -4.8392    8.6627    5.8367 H         1 <0>         0.0904
     38 H10        -2.8958    9.0585    4.3438 H         1 <0>         0.0917
     39 H11        -1.2295    8.4686    6.8678 H         1 <0>         0.0803
     40 H12        -0.5900    8.8084    5.2240 H         1 <0>         0.0855
     41 H13        -1.6103   11.0726    5.2856 H         1 <0>         0.0569
     42 H14        -0.4994   10.8368    6.6773 H         1 <0>         0.1085
     43 H15        -3.1416    6.4550    5.8518 H         1 <0>         0.4170
     44 H16        -2.6720    4.6310    4.4663 H         1 <0>         0.4310
     45 H17        -2.9019    3.1528    2.4012 H         1 <0>         0.1264
     46 H18        -1.7602    2.2293    0.4277 H         1 <0>         0.1292
     47 H19         0.2551    3.3276   -0.4589 H         1 <0>         0.1285
     48 H20         0.0003    6.2852    2.6145 H         1 <0>         0.1415
     49 H21         2.8573    5.4760   -0.9111 H         1 <0>         0.1023
     50 H22         1.2526    4.8766   -1.4518 H         1 <0>         0.0573
     51 H23         2.2774    3.8601   -0.3825 H         1 <0>         0.0573
@<TRIPOS>BOND
     1    1    2 1
     2    1   29 1
     3    1   30 1
     4    1   31 1
     5    2    7 2
     6    2    3 1
     7    3    4 2
     8    3   32 1
     9    4    5 1
    10    4   11 1
    11    5   10 1
    12    5    6 1
    13    6    7 1
    14    6    8 2
    15    8    9 1
    16    9   10 2
    17    9   33 1
    18   11   16 1
    19   11   12 1
    20   12   13 1
    21   12   34 1
    22   12   35 1
    23   13   14 1
    24   13   36 1
    25   13   37 1
    26   14   15 1
    27   14   17 1
    28   14   38 1
    29   15   16 1
    30   15   39 1
    31   15   40 1
    32   16   41 1
    33   16   42 1
    34   17   18 am
    35   17   43 1
    36   18   19 2
    37   18   20 am
    38   20   21 1
    39   20   44 1
    40   21   26 ar
    41   21   22 ar
    42   22   23 ar
    43   22   45 1
    44   23   24 ar
    45   23   46 1
    46   24   25 ar
    47   24   47 1
    48   25   26 ar
    49   25   27 1
    50   26   48 1
    51   27   28 1
    52   28   49 1
    53   28   50 1
    54   28   51 1
@<TRIPOS>MOLECULE
ZINC40613530
   54    56     0     0     0
SMALL
USER_CHARGES

@<TRIPOS>ATOM
      1 C1         -0.0198    1.2986   -0.0985 C.ar      1 <0>         0.3826
      2 N1          1.0820    2.0211   -0.0973 N.ar      1 <0>        -0.5581
      3 C2          2.2782    1.4431   -0.0046 C.ar      1 <0>         0.4942
      4 C3          2.3527    0.0567    0.0917 C.ar      1 <0>        -0.2186
      5 C4          1.1656   -0.6689    0.0868 C.ar      1 <0>         0.5221
      6 N2          0.0090   -0.0154   -0.0092 N.ar      1 <0>        -0.5564
      7 N3          1.1863   -2.0519    0.1800 N.pl3     1 <0>        -0.6747
      8 C5          1.1432   -2.7210    1.4891 C.3       1 <0>         0.1520
      9 C6          0.0298   -3.7736    1.4612 C.3       1 <0>         0.0430
     10 N4          0.2337   -4.6672    0.3133 N.3       1 <0>        -0.5258
     11 C7          0.1345   -3.9349   -0.9563 C.3       1 <0>         0.0390
     12 C8          1.2460   -2.8891   -1.0278 C.3       1 <0>         0.1530
     13 C9         -0.7106   -5.7920    0.3475 C.3       1 <0>         0.0550
     14 C10        -0.3123   -6.8245   -0.7090 C.3       1 <0>         0.0793
     15 O1          0.9573   -7.3864   -0.3710 O.3       1 <0>        -0.5585
     16 N5          3.6609   -0.6280    0.1961 N.pl3     1 <0>         0.0455
     17 O2          4.1507   -0.8335    1.2821 O.2       1 <0>        -0.1372
     18 O3          4.2396   -0.9818   -0.8047 O.3       1 <0>        -0.1369
     19 N6          3.4323    2.2111   -0.0045 N.pl3     1 <0>        -0.6978
     20 C11         3.3415    3.6697   -0.1069 C.3       1 <0>         0.1563
     21 C12         3.1755    4.0569   -1.5906 C.3       1 <0>        -0.1223
     22 C13         2.5832    5.4384   -1.6606 C.3       1 <0>        -0.1145
     23 C14         3.6578    6.5346   -1.7912 C.3       1 <0>        -0.1195
     24 C15         4.8782    6.2858   -0.8841 C.3       1 <0>        -0.1230
     25 C16         4.4881    5.8009    0.4859 C.3       1 <0>        -0.1071
     26 C17         4.5305    4.2590    0.4906 C.3       1 <0>        -0.1371
     27 H1         -0.9744    1.7984   -0.1705 H         1 <0>         0.2144
     28 H2          2.1000   -3.2052    1.6845 H         1 <0>         0.0747
     29 H3          0.9346   -1.9879    2.2683 H         1 <0>         0.0744
     30 H4          0.0552   -4.3543    2.3833 H         1 <0>         0.0872
     31 H5         -0.9368   -3.2782    1.3694 H         1 <0>         0.0408
     32 H6          0.2358   -4.6327   -1.7875 H         1 <0>         0.0871
     33 H7         -0.8336   -3.4373   -1.0145 H         1 <0>         0.0401
     34 H8          1.1054   -2.2671   -1.9118 H         1 <0>         0.0735
     35 H9          2.2128   -3.3897   -1.0789 H         1 <0>         0.0741
     36 H10        -0.6889   -6.2547    1.3341 H         1 <0>         0.0847
     37 H11        -1.7167   -5.4282    0.1388 H         1 <0>         0.0483
     38 H12        -1.0617   -7.6153   -0.7448 H         1 <0>         0.0489
     39 H13        -0.2477   -6.3408   -1.6836 H         1 <0>         0.0452
     40 H14         1.2732   -8.0506   -0.9989 H         1 <0>         0.3759
     41 H15         4.2999    1.7828    0.0633 H         1 <0>         0.4101
     42 H16         2.4645    4.0080    0.4449 H         1 <0>         0.0956
     43 H17         4.1485    4.0504   -2.0818 H         1 <0>         0.0686
     44 H18         2.5094    3.3476   -2.0819 H         1 <0>         0.0668
     45 H19         1.9170    5.4933   -2.5216 H         1 <0>         0.0634
     46 H20         2.0027    5.6195   -0.7560 H         1 <0>         0.0647
     47 H21         3.9929    6.5767   -2.8275 H         1 <0>         0.0598
     48 H22         3.2143    7.4948   -1.5281 H         1 <0>         0.0615
     49 H23         5.5197    5.5397   -1.3529 H         1 <0>         0.0613
     50 H24         5.4378    7.2157   -0.7830 H         1 <0>         0.0626
     51 H25         5.1892    6.1887    1.2249 H         1 <0>         0.0714
     52 H26         3.4792    6.1401    0.7209 H         1 <0>         0.0710
     53 H27         4.6176    3.9115    1.5201 H         1 <0>         0.0696
     54 H28         5.4068    3.9283   -0.0670 H         1 <0>         0.0693
@<TRIPOS>BOND
     1    1    6 ar
     2    1    2 ar
     3    1   27 1
     4    2    3 ar
     5    3    4 ar
     6    3   19 1
     7    4    5 ar
     8    4   16 1
     9    5    6 ar
    10    5    7 1
    11    7   12 1
    12    7    8 1
    13    8    9 1
    14    8   28 1
    15    8   29 1
    16    9   10 1
    17    9   30 1
    18    9   31 1
    19   10   11 1
    20   10   13 1
    21   11   12 1
    22   11   32 1
    23   11   33 1
    24   12   34 1
    25   12   35 1
    26   13   14 1
    27   13   36 1
    28   13   37 1
    29   14   15 1
    30   14   38 1
    31   14   39 1
    32   15   40 1
    33   16   17 2
    34   16   18 1
    35   19   20 1
    36   19   41 1
    37   20   26 1
    38   20   21 1
    39   20   42 1
    40   21   22 1
    41   21   43 1
    42   21   44 1
    43   22   23 1
    44   22   45 1
    45   22   46 1
    46   23   24 1
    47   23   47 1
    48   23   48 1
    49   24   25 1
    50   24   49 1
    51   24   50 1
    52   25   26 1
    53   25   51 1
    54   25   52 1
    55   26   53 1
    56   26   54 1
@<TRIPOS>MOLECULE
ZINC55072701
   48    52     0     0     0
SMALL
USER_CHARGES

@<TRIPOS>ATOM
      1 C1         -0.0335    1.3611   -0.0453 C.2       1 <0>        -0.0422
      2 C2          1.2589    1.7628   -0.0651 C.2       1 <0>        -0.0407
      3 N1          2.0024    0.6507   -0.0623 N.2       1 <0>        -0.2531
      4 N2          1.2221   -0.3718   -0.0421 N.2       1 <0>        -0.0799
      5 N3         -0.0076    0.0083   -0.0313 N.pl3     1 <0>        -0.2821
      6 C3         -1.1781   -0.8724   -0.0075 C.3       1 <0>         0.1424
      7 C4         -2.3058   -0.2440   -0.8294 C.3       1 <0>        -0.1439
      8 C5         -3.5158   -1.1835   -0.8308 C.3       1 <0>         0.1225
      9 N4         -3.8799   -1.4879    0.5597 N.pl3     1 <0>        -0.5826
     10 C6         -2.8457   -2.0120    1.4622 C.3       1 <0>         0.1057
     11 C7         -1.6432   -1.0632    1.4380 C.3       1 <0>        -0.1416
     12 C8         -5.1723   -1.2843    1.0109 C.ar      1 <0>         0.5081
     13 C9         -5.5557   -1.6896    2.3009 C.ar      1 <0>        -0.1070
     14 C10        -6.8814   -1.4558    2.7029 C.ar      1 <0>         0.3035
     15 N5         -6.9802   -1.9422    3.9819 N.pl3     1 <0>        -0.5783
     16 H1         -7.7731   -1.9312    4.5405 H         1 <0>         0.4330
     17 C11        -5.7599   -2.4445    4.3235 C.2       1 <0>         0.2582
     18 N6         -4.9256   -2.2953    3.3358 N.2       1 <0>        -0.4676
     19 N7         -7.7184   -0.8644    1.8564 N.ar      1 <0>        -0.5613
     20 C12        -7.3147   -0.5014    0.6574 C.ar      1 <0>         0.3679
     21 N8         -6.0780   -0.6962    0.2366 N.ar      1 <0>        -0.5912
     22 C13         1.7614    3.1833   -0.0867 C.3       1 <0>         0.2154
     23 C14         1.2985    3.8881   -1.3784 C.3       1 <0>        -0.1428
     24 C15         2.4954    4.7904   -1.7688 C.3       1 <0>        -0.1215
     25 C16         3.7183    3.9111   -1.4076 C.3       1 <0>        -0.1234
     26 C17         3.3000    3.1980   -0.1052 C.3       1 <0>        -0.1131
     27 O1          1.2789    3.8903    1.0577 O.3       1 <0>        -0.5448
     28 H2         -0.9091    1.9932   -0.0375 H         1 <0>         0.1847
     29 H3         -0.9134   -1.8397   -0.4345 H         1 <0>         0.1183
     30 H4         -2.5881    0.7121   -0.3884 H         1 <0>         0.0820
     31 H5         -1.9660   -0.0868   -1.8530 H         1 <0>         0.0921
     32 H6         -4.3545   -0.6984   -1.3303 H         1 <0>         0.1141
     33 H7         -3.2614   -2.1062   -1.3523 H         1 <0>         0.0764
     34 H8         -3.2422   -2.0736    2.4756 H         1 <0>         0.1386
     35 H9         -2.5366   -3.0023    1.1277 H         1 <0>         0.0763
     36 H10        -0.8318   -1.4892    2.0280 H         1 <0>         0.0924
     37 H11        -1.9317   -0.0994    1.8575 H         1 <0>         0.0770
     38 H12        -5.5207   -2.8991    5.2735 H         1 <0>         0.2278
     39 H13        -8.0202   -0.0234   -0.0060 H         1 <0>         0.2060
     40 H14         1.1005    3.1568   -2.1621 H         1 <0>         0.0743
     41 H15         0.4119    4.4925   -1.1865 H         1 <0>         0.0749
     42 H16         2.4805    5.0117   -2.8360 H         1 <0>         0.0695
     43 H17         2.4937    5.7093   -1.1825 H         1 <0>         0.0725
     44 H18         3.9112    3.1835   -2.1959 H         1 <0>         0.0680
     45 H19         4.5976    4.5322   -1.2369 H         1 <0>         0.0710
     46 H20         3.6786    3.7450    0.7583 H         1 <0>         0.0792
     47 H21         3.6832    2.1775   -0.0986 H         1 <0>         0.0925
     48 H22         0.3146    3.9256    1.1204 H         1 <0>         0.3730
@<TRIPOS>BOND
     1    1    5 1
     2    1    2 2
     3    1   28 1
     4    2    3 1
     5    2   22 1
     6    3    4 2
     7    4    5 1
     8    5    6 1
     9    6   11 1
    10    6    7 1
    11    6   29 1
    12    7    8 1
    13    7   30 1
    14    7   31 1
    15    8    9 1
    16    8   32 1
    17    8   33 1
    18    9   10 1
    19    9   12 1
    20   10   11 1
    21   10   34 1
    22   10   35 1
    23   11   36 1
    24   11   37 1
    25   12   21 ar
    26   12   13 ar
    27   13   18 1
    28   13   14 ar
    29   14   15 1
    30   14   19 ar
    31   15   16 1
    32   15   17 1
    33   17   18 2
    34   17   38 1
    35   19   20 ar
    36   20   21 ar
    37   20   39 1
    38   22   26 1
    39   22   23 1
    40   22   27 1
    41   23   24 1
    42   23   40 1
    43   23   41 1
    44   24   25 1
    45   24   42 1
    46   24   43 1
    47   25   26 1
    48   25   44 1
    49   25   45 1
    50   26   46 1
    51   26   47 1
    52   27   48 1
@<TRIPOS>MOLECULE
ZINC64438382
   44    48     0     0     0
SMALL
USER_CHARGES

@<TRIPOS>ATOM
      1 C1         -0.0168    1.3907    0.0097 C.ar      1 <0>        -0.0564
      2 C2          1.1698    2.0941    0.0021 C.ar      1 <0>        -0.1098
      3 C3          2.3782    1.4181   -0.0130 C.ar      1 <0>        -0.0147
      4 C4          2.4029    0.0336   -0.0207 C.ar      1 <0>        -0.1107
      5 C5          1.2223   -0.6799   -0.0133 C.ar      1 <0>        -0.0756
      6 C6          0.0021   -0.0041    0.0020 C.ar      1 <0>        -0.0436
      7 C7         -1.2680   -0.7642    0.0106 C.2       1 <0>         0.3590
      8 N1         -2.4425   -0.2240    0.0195 N.2       1 <0>        -0.3396
      9 O1         -3.4542   -1.2133    0.0251 O.3       1 <0>        -0.1889
     10 C8         -2.7842   -2.4832    0.0186 C.3       1 <0>         0.2830
     11 H1         -3.0476   -3.0477   -0.8758 H         1 <0>         0.1012
     12 N2         -1.3524   -2.1446    0.0040 N.pl3     1 <0>        -0.7541
     13 C9         -3.1388   -3.2805    1.2755 C.3       1 <0>        -0.1588
     14 C10        -4.6222   -3.6536    1.2412 C.3       1 <0>         0.1159
     15 N3         -4.9617   -4.4169    2.4446 N.am      1 <0>        -0.5537
     16 C11        -4.8451   -5.7622    2.4299 C.2       1 <0>         0.5708
     17 O2         -4.4626   -6.3438    1.4325 O.2       1 <0>        -0.4858
     18 C12        -5.1918   -6.5071    3.6508 C.ar      1 <0>        -0.1931
     19 C13        -5.0976   -7.8978    3.7112 C.ar      1 <0>         0.0046
     20 C14        -5.4339   -8.5539    4.8778 C.ar      1 <0>        -0.0022
     21 C15        -5.8664   -7.8300    5.9935 C.ar      1 <0>         0.1162
     22 C16        -5.9613   -6.4483    5.9384 C.ar      1 <0>        -0.1524
     23 C17        -5.6272   -5.7797    4.7733 C.ar      1 <0>         0.2189
     24 N4         -5.7109   -4.3960    4.6807 N.am      1 <0>        -0.6398
     25 H2         -6.0092   -3.8803    5.4462 H         1 <0>         0.4384
     26 C18        -5.3772   -3.7650    3.5418 C.2       1 <0>         0.7043
     27 O3         -5.4598   -2.5526    3.5022 O.2       1 <0>        -0.5254
     28 O4         -6.1321   -8.7077    7.0030 O.3       1 <0>        -0.2981
     29 C19        -6.2538   -9.9961    6.3726 C.3       1 <0>         0.2116
     30 O5         -5.4319   -9.8824    5.1961 O.3       1 <0>        -0.2996
     31 Cl1         3.8678    2.3096   -0.0230 Cl        1 <0>        -0.0570
     32 H3         -0.9587    1.9189    0.0260 H         1 <0>         0.1489
     33 H4          1.1563    3.1740    0.0077 H         1 <0>         0.1451
     34 H5          3.3482   -0.4886   -0.0329 H         1 <0>         0.1434
     35 H6          1.2426   -1.7597   -0.0196 H         1 <0>         0.1350
     36 H7         -0.6105   -2.7694   -0.0067 H         1 <0>         0.4272
     37 H8         -2.5365   -4.1882    1.3118 H         1 <0>         0.0854
     38 H9         -2.9368   -2.6748    2.1589 H         1 <0>         0.0822
     39 H10        -5.2244   -2.7458    1.2048 H         1 <0>         0.1135
     40 H11        -4.8242   -4.2592    0.3577 H         1 <0>         0.1058
     41 H12        -4.7639   -8.4576    2.8501 H         1 <0>         0.1597
     42 H13        -6.2957   -5.8942    6.8030 H         1 <0>         0.1558
     43 H14        -5.8764  -10.7804    7.0288 H         1 <0>         0.1400
     44 H15        -7.2904  -10.1914    6.0980 H         1 <0>         0.0932
@<TRIPOS>BOND
     1    1    6 ar
     2    1    2 ar
     3    1   32 1
     4    2    3 ar
     5    2   33 1
     6    3    4 ar
     7    3   31 1
     8    4    5 ar
     9    4   34 1
    10    5    6 ar
    11    5   35 1
    12    6    7 1
    13    7   12 1
    14    7    8 2
    15    8    9 1
    16    9   10 1
    17   10   11 1
    18   10   12 1
    19   10   13 1
    20   12   36 1
    21   13   14 1
    22   13   37 1
    23   13   38 1
    24   14   15 1
    25   14   39 1
    26   14   40 1
    27   15   26 am
    28   15   16 am
    29   16   17 2
    30   16   18 1
    31   18   23 ar
    32   18   19 ar
    33   19   20 ar
    34   19   41 1
    35   20   30 1
    36   20   21 ar
    37   21   22 ar
    38   21   28 1
    39   22   23 ar
    40   22   42 1
    41   23   24 1
    42   24   25 1
    43   24   26 am
    44   26   27 2
    45   28   29 1
    46   29   30 1
    47   29   43 1
    48   29   44 1
@<TRIPOS>MOLECULE
ZINC20736212
   49    53     0     0     0
SMALL
USER_CHARGES

@<TRIPOS>ATOM
      1 C1         -0.0184    1.5028    0.0103 C.3       1 <0>        -0.0779
      2 C2          0.0021   -0.0041    0.0020 C.2       1 <0>         0.1351
      3 C3          0.0079   -0.8105   -1.1274 C.2       1 <0>        -0.2543
      4 C4          0.0331   -2.1158   -0.7150 C.2       1 <0>         0.3402
      5 N1          0.0334   -2.1167    0.6359 N.pl3     1 <0>        -0.3218
      6 N2          0.0231   -0.7782    1.0616 N.2       1 <0>        -0.2419
      7 C5          0.0466   -3.2414    1.4579 C.ar      1 <0>         0.4922
      8 C6          0.0395   -3.1095    2.8550 C.ar      1 <0>        -0.0460
      9 C7          0.0530   -4.2817    3.6328 C.ar      1 <0>         0.2953
     10 N3          0.0423   -3.8671    4.9408 N.pl3     1 <0>        -0.5780
     11 H1          0.0477   -4.4391    5.7242 H         1 <0>         0.4362
     12 C8          0.0233   -2.5044    4.9374 C.2       1 <0>         0.2723
     13 N4          0.0217   -2.0619    3.7133 N.2       1 <0>        -0.4353
     14 N5          0.0722   -5.4607    3.0223 N.ar      1 <0>        -0.5219
     15 C9          0.0785   -5.5349    1.7079 C.ar      1 <0>         0.3563
     16 N6          0.0605   -4.4628    0.9374 N.ar      1 <0>        -0.5672
     17 N7          0.0648   -3.1747   -1.6203 N.am      1 <0>        -0.6400
     18 C10         0.2745   -2.8909   -2.9233 C.2       1 <0>         0.5336
     19 O1          0.1187   -3.7667   -3.7478 O.2       1 <0>        -0.5072
     20 C11         0.6944   -1.5239   -3.3842 C.3       1 <0>        -0.1346
     21 C12        -0.0141   -0.4256   -2.5850 C.3       1 <0>         0.0466
     22 H2          0.5062    0.5224   -2.7224 H         1 <0>         0.1171
     23 C13        -1.4402   -0.2957   -3.0544 C.ar      1 <0>        -0.1091
     24 C14        -2.2936   -1.3798   -2.9815 C.ar      1 <0>        -0.0743
     25 C15        -3.6018   -1.2614   -3.4124 C.ar      1 <0>        -0.1514
     26 C16        -4.0598   -0.0581   -3.9169 C.ar      1 <0>        -0.0775
     27 C17        -3.2108    1.0288   -3.9915 C.ar      1 <0>        -0.2059
     28 C18        -1.8988    0.9140   -3.5548 C.ar      1 <0>         0.1401
     29 O2         -1.0630    1.9836   -3.6219 O.3       1 <0>        -0.3073
     30 C19        -1.6035    3.1972   -4.1482 C.3       1 <0>         0.0870
     31 C20        -0.5391    4.2640   -4.1453 C.2       1 <0>        -0.1587
     32 C21        -0.3754    5.0288   -5.1962 C.2       1 <0>        -0.1682
     33 H3          1.0042    1.8801    0.0026 H         1 <0>         0.0863
     34 H4         -0.5455    1.8639   -0.8728 H         1 <0>         0.0868
     35 H5         -0.5286    1.8543    0.9071 H         1 <0>         0.0798
     36 H6          0.0108   -1.8830    5.8206 H         1 <0>         0.2344
     37 H7          0.0942   -6.5093    1.2424 H         1 <0>         0.2195
     38 H8         -0.0606   -4.0894   -1.3228 H         1 <0>         0.4263
     39 H9          1.7719   -1.4195   -3.2568 H         1 <0>         0.1123
     40 H10         0.4484   -1.4120   -4.4402 H         1 <0>         0.1160
     41 H11        -1.9382   -2.3207   -2.5879 H         1 <0>         0.1180
     42 H12        -4.2671   -2.1102   -3.3553 H         1 <0>         0.1226
     43 H13        -5.0822    0.0318   -4.2533 H         1 <0>         0.1255
     44 H14        -3.5690    1.9684   -4.3856 H         1 <0>         0.1290
     45 H15        -1.9470    3.0294   -5.1689 H         1 <0>         0.0676
     46 H16        -2.4422    3.5192   -3.5309 H         1 <0>         0.0727
     47 H17         0.0888    4.3980   -3.2769 H         1 <0>         0.1217
     48 H18         0.3875    5.7933   -5.1942 H         1 <0>         0.1087
     49 H19        -1.0033    4.8948   -6.0647 H         1 <0>         0.0992
@<TRIPOS>BOND
     1    1    2 1
     2    1   33 1
     3    1   34 1
     4    1   35 1
     5    2    6 2
     6    2    3 1
     7    3   21 1
     8    3    4 2
     9    4    5 1
    10    4   17 1
    11    5    6 1
    12    5    7 1
    13    7   16 ar
    14    7    8 ar
    15    8   13 1
    16    8    9 ar
    17    9   10 1
    18    9   14 ar
    19   10   11 1
    20   10   12 1
    21   12   13 2
    22   12   36 1
    23   14   15 ar
    24   15   16 ar
    25   15   37 1
    26   17   18 am
    27   17   38 1
    28   18   19 2
    29   18   20 1
    30   20   21 1
    31   20   39 1
    32   20   40 1
    33   21   22 1
    34   21   23 1
    35   23   28 ar
    36   23   24 ar
    37   24   25 ar
    38   24   41 1
    39   25   26 ar
    40   25   42 1
    41   26   27 ar
    42   26   43 1
    43   27   28 ar
    44   27   44 1
    45   28   29 1
    46   29   30 1
    47   30   31 1
    48   30   45 1
    49   30   46 1
    50   31   32 2
    51   31   47 1
    52   32   48 1
    53   32   49 1
@<TRIPOS>MOLECULE
ZINC20830614
   49    51     0     0     0
SMALL
USER_CHARGES
(1S,2R)-2-[[2-(4-ethyl-6-oxo-1H-pyrimidin-2-yl)-5-methyl-pyrazol-3-yl]carbamoyl]cyclohexane-1-carboxylic acid
@<TRIPOS>ATOM
      1 C1         -2.4260    8.2211   -2.6361 C.3       1 <0>        -0.1592
      2 C2         -1.9333    8.4312   -1.2029 C.3       1 <0>        -0.0939
      3 C3         -0.4486    8.6892   -1.2148 C.2       1 <0>         0.1631
      4 C4          0.0200    9.9700   -1.2181 C.2       1 <0>        -0.2764
      5 C5          1.4113   10.1838   -1.2293 C.2       1 <0>         0.5120
      6 O1          1.8668   11.3155   -1.2326 O.2       1 <0>        -0.5185
      7 N1          2.2318    9.1114   -1.2308 N.2       1 <0>        -0.5604
      8 C6          1.7053    7.8585   -1.2330 C.2       1 <0>         0.6416
      9 N2          0.4044    7.6661   -1.2226 N.pl3     1 <0>        -0.5988
     10 N3          2.5529    6.7661   -1.2408 N.pl3     1 <0>        -0.3492
     11 C7          2.1754    5.4545   -1.2387 C.2       1 <0>         0.3004
     12 C8          3.3101    4.7050   -1.2541 C.2       1 <0>        -0.2336
     13 C9          4.4026    5.5791   -1.2601 C.2       1 <0>         0.1121
     14 N4          3.9531    6.8070   -1.2490 N.2       1 <0>        -0.2334
     15 C10         5.8540    5.1735   -1.2760 C.3       1 <0>        -0.0787
     16 N5          0.8686    4.9724   -1.2288 N.am      1 <0>        -0.6577
     17 C11         0.6404    3.6441   -1.2338 C.2       1 <0>         0.5430
     18 O2          1.5728    2.8686   -1.2469 O.2       1 <0>        -0.4464
     19 C12        -0.7734    3.1225   -1.2231 C.3       1 <0>        -0.0787
     20 H1         -1.2924    3.4945   -2.1188 H         1 <0>         0.1025
     21 C13        -1.4896    3.6159    0.0357 C.3       1 <0>        -0.1143
     22 C14        -0.7496    3.1091    1.2752 C.3       1 <0>        -0.1234
     23 C15        -0.7288    1.5792    1.2668 C.3       1 <0>        -0.1192
     24 C16        -0.0127    1.0858    0.0080 C.3       1 <0>        -0.1125
     25 C17        -0.7527    1.5927   -1.2315 C.3       1 <0>        -0.1118
     26 H2         -1.7820    1.2048   -1.2373 H         1 <0>         0.0801
     27 C18        -0.0473    1.1067   -2.4714 C.2       1 <0>         0.4740
     28 O3          0.3936    1.9022   -3.2667 O.co2     1 <0>        -0.6371
     29 O4          0.0912   -0.2101   -2.6922 O.co2     1 <0>        -0.7683
     30 H3         -3.5097    8.0328   -2.6273 H         1 <0>         0.0778
     31 H4         -1.9074    7.3582   -3.0793 H         1 <0>         0.0591
     32 H5         -2.2150    9.1213   -3.2320 H         1 <0>         0.0689
     33 H6         -2.4519    9.2941   -0.7597 H         1 <0>         0.1102
     34 H7         -2.1443    7.5310   -0.6070 H         1 <0>         0.0879
     35 H8         -0.6643   10.8055   -1.2126 H         1 <0>         0.1599
     36 H9          3.3592    3.6262   -1.2608 H         1 <0>         0.1928
     37 H10         6.4862    6.0736   -1.2775 H         1 <0>         0.0791
     38 H11         6.0590    4.5800   -2.1792 H         1 <0>         0.0900
     39 H12         6.0761    4.5709   -0.3830 H         1 <0>         0.0884
     40 H13         0.0230    5.6758   -1.2169 H         1 <0>         0.3883
     41 H14        -1.5046    4.7158    0.0417 H         1 <0>         0.0501
     42 H15        -2.5216    3.2351    0.0435 H         1 <0>         0.0837
     43 H16         0.2824    3.4899    1.2674 H         1 <0>         0.0573
     44 H17        -1.2644    3.4638    2.1802 H         1 <0>         0.0631
     45 H18        -0.1967    1.2149    2.1580 H         1 <0>         0.0588
     46 H19        -1.7608    1.1984    1.2747 H         1 <0>         0.0601
     47 H20         1.0193    1.4665    0.0002 H         1 <0>         0.0814
     48 H21         0.0022   -0.0141    0.0019 H         1 <0>         0.0707
     49 H22         0.0249    6.6336   -1.2204 H         1 <0>         0.4150
@<TRIPOS>BOND
     1    1    2 1
     2    1   30 1
     3    1   31 1
     4    1   32 1
     5    2    3 1
     6    2   33 1
     7    2   34 1
     8    3    9 1
     9    3    4 2
    10    4    5 1
    11    4   35 1
    12    5    6 2
    13    5    7 1
    14    7    8 2
    15    8    9 1
    16    8   10 1
    17    9   49 1
    18   10   14 1
    19   10   11 1
    20   11   12 2
    21   11   16 1
    22   12   13 1
    23   12   36 1
    24   13   14 2
    25   13   15 1
    26   15   37 1
    27   15   38 1
    28   15   39 1
    29   16   17 am
    30   16   40 1
    31   17   18 2
    32   17   19 1
    33   19   20 1
    34   19   25 1
    35   19   21 1
    36   21   22 1
    37   21   41 1
    38   21   42 1
    39   22   23 1
    40   22   43 1
    41   22   44 1
    42   23   24 1
    43   23   45 1
    44   23   46 1
    45   24   25 1
    46   24   47 1
    47   24   48 1
    48   25   26 1
    49   25   27 1
    50   27   28 2
    51   27   29 1
@<TRIPOS>MOLECULE
ZINC13077776
   46    49     0     0     0
SMALL
USER_CHARGES

@<TRIPOS>ATOM
      1 C1          2.3308   -2.2214   -1.1877 C.3       1 <0>        -0.1579
      2 C2          2.0720   -0.7174   -1.2978 C.3       1 <0>         0.0087
      3 H1          2.4215   -0.3585   -2.2659 H         1 <0>         0.0706
      4 C3          2.8113    0.0014   -0.1988 C.2       1 <0>         0.5049
      5 O1          4.0302   -0.0085   -0.1765 O.co2     1 <0>        -0.6816
      6 O2          2.1904    0.5927    0.6680 O.co2     1 <0>        -0.6693
      7 O3          0.6709   -0.4649   -1.1737 O.3       1 <0>        -0.2710
      8 C4         -0.0778   -0.5738   -2.3021 C.ar      1 <0>         0.1719
      9 C5         -1.4225   -0.2284   -2.2772 C.ar      1 <0>        -0.1583
     10 C6         -2.1853   -0.3381   -3.4203 C.ar      1 <0>        -0.0569
     11 C7         -1.6047   -0.7961   -4.6031 C.ar      1 <0>        -0.1381
     12 C8         -0.2534   -1.1417   -4.6247 C.ar      1 <0>        -0.0419
     13 C9          0.5048   -1.0247   -3.4791 C.ar      1 <0>        -0.2176
     14 C10        -2.4209   -0.9157   -5.8326 C.2       1 <0>         0.2298
     15 C11        -1.8479   -1.3586   -6.9434 C.2       1 <0>        -0.2769
     16 C12        -2.5810   -1.5115   -8.2491 C.3       1 <0>         0.2621
     17 H2         -2.3685   -2.4936   -8.6716 H         1 <0>         0.1246
     18 N1         -4.0153   -1.3799   -8.0245 N.pl3     1 <0>        -0.4023
     19 C13        -4.5617   -0.9251   -6.8665 C.2       1 <0>         0.4832
     20 N2         -5.8550   -0.9315   -7.0197 N.2       1 <0>        -0.3475
     21 N3         -6.1634   -1.3642   -8.1944 N.2       1 <0>        -0.0213
     22 N4         -5.0944   -1.6578   -8.8619 N.2       1 <0>        -0.0676
     23 N5         -3.7763   -0.5626   -5.7847 N.pl3     1 <0>        -0.6214
     24 C14        -2.1243   -0.4431   -9.2088 C.ar      1 <0>        -0.1142
     25 C15        -2.2843    0.8913   -8.8833 C.ar      1 <0>        -0.0239
     26 C16        -1.8665    1.8725   -9.7612 C.ar      1 <0>        -0.1444
     27 C17        -1.2855    1.5181  -10.9703 C.ar      1 <0>         0.1933
     28 C18        -1.1257    0.1789  -11.2943 C.ar      1 <0>        -0.0812
     29 C19        -1.5409   -0.7987  -10.4106 C.ar      1 <0>        -0.0146
     30 N6         -0.5068   -0.2025  -12.5835 N.pl3     1 <0>         0.0377
     31 O4         -0.3678   -1.3700  -12.8653 O.2       1 <0>        -0.1648
     32 O5         -0.1402    0.6533  -13.3547 O.3       1 <0>        -0.1371
     33 O6         -0.8741    2.4816  -11.8360 O.3       1 <0>        -0.4724
     34 H3          1.9813   -2.5803   -0.2196 H         1 <0>         0.0619
     35 H4          1.7961   -2.7412   -1.9826 H         1 <0>         0.0486
     36 H5          3.3995   -2.4140   -1.2824 H         1 <0>         0.0766
     37 H6         -1.8714    0.1261   -1.3611 H         1 <0>         0.1387
     38 H7         -3.2313   -0.0700   -3.4000 H         1 <0>         0.1241
     39 H8          0.1993   -1.4967   -5.5387 H         1 <0>         0.1305
     40 H9          1.5521   -1.2879   -3.4962 H         1 <0>         0.1398
     41 H10        -0.8013   -1.6230   -6.9096 H         1 <0>         0.1660
     42 H11        -4.1482   -0.0825   -5.0283 H         1 <0>         0.4403
     43 H12        -2.7366    1.1666   -7.9420 H         1 <0>         0.1390
     44 H13        -1.9924    2.9145   -9.5068 H         1 <0>         0.1577
     45 H14        -1.4133   -1.8416  -10.6608 H         1 <0>         0.1630
     46 H15         0.0416    2.7634  -11.7046 H         1 <0>         0.4091
@<TRIPOS>BOND
     1    1    2 1
     2    1   34 1
     3    1   35 1
     4    1   36 1
     5    2    3 1
     6    2    4 1
     7    2    7 1
     8    4    5 2
     9    4    6 1
    10    7    8 1
    11    8   13 ar
    12    8    9 ar
    13    9   10 ar
    14    9   37 1
    15   10   11 ar
    16   10   38 1
    17   11   12 ar
    18   11   14 1
    19   12   13 ar
    20   12   39 1
    21   13   40 1
    22   14   23 1
    23   14   15 2
    24   15   16 1
    25   15   41 1
    26   16   17 1
    27   16   18 1
    28   16   24 1
    29   18   22 1
    30   18   19 1
    31   19   20 2
    32   19   23 1
    33   20   21 1
    34   21   22 2
    35   23   42 1
    36   24   29 ar
    37   24   25 ar
    38   25   26 ar
    39   25   43 1
    40   26   27 ar
    41   26   44 1
    42   27   28 ar
    43   27   33 1
    44   28   29 ar
    45   28   30 1
    46   29   45 1
    47   30   31 2
    48   30   32 1
    49   33   46 1
@<TRIPOS>MOLECULE
ZINC35684765
   47    50     0     0     0
SMALL
USER_CHARGES

@<TRIPOS>ATOM
      1 C1          1.6678    1.0503   -0.6595 C.3       1 <0>         0.0315
      2 O1          1.1234   -0.2532   -0.4435 O.3       1 <0>        -0.3246
      3 C2          1.1846   -0.7449    0.8202 C.ar      1 <0>         0.0946
      4 C3          1.7531    0.0164    1.8330 C.ar      1 <0>        -0.2078
      5 C4          1.8180   -0.4773    3.1170 C.ar      1 <0>        -0.0552
      6 C5          1.3107   -1.7489    3.4044 C.ar      1 <0>        -0.1487
      7 C6          0.7379   -2.5165    2.3852 C.ar      1 <0>        -0.0445
      8 C7          0.6709   -2.0124    1.0999 C.ar      1 <0>         0.0885
      9 N1          0.0927   -2.7759    0.0766 N.am      1 <0>        -0.6551
     10 C8          0.2324   -4.1164    0.0749 C.2       1 <0>         0.4978
     11 O2          0.7880   -4.6694    1.0005 O.2       1 <0>        -0.4553
     12 C9         -0.3018   -4.9282   -1.0769 C.3       1 <0>         0.1524
     13 H1         -1.3778   -4.7769   -1.1627 H         1 <0>         0.1271
     14 C10         0.3831   -4.4912   -2.3741 C.3       1 <0>        -0.1514
     15 C11         0.1811   -5.5030   -3.4668 C.2       1 <0>         0.5265
     16 O3          0.0402   -5.1213   -4.6094 O.2       1 <0>        -0.5034
     17 N2          0.1532   -6.8295   -3.2047 N.am      1 <0>        -0.6395
     18 C12         0.1935   -7.2228   -1.8703 C.2       1 <0>         0.3142
     19 N3         -0.0219   -6.3482   -0.8488 N.pl3     1 <0>        -0.3739
     20 N4          0.0802   -7.0444    0.3510 N.2       1 <0>        -0.2133
     21 C13         0.3455   -8.3002    0.0898 C.2       1 <0>         0.0742
     22 C14         0.4312   -8.4542   -1.3157 C.2       1 <0>        -0.2147
     23 C15         0.7153   -9.7113   -2.0498 C.ar      1 <0>         0.0158
     24 C16        -0.1089  -10.1085   -3.1013 C.ar      1 <0>        -0.1126
     25 C17         0.1597  -11.2790   -3.7811 C.ar      1 <0>        -0.1035
     26 C18         1.2452  -12.0586   -3.4199 C.ar      1 <0>        -0.0423
     27 C19         2.0665  -11.6688   -2.3759 C.ar      1 <0>        -0.1028
     28 C20         1.8105  -10.4966   -1.6941 C.ar      1 <0>        -0.0952
     29 Cl1         1.5772  -13.5303   -4.2786 Cl        1 <0>        -0.0751
     30 C21         1.3799   -2.2781    4.7768 C.2       1 <0>         0.5223
     31 O4          1.8816   -1.6056    5.6671 O.co2     1 <0>        -0.6902
     32 O5          0.9358   -3.3903    5.0266 O.co2     1 <0>        -0.6807
     33 H2          2.7255    1.0505   -0.3961 H         1 <0>         0.0533
     34 H3          1.5546    1.3219   -1.7090 H         1 <0>         0.0943
     35 H4          1.1385    1.7727   -0.0381 H         1 <0>         0.0537
     36 H5          2.1457    0.9982    1.6131 H         1 <0>         0.1257
     37 H6          2.2611    0.1173    3.9022 H         1 <0>         0.1321
     38 H7          0.3454   -3.4989    2.6027 H         1 <0>         0.1537
     39 H8         -0.4080   -2.3396   -0.6303 H         1 <0>         0.4077
     40 H9         -0.0320   -3.5349   -2.6922 H         1 <0>         0.1421
     41 H10         1.4510   -4.3722   -2.1912 H         1 <0>         0.1245
     42 H11         0.1064   -7.4827   -3.9203 H         1 <0>         0.4289
     43 H12         0.4814   -9.0830    0.8213 H         1 <0>         0.1958
     44 H13        -0.9564   -9.5014   -3.3834 H         1 <0>         0.1278
     45 H14        -0.4783  -11.5877   -4.5960 H         1 <0>         0.1333
     46 H15         2.9117  -12.2807   -2.0975 H         1 <0>         0.1347
     47 H16         2.4548  -10.1907   -0.8831 H         1 <0>         0.1373
@<TRIPOS>BOND
     1    1    2 1
     2    1   33 1
     3    1   34 1
     4    1   35 1
     5    2    3 1
     6    3    8 ar
     7    3    4 ar
     8    4    5 ar
     9    4   36 1
    10    5    6 ar
    11    5   37 1
    12    6    7 ar
    13    6   30 1
    14    7    8 ar
    15    7   38 1
    16    8    9 1
    17    9   10 am
    18    9   39 1
    19   10   11 2
    20   10   12 1
    21   12   13 1
    22   12   19 1
    23   12   14 1
    24   14   15 1
    25   14   40 1
    26   14   41 1
    27   15   16 2
    28   15   17 am
    29   17   18 1
    30   17   42 1
    31   18   22 2
    32   18   19 1
    33   19   20 1
    34   20   21 2
    35   21   22 1
    36   21   43 1
    37   22   23 1
    38   23   28 ar
    39   23   24 ar
    40   24   25 ar
    41   24   44 1
    42   25   26 ar
    43   25   45 1
    44   26   27 ar
    45   26   29 1
    46   27   28 ar
    47   27   46 1
    48   28   47 1
    49   30   31 2
    50   30   32 1
@<TRIPOS>MOLECULE
ZINC60441813
   38    39     0     0     0
SMALL
USER_CHARGES

@<TRIPOS>ATOM
      1 C1         -0.0276    0.8596    2.0952 C.3       1 <0>        -0.1178
      2 C2          0.1859   -0.5832    1.7161 C.ar      1 <0>        -0.0550
      3 C3         -0.1682   -1.0264    0.4553 C.ar      1 <0>        -0.0763
      4 C4          0.0276   -2.3496    0.1076 C.ar      1 <0>         0.0429
      5 C5          0.5781   -3.2301    1.0204 C.ar      1 <0>        -0.5724
      6 C6          0.9330   -2.7869    2.2805 C.ar      1 <0>        -0.0288
      7 C7          0.7410   -1.4622    2.6269 C.ar      1 <0>        -0.0674
      8 C8          1.1328   -0.9778    3.9991 C.3       1 <0>        -0.1209
      9 S1          0.8267   -4.9173    0.5775 S.o2      1 <0>         2.6040
     10 O1          1.5195   -4.9136   -0.6632 O.2       1 <0>        -1.0006
     11 O2          1.3362   -5.5695    1.7326 O.2       1 <0>        -1.0269
     12 N1         -0.6660   -5.5716    0.2842 N.2       1 <0>        -1.0668
     13 C9         -0.7796   -6.9152   -0.0924 C.ar      1 <0>         0.2557
     14 C10         0.3591   -7.7009   -0.2143 C.ar      1 <0>        -0.1709
     15 C11         0.2470   -9.0261   -0.5852 C.ar      1 <0>        -0.1319
     16 C12        -1.0045   -9.5733   -0.8368 C.ar      1 <0>         0.1743
     17 C13        -2.1428   -8.7879   -0.7148 C.ar      1 <0>        -0.0634
     18 C14        -2.0311   -7.4637   -0.3383 C.ar      1 <0>        -0.0983
     19 N2         -3.4764   -9.3709   -0.9834 N.pl3     1 <0>         0.0496
     20 O3         -4.3111   -8.7247   -1.5727 O.2       1 <0>        -0.1703
     21 O4         -3.7311  -10.4934   -0.6134 O.3       1 <0>        -0.1935
     22 N3         -1.1181  -10.9168   -1.2137 N.pl3     1 <0>        -0.8811
     23 N4         -0.3524   -2.8243   -1.2420 N.pl3     1 <0>         0.0099
     24 O5         -0.7187   -2.0335   -2.0800 O.2       1 <0>        -0.1967
     25 O6         -0.2966   -4.0027   -1.5062 O.3       1 <0>        -0.0512
     26 H1          0.8594    1.4382    1.8373 H         1 <0>         0.0807
     27 H2         -0.8883    1.2537    1.5548 H         1 <0>         0.0758
     28 H3         -0.2085    0.9305    3.1678 H         1 <0>         0.0785
     29 H4         -0.5983   -0.3386   -0.2578 H         1 <0>         0.1547
     30 H5          1.3626   -3.4747    2.9937 H         1 <0>         0.1593
     31 H6          0.2887   -1.0917    4.6793 H         1 <0>         0.0824
     32 H7          1.9756   -1.5643    4.3646 H         1 <0>         0.0770
     33 H8          1.4173    0.0731    3.9459 H         1 <0>         0.0764
     34 H9          1.3323   -7.2751   -0.0194 H         1 <0>         0.1137
     35 H10         1.1325   -9.6370   -0.6800 H         1 <0>         0.1271
     36 H11        -2.9169   -6.8539   -0.2394 H         1 <0>         0.1358
     37 H12        -0.3503  -11.5059   -1.1467 H         1 <0>         0.3963
     38 H13        -1.9645  -11.2585   -1.5419 H         1 <0>         0.3964
@<TRIPOS>BOND
     1    1    2 1
     2    1   26 1
     3    1   27 1
     4    1   28 1
     5    2    7 ar
     6    2    3 ar
     7    3    4 ar
     8    3   29 1
     9    4    5 ar
    10    4   23 1
    11    5    6 ar
    12    5    9 1
    13    6    7 ar
    14    6   30 1
    15    7    8 1
    16    8   31 1
    17    8   32 1
    18    8   33 1
    19    9   10 2
    20    9   11 2
    21    9   12 1
    22   12   13 1
    23   13   18 ar
    24   13   14 ar
    25   14   15 ar
    26   14   34 1
    27   15   16 ar
    28   15   35 1
    29   16   17 ar
    30   16   22 1
    31   17   18 ar
    32   17   19 1
    33   18   36 1
    34   19   20 2
    35   19   21 1
    36   22   37 1
    37   22   38 1
    38   23   24 2
    39   23   25 1
@<TRIPOS>MOLECULE
ZINC63374418
   52    56     0     0     0
SMALL
USER_CHARGES

@<TRIPOS>ATOM
      1 C1          0.8600    0.3362   -2.6919 C.3       1 <0>         0.0262
      2 O1          0.7104   -0.9474   -2.0819 O.3       1 <0>        -0.3195
      3 C2          1.1357   -1.0734   -0.7972 C.ar      1 <0>         0.0424
      4 C3          1.6838    0.0483   -0.1508 C.ar      1 <0>        -0.0718
      5 C4          2.1241    0.0069    1.1247 C.ar      1 <0>        -0.1581
      6 C5          2.0393   -1.2418    1.8864 C.ar      1 <0>         0.2585
      7 N1          2.4096   -1.5502    3.1081 N.pl3     1 <0>        -0.6214
      8 C6          2.0013   -2.9242    3.3813 C.3       1 <0>         0.1071
      9 H1          1.2102   -2.9454    4.1309 H         1 <0>         0.1517
     10 C7          3.1717   -3.8125    3.8120 C.3       1 <0>         0.2017
     11 H2          3.4799   -3.5489    4.8238 H         1 <0>         0.1146
     12 N2          2.7256   -5.2143    3.7789 N.3       1 <0>        -0.6904
     13 C8          2.4374   -5.6975    2.4253 C.3       1 <0>         0.0397
     14 C9          1.2327   -4.9384    1.8389 C.3       1 <0>        -0.0312
     15 C10         1.4936   -3.4641    2.0533 C.2       1 <0>         0.2304
     16 C11         1.4696   -2.4312    1.2030 C.ar      1 <0>        -0.2053
     17 C12         1.0118   -2.2734   -0.1827 C.ar      1 <0>        -0.0235
     18 C13         4.3278   -3.6241    2.8638 C.2       1 <0>        -0.4760
     19 C14         4.1582   -3.8034    1.5228 C.2       1 <0>         0.4623
     20 N3          5.2246   -3.6262    0.6779 N.am      1 <0>        -0.6479
     21 C15         6.4298   -3.2786    1.1651 C.2       1 <0>         0.6999
     22 N4          6.6169   -3.0971    2.4851 N.am      1 <0>        -0.5090
     23 C16         5.5946   -3.2555    3.3490 C.2       1 <0>         0.5680
     24 O2          5.7684   -3.0848    4.5432 O.2       1 <0>        -0.5316
     25 C17         7.8783   -2.7366    2.9630 C.ar      1 <0>         0.1169
     26 C18         8.2172   -1.3924    3.0812 C.ar      1 <0>        -0.1119
     27 C19         9.4596   -1.0328    3.5518 C.ar      1 <0>        -0.0785
     28 C20        10.3820   -2.0211    3.9115 C.ar      1 <0>        -0.1178
     29 C21        10.0373   -3.3715    3.7912 C.ar      1 <0>        -0.0773
     30 C22         8.7908   -3.7226    3.3250 C.ar      1 <0>        -0.1105
     31 C23        11.7127   -1.6408    4.4151 C.2       1 <0>         0.5202
     32 O3         12.0127   -0.4594    4.5193 O.co2     1 <0>        -0.6856
     33 O4         12.5181   -2.5064    4.7292 O.co2     1 <0>        -0.6845
     34 O5          7.3634   -3.1267    0.4013 O.2       1 <0>        -0.5332
     35 O6          2.9509   -4.1530    1.0305 O.3       1 <0>        -0.5365
     36 H3          1.9145    0.6120   -2.7041 H         1 <0>         0.0542
     37 H4          0.4823    0.2992   -3.7137 H         1 <0>         0.1005
     38 H5          0.2974    1.0765   -2.1232 H         1 <0>         0.0531
     39 H6          1.7556    0.9783   -0.6954 H         1 <0>         0.1406
     40 H7          2.5385    0.8928    1.5829 H         1 <0>         0.1425
     41 H8          3.3889   -5.8159    4.2440 H         1 <0>         0.3599
     42 H9          3.3092   -5.5374    1.7910 H         1 <0>         0.0962
     43 H10         2.2102   -6.7629    2.4624 H         1 <0>         0.0643
     44 H11         1.1366   -5.1533    0.7746 H         1 <0>         0.1023
     45 H12         0.3201   -5.2218    2.3634 H         1 <0>         0.0711
     46 H13         0.5816   -3.1115   -0.7107 H         1 <0>         0.1417
     47 H14         7.5046   -0.6301    2.8029 H         1 <0>         0.1109
     48 H15         9.7220    0.0108    3.6429 H         1 <0>         0.1331
     49 H16        10.7467   -4.1375    4.0675 H         1 <0>         0.1340
     50 H17         8.5222   -4.7649    3.2360 H         1 <0>         0.1139
     51 H18         5.1090   -3.7526   -0.2769 H         1 <0>         0.4257
     52 H19         2.8761   -0.9640    3.7243 H         1 <0>         0.4377
@<TRIPOS>BOND
     1    1    2 1
     2    1   36 1
     3    1   37 1
     4    1   38 1
     5    2    3 1
     6    3   17 ar
     7    3    4 ar
     8    4    5 ar
     9    4   39 1
    10    5    6 ar
    11    5   40 1
    12    6   16 ar
    13    6    7 2
    14    7    8 1
    15    7   52 1
    16    8    9 1
    17    8   15 1
    18    8   10 1
    19   10   11 1
    20   10   12 1
    21   10   18 1
    22   12   13 1
    23   12   41 1
    24   13   14 1
    25   13   42 1
    26   13   43 1
    27   14   15 1
    28   14   44 1
    29   14   45 1
    30   15   16 2
    31   16   17 ar
    32   17   46 1
    33   18   23 1
    34   18   19 2
    35   19   35 1
    36   19   20 1
    37   20   51 1
    38   20   21 am
    39   21   34 2
    40   21   22 am
    41   22   23 am
    42   22   25 1
    43   23   24 2
    44   25   30 ar
    45   25   26 ar
    46   26   27 ar
    47   26   47 1
    48   27   28 ar
    49   27   48 1
    50   28   29 ar
    51   28   31 1
    52   29   30 ar
    53   29   49 1
    54   30   50 1
    55   31   32 2
    56   31   33 1
@<TRIPOS>MOLECULE
ZINC13412108
   39    41     0     0     0
SMALL
USER_CHARGES
2-[(1R)-2-(cyclopropylamino)-1-(4-fluorophenyl)-2-oxo-ethoxy]benzoic acid
@<TRIPOS>ATOM
      1 C1         -0.0142    4.0711    0.6944 C.ar      1 <0>        -0.1756
      2 C2          1.1809    3.3702    0.6727 C.ar      1 <0>        -0.0847
      3 C3          1.1885    2.0092    0.4414 C.ar      1 <0>        -0.2281
      4 C4         -0.0039    1.3331    0.2295 C.ar      1 <0>         0.1577
      5 C5         -1.2150    2.0393    0.2458 C.ar      1 <0>        -0.1402
      6 C6         -1.2082    3.4162    0.4856 C.ar      1 <0>        -0.0414
      7 C7         -2.4881    1.3330    0.0159 C.2       1 <0>         0.4923
      8 O1         -2.4902    0.1352   -0.1884 O.co2     1 <0>        -0.6116
      9 O2          0.0021   -0.0041    0.0020 O.3       1 <0>        -0.2314
     10 C8          1.2780   -0.6349   -0.1245 C.3       1 <0>         0.1061
     11 H1          1.9701    0.0422   -0.6253 H         1 <0>         0.1027
     12 C9          1.1360   -1.8976   -0.9348 C.ar      1 <0>        -0.0993
     13 C10        -0.0073   -2.6664   -0.8209 C.ar      1 <0>        -0.0379
     14 C11        -0.1410   -3.8215   -1.5677 C.ar      1 <0>        -0.1513
     15 C12         0.8756   -4.2149   -2.4214 C.ar      1 <0>         0.1039
     16 C13         2.0226   -3.4471   -2.5304 C.ar      1 <0>        -0.1587
     17 C14         2.1515   -2.2891   -1.7872 C.ar      1 <0>        -0.0809
     18 F1          0.7486   -5.3473   -3.1471 F         1 <0>        -0.1410
     19 C15         1.8089   -0.9736    1.2446 C.2       1 <0>         0.4999
     20 O3          1.1211   -0.7850    2.2255 O.2       1 <0>        -0.4984
     21 N1          3.0481   -1.4862    1.3790 N.am      1 <0>        -0.7018
     22 C16         3.5642   -1.8156    2.7099 C.3       1 <0>         0.0826
     23 C17         5.0057   -1.4132    3.0281 C.3       1 <0>        -0.1937
     24 C18         4.6548   -2.8849    2.8001 C.3       1 <0>        -0.1894
     25 H2         -0.0097    5.1358    0.8756 H         1 <0>         0.1179
     26 H3          2.1121    3.8918    0.8375 H         1 <0>         0.1157
     27 H4          2.1242    1.4701    0.4257 H         1 <0>         0.1127
     28 H5         -2.1372    3.9667    0.5034 H         1 <0>         0.1372
     29 H6         -0.7979   -2.3620   -0.1511 H         1 <0>         0.1537
     30 H7         -1.0363   -4.4194   -1.4821 H         1 <0>         0.1399
     31 H8          2.8164   -3.7532   -3.1957 H         1 <0>         0.1372
     32 H9          3.0461   -1.6900   -1.8721 H         1 <0>         0.1330
     33 H10         3.5983   -1.6371    0.5945 H         1 <0>         0.3992
     34 H11         2.8375   -1.7683    3.5209 H         1 <0>         0.1382
     35 H12         5.5700   -0.9035    2.2472 H         1 <0>         0.0964
     36 H13         5.2274   -1.1010    4.0486 H         1 <0>         0.1018
     37 H14         4.6458   -3.5408    3.6705 H         1 <0>         0.1027
     38 H15         4.9880   -3.3436    1.8691 H         1 <0>         0.0969
     39 O4         -3.6498    2.0157    0.0325 O.co2     1 <0>        -0.7624
@<TRIPOS>BOND
     1    1    6 ar
     2    1    2 ar
     3    1   25 1
     4    2    3 ar
     5    2   26 1
     6    3    4 ar
     7    3   27 1
     8    4    5 ar
     9    4    9 1
    10    5    6 ar
    11    5    7 1
    12    6   28 1
    13    7    8 2
    14    7   39 1
    15    9   10 1
    16   10   11 1
    17   10   12 1
    18   10   19 1
    19   12   17 ar
    20   12   13 ar
    21   13   14 ar
    22   13   29 1
    23   14   15 ar
    24   14   30 1
    25   15   16 ar
    26   15   18 1
    27   16   17 ar
    28   16   31 1
    29   17   32 1
    30   19   20 2
    31   19   21 am
    32   21   22 1
    33   21   33 1
    34   22   24 1
    35   22   23 1
    36   22   34 1
    37   23   24 1
    38   23   35 1
    39   23   36 1
    40   24   37 1
    41   24   38 1
@<TRIPOS>MOLECULE
ZINC37295808
   34    35     0     0     0
SMALL
USER_CHARGES

@<TRIPOS>ATOM
      1 C1         -1.9798    0.6276    0.5395 C.3       1 <0>        -0.1115
      2 C2         -0.9378   -0.4234    0.2556 C.ar      1 <0>        -0.0604
      3 C3         -1.0055   -1.1678   -0.9061 C.ar      1 <0>        -0.0963
      4 C4         -0.0506   -2.1326   -1.1676 C.ar      1 <0>        -0.1083
      5 C5          0.9765   -2.3556   -0.2668 C.ar      1 <0>        -0.0282
      6 C6          1.0492   -1.6139    0.8971 C.ar      1 <0>        -0.1091
      7 C7          0.0942   -0.6403    1.1588 C.ar      1 <0>         0.1626
      8 N1          0.1683    0.1173    2.3350 N.pl3     1 <0>        -0.2720
      9 C8          0.3798   -0.3921    3.5771 C.2       1 <0>        -0.0418
     10 C9          0.3852    0.6496    4.4402 C.2       1 <0>        -0.1529
     11 C10         0.1662    1.8021    3.6462 C.2       1 <0>         0.0088
     12 N2          0.0517    1.3953    2.3957 N.2       1 <0>        -0.2588
     13 C11         0.0868    3.1930    4.1250 C.2       1 <0>         0.5600
     14 O1          0.2152    3.4379    5.3166 O.co2     1 <0>        -0.6719
     15 O2         -0.1077    4.1031    3.3311 O.co2     1 <0>        -0.6748
     16 C12         0.5824    0.5954    5.9333 C.3       1 <0>        -0.0259
     17 C13         2.0275    0.9679    6.2707 C.3       1 <0>        -0.1079
     18 C14         2.2277    0.9128    7.7866 C.3       1 <0>         0.0796
     19 O3          3.5774    1.2607    8.1017 O.3       1 <0>        -0.5759
     20 Cl1         2.1736   -3.5681   -0.5990 Cl        1 <0>        -0.0662
     21 H1         -1.6161    1.5993    0.2054 H         1 <0>         0.0887
     22 H2         -2.8988    0.3811    0.0077 H         1 <0>         0.0657
     23 H3         -2.1781    0.6626    1.6107 H         1 <0>         0.0707
     24 H4         -1.8057   -0.9960   -1.6108 H         1 <0>         0.1412
     25 H5         -0.1063   -2.7137   -2.0763 H         1 <0>         0.1379
     26 H6          1.8504   -1.7881    1.6001 H         1 <0>         0.1406
     27 H7          0.5177   -1.4335    3.8281 H         1 <0>         0.1673
     28 H8         -0.0962    1.2991    6.4152 H         1 <0>         0.0888
     29 H9          0.3742   -0.4131    6.2908 H         1 <0>         0.0535
     30 H10         2.7062    0.2641    5.7888 H         1 <0>         0.0541
     31 H11         2.2357    1.9763    5.9132 H         1 <0>         0.0845
     32 H12         1.5491    1.6165    8.2685 H         1 <0>         0.0498
     33 H13         2.0195   -0.0956    8.1441 H         1 <0>         0.0367
     34 H14         3.7765    1.2467    9.0479 H         1 <0>         0.3714
@<TRIPOS>BOND
     1    1    2 1
     2    1   21 1
     3    1   22 1
     4    1   23 1
     5    2    7 ar
     6    2    3 ar
     7    3    4 ar
     8    3   24 1
     9    4    5 ar
    10    4   25 1
    11    5    6 ar
    12    5   20 1
    13    6    7 ar
    14    6   26 1
    15    7    8 1
    16    8   12 1
    17    8    9 1
    18    9   10 2
    19    9   27 1
    20   10   11 1
    21   10   16 1
    22   11   12 2
    23   11   13 1
    24   13   14 2
    25   13   15 1
    26   16   17 1
    27   16   28 1
    28   16   29 1
    29   17   18 1
    30   17   30 1
    31   17   31 1
    32   18   19 1
    33   18   32 1
    34   18   33 1
    35   19   34 1
@<TRIPOS>MOLECULE
ZINC47465715
   36    37     0     0     0
SMALL
USER_CHARGES

@<TRIPOS>ATOM
      1 C1          0.3790   -3.0727    2.0395 C.3       1 <0>        -0.1390
      2 C2          0.1753   -2.0634    0.9079 C.3       1 <0>        -0.1410
      3 C3          0.8878   -2.5454   -0.3295 C.2       1 <0>         0.5067
      4 O1          1.4985   -3.5931   -0.3083 O.2       1 <0>        -0.5131
      5 N1          0.8465   -1.8122   -1.4596 N.am      1 <0>        -0.6764
      6 C4          1.5865   -2.2094   -2.5787 C.ar      1 <0>         0.1739
      7 C5          2.1611   -1.2548   -3.4076 C.ar      1 <0>        -0.1697
      8 C6          2.8909   -1.6502   -4.5115 C.ar      1 <0>        -0.0050
      9 C7          3.0497   -2.9950   -4.7918 C.ar      1 <0>        -0.6252
     10 C8          2.4784   -3.9480   -3.9687 C.ar      1 <0>        -0.0050
     11 C9          1.7526   -3.5593   -2.8598 C.ar      1 <0>        -0.1451
     12 S1          3.9814   -3.4952   -6.2011 S.o2      1 <0>         2.6037
     13 O2          3.5242   -4.7947   -6.5499 O.2       1 <0>        -1.0292
     14 O3          3.9525   -2.4069   -7.1143 O.2       1 <0>        -1.0302
     15 N2          5.5552   -3.6623   -5.7135 N.2       1 <0>        -1.0711
     16 C10         6.5332   -4.0547   -6.6314 C.ar      1 <0>         0.2879
     17 C11         6.1881   -4.2994   -7.9542 C.ar      1 <0>        -0.2572
     18 C12         7.1571   -4.6866   -8.8591 C.ar      1 <0>        -0.0627
     19 C13         8.4701   -4.8313   -8.4495 C.ar      1 <0>        -0.2200
     20 C14         8.8180   -4.5887   -7.1335 C.ar      1 <0>        -0.0704
     21 C15         7.8545   -4.1954   -6.2239 C.ar      1 <0>        -0.0948
     22 Cl1         8.2929   -3.8844   -4.5732 Cl        1 <0>        -0.0923
     23 H1         -0.0253   -4.0399    1.7409 H         1 <0>         0.0629
     24 H2          1.4439   -3.1733    2.2494 H         1 <0>         0.0636
     25 H3         -0.1363   -2.7241    2.9345 H         1 <0>         0.0624
     26 H4         -0.8896   -1.9628    0.6981 H         1 <0>         0.0953
     27 H5          0.5797   -1.0962    1.2065 H         1 <0>         0.0961
     28 H6          0.3038   -1.0091   -1.4971 H         1 <0>         0.4106
     29 H7          2.0372   -0.2044   -3.1895 H         1 <0>         0.1286
     30 H8          3.3377   -0.9083   -5.1567 H         1 <0>         0.1406
     31 H9          2.6039   -4.9975   -4.1905 H         1 <0>         0.1398
     32 H10         1.3110   -4.3041   -2.2144 H         1 <0>         0.1414
     33 H11         5.1630   -4.1874   -8.2750 H         1 <0>         0.1039
     34 H12         6.8890   -4.8769   -9.8878 H         1 <0>         0.1069
     35 H13         9.2254   -5.1349   -9.1593 H         1 <0>         0.1094
     36 H14         9.8442   -4.7030   -6.8169 H         1 <0>         0.1137
@<TRIPOS>BOND
     1    1    2 1
     2    1   23 1
     3    1   24 1
     4    1   25 1
     5    2    3 1
     6    2   26 1
     7    2   27 1
     8    3    4 2
     9    3    5 am
    10    5    6 1
    11    5   28 1
    12    6   11 ar
    13    6    7 ar
    14    7    8 ar
    15    7   29 1
    16    8    9 ar
    17    8   30 1
    18    9   10 ar
    19    9   12 1
    20   10   11 ar
    21   10   31 1
    22   11   32 1
    23   12   13 2
    24   12   14 2
    25   12   15 1
    26   15   16 1
    27   16   21 ar
    28   16   17 ar
    29   17   18 ar
    30   17   33 1
    31   18   19 ar
    32   18   34 1
    33   19   20 ar
    34   19   35 1
    35   20   21 ar
    36   20   36 1
    37   21   22 1
@<TRIPOS>MOLECULE
ZINC52344434
   47    47     0     0     0
SMALL
USER_CHARGES

@<TRIPOS>ATOM
      1 C1         -0.0187    1.5258    0.0104 C.3       1 <0>        -0.1520
      2 C2          0.0021   -0.0041    0.0020 C.3       1 <0>        -0.1324
      3 C3          0.7182   -0.4975   -1.2568 C.3       1 <0>         0.1676
      4 H1          0.2444   -0.0644   -2.1377 H         1 <0>         0.0872
      5 C4          0.6303   -2.0233   -1.3286 C.3       1 <0>        -0.0928
      6 C5          1.2954   -2.6312   -0.0921 C.3       1 <0>        -0.1165
      7 C6          1.2075   -4.1570   -0.1639 C.3       1 <0>        -0.1184
      8 C7          1.9237   -4.6504   -1.4227 C.3       1 <0>        -0.1202
      9 C8          1.2586   -4.0425   -2.6592 C.3       1 <0>        -0.1189
     10 C9          1.3465   -2.5167   -2.5874 C.3       1 <0>        -0.1132
     11 N1          2.1249   -0.0911   -1.2094 N.am      1 <0>        -0.7446
     12 C10         2.4874    1.1337   -1.6396 C.2       1 <0>         0.7019
     13 O1          1.6469    1.9012   -2.0672 O.2       1 <0>        -0.5761
     14 N2          3.7815    1.5076   -1.5960 N.am      1 <0>        -0.6307
     15 C11         4.7942    0.5827   -1.0809 C.3       1 <0>         0.0819
     16 C12         4.1755    2.8388   -2.0637 C.3       1 <0>         0.1590
     17 C13         4.1161    3.8274   -0.8975 C.3       1 <0>        -0.1714
     18 H2          4.7285    3.4567   -0.0755 H         1 <0>         0.0564
     19 C14         2.6676    3.9757   -0.4279 C.3       1 <0>        -0.1109
     20 C15         4.6379    5.1675   -1.3479 C.2       1 <0>         0.5004
     21 O2          5.0217    5.3180   -2.4953 O.co2     1 <0>        -0.6996
     22 O3          4.6763    6.1012   -0.5648 O.co2     1 <0>        -0.7004
     23 H3          1.0039    1.9031    0.0027 H         1 <0>         0.0712
     24 H4         -0.5459    1.8868   -0.8726 H         1 <0>         0.0584
     25 H5         -0.5289    1.8773    0.9072 H         1 <0>         0.0386
     26 H6          0.5293   -0.3651    0.8851 H         1 <0>         0.0601
     27 H7         -1.0205   -0.3814    0.0098 H         1 <0>         0.0628
     28 H8         -0.4163   -2.3257   -1.3639 H         1 <0>         0.0821
     29 H9          2.3420   -2.3288   -0.0568 H         1 <0>         0.0588
     30 H10         0.7852   -2.2797    0.8047 H         1 <0>         0.0679
     31 H11         1.6813   -4.5901    0.7171 H         1 <0>         0.0597
     32 H12         0.1609   -4.4594   -0.1992 H         1 <0>         0.0609
     33 H13         2.9703   -4.3480   -1.3874 H         1 <0>         0.0606
     34 H14         1.8611   -5.7374   -1.4738 H         1 <0>         0.0580
     35 H15         1.7688   -4.3940   -3.5560 H         1 <0>         0.0596
     36 H16         0.2120   -4.3449   -2.6945 H         1 <0>         0.0600
     37 H17         0.8726   -2.0836   -3.4683 H         1 <0>         0.0627
     38 H18         2.3931   -2.2143   -2.5521 H         1 <0>         0.0636
     39 H19         2.7954   -0.7034   -0.8683 H         1 <0>         0.3897
     40 H20         5.1854   -0.0207   -1.9000 H         1 <0>         0.0497
     41 H21         5.6069    1.1499   -0.6271 H         1 <0>         0.0733
     42 H22         4.3438   -0.0691   -0.3323 H         1 <0>         0.0563
     43 H23         5.1918    2.8001   -2.4558 H         1 <0>         0.0741
     44 H24         3.4947    3.1637   -2.8505 H         1 <0>         0.0824
     45 H25         2.6253    4.6799    0.4030 H         1 <0>         0.0426
     46 H26         2.0553    4.3464   -1.2499 H         1 <0>         0.0488
     47 H27         2.2902    3.0063   -0.1021 H         1 <0>         0.0417
@<TRIPOS>BOND
     1    1    2 1
     2    1   23 1
     3    1   24 1
     4    1   25 1
     5    2    3 1
     6    2   26 1
     7    2   27 1
     8    3    4 1
     9    3    5 1
    10    3   11 1
    11    5   10 1
    12    5    6 1
    13    5   28 1
    14    6    7 1
    15    6   29 1
    16    6   30 1
    17    7    8 1
    18    7   31 1
    19    7   32 1
    20    8    9 1
    21    8   33 1
    22    8   34 1
    23    9   10 1
    24    9   35 1
    25    9   36 1
    26   10   37 1
    27   10   38 1
    28   11   12 am
    29   11   39 1
    30   12   13 2
    31   12   14 am
    32   14   15 1
    33   14   16 1
    34   15   40 1
    35   15   41 1
    36   15   42 1
    37   16   17 1
    38   16   43 1
    39   16   44 1
    40   17   18 1
    41   17   19 1
    42   17   20 1
    43   19   45 1
    44   19   46 1
    45   19   47 1
    46   20   21 2
    47   20   22 1
@<TRIPOS>MOLECULE
ZINC65355391
   41    42     0     0     0
SMALL
USER_CHARGES

@<TRIPOS>ATOM
      1 C1         -0.4223    2.1621   -1.6160 C.3       1 <0>        -0.1874
      2 C2         -0.3556    0.8234   -0.8783 C.3       1 <0>         0.1344
      3 C3          0.1974    1.0447    0.5310 C.3       1 <0>        -0.1867
      4 C4         -1.7591    0.2212   -0.7866 C.3       1 <0>        -0.1400
      5 O1          0.5009   -0.0712   -1.5911 O.3       1 <0>        -0.3567
      6 C5          1.7804    0.3126   -1.7606 C.2       1 <0>         0.6505
      7 O2          2.1593    1.3779   -1.3156 O.2       1 <0>        -0.5474
      8 N1          2.6408   -0.4849   -2.4240 N.am      1 <0>        -0.6489
      9 C6          3.9429   -0.0453   -2.6846 C.ar      1 <0>         0.1396
     10 C7          4.6057    0.7488   -1.7566 C.ar      1 <0>        -0.1137
     11 C8          5.8892    1.1833   -2.0112 C.ar      1 <0>        -0.1001
     12 C9          6.5219    0.8255   -3.2006 C.ar      1 <0>        -0.0316
     13 C10         5.8551    0.0289   -4.1299 C.ar      1 <0>        -0.0947
     14 C11         4.5737   -0.4080   -3.8684 C.ar      1 <0>        -0.1319
     15 C12         7.9029    1.2922   -3.4771 C.ar      1 <0>        -0.0893
     16 C13         8.5717    2.0855   -2.5435 C.ar      1 <0>        -0.0853
     17 C14         9.8559    2.5227   -2.7958 C.ar      1 <0>        -0.1762
     18 C15        10.4907    2.1782   -3.9762 C.ar      1 <0>         0.1373
     19 C16         9.8299    1.3828   -4.9205 C.ar      1 <0>        -0.1712
     20 C17         8.5327    0.9350   -4.6631 C.ar      1 <0>        -0.0418
     21 C18        10.5032    1.0153   -6.1789 C.2       1 <0>         0.5205
     22 O3          9.9240    0.3205   -7.0021 O.co2     1 <0>        -0.6838
     23 O4         11.6413    1.4051   -6.4001 O.co2     1 <0>        -0.6723
     24 F1         11.7479    2.6097   -4.2178 F         1 <0>        -0.1199
     25 H1          0.5776    2.5912   -1.6813 H         1 <0>         0.0893
     26 H2         -0.8163    2.0045   -2.6200 H         1 <0>         0.0598
     27 H3         -1.0757    2.8445   -1.0723 H         1 <0>         0.0702
     28 H4         -0.4560    1.7271    1.0747 H         1 <0>         0.0704
     29 H5          0.2449    0.0910    1.0566 H         1 <0>         0.0595
     30 H6          1.1973    1.4738    0.4657 H         1 <0>         0.0886
     31 H7         -2.1531    0.0635   -1.7906 H         1 <0>         0.0668
     32 H8         -1.7117   -0.7325   -0.2610 H         1 <0>         0.0665
     33 H9         -2.4125    0.9035   -0.2429 H         1 <0>         0.0806
     34 H10         2.3572   -1.3638   -2.7208 H         1 <0>         0.4152
     35 H11         4.1150    1.0260   -0.8353 H         1 <0>         0.1393
     36 H12         6.4039    1.8007   -1.2899 H         1 <0>         0.1291
     37 H13         6.3432   -0.2492   -5.0523 H         1 <0>         0.1377
     38 H14         4.0584   -1.0291   -4.5861 H         1 <0>         0.1282
     39 H15         8.0821    2.3584   -1.6203 H         1 <0>         0.1270
     40 H16        10.3675    3.1365   -2.0692 H         1 <0>         0.1299
     41 H17         8.0190    0.3176   -5.3851 H         1 <0>         0.1388
@<TRIPOS>BOND
     1    1    2 1
     2    1   25 1
     3    1   26 1
     4    1   27 1
     5    2    3 1
     6    2    4 1
     7    2    5 1
     8    3   28 1
     9    3   29 1
    10    3   30 1
    11    4   31 1
    12    4   32 1
    13    4   33 1
    14    5    6 1
    15    6    7 2
    16    6    8 am
    17    8    9 1
    18    8   34 1
    19    9   14 ar
    20    9   10 ar
    21   10   11 ar
    22   10   35 1
    23   11   12 ar
    24   11   36 1
    25   12   13 ar
    26   12   15 1
    27   13   14 ar
    28   13   37 1
    29   14   38 1
    30   15   20 ar
    31   15   16 ar
    32   16   17 ar
    33   16   39 1
    34   17   18 ar
    35   17   40 1
    36   18   19 ar
    37   18   24 1
    38   19   20 ar
    39   19   21 1
    40   20   41 1
    41   21   22 2
    42   21   23 1
@<TRIPOS>MOLECULE
ZINC37102043
   31    33     0     0     0
SMALL
USER_CHARGES

@<TRIPOS>ATOM
      1 C1         -0.0167    1.3780    0.0096 C.ar      1 <0>        -0.1188
      2 C2          1.1709    2.0861    0.0021 C.ar      1 <0>        -0.1037
      3 C3          2.3773    1.4123   -0.0135 C.ar      1 <0>        -0.1147
      4 C4          2.3967    0.0287   -0.0210 C.ar      1 <0>        -0.0213
      5 C5          1.2083   -0.6792   -0.0130 C.ar      1 <0>        -0.0948
      6 C6          0.0021   -0.0041    0.0020 C.ar      1 <0>        -0.0889
      7 C7          1.2286   -2.1860   -0.0218 C.3       1 <0>         0.1696
      8 N1          1.4887   -2.6787    1.3331 N.pl3     1 <0>        -0.7458
      9 C8          1.5540   -4.0529    1.5761 C.ar      1 <0>         0.2108
     10 C9          1.3779   -4.9528    0.5313 C.ar      1 <0>        -0.2110
     11 C10         1.4422   -6.3128    0.7671 C.ar      1 <0>        -0.0793
     12 C11         1.6817   -6.7865    2.0416 C.ar      1 <0>        -0.1563
     13 C12         1.8592   -5.8915    3.0966 C.ar      1 <0>         0.0894
     14 C13         1.8002   -4.5195    2.8584 C.ar      1 <0>        -0.1726
     15 C14         2.1157   -6.3973    4.4641 C.2       1 <0>         0.0763
     16 N2          2.2981   -5.6657    5.5645 N.2       1 <0>        -0.3681
     17 N3          2.4913   -6.4812    6.5442 N.2       1 <0>        -0.1940
     18 N4          2.4381   -7.6904    6.1069 N.2       1 <0>        -0.1935
     19 N5          2.2040   -7.6744    4.8392 N.2       1 <0>        -0.3669
     20 Cl1         3.9119   -0.8184   -0.0411 Cl        1 <0>        -0.0557
     21 H1         -0.9592    1.9049    0.0259 H         1 <0>         0.1297
     22 H2          1.1556    3.1659    0.0080 H         1 <0>         0.1314
     23 H3          3.3048    1.9655   -0.0201 H         1 <0>         0.1336
     24 H4         -0.9258   -0.5566    0.0079 H         1 <0>         0.1341
     25 H5          0.2643   -2.5603   -0.3656 H         1 <0>         0.0675
     26 H6          2.0139   -2.5349   -0.6923 H         1 <0>         0.0704
     27 H7          1.6155   -2.0509    2.0615 H         1 <0>         0.3980
     28 H8          1.1899   -4.5879   -0.4677 H         1 <0>         0.1113
     29 H9          1.3043   -7.0076   -0.0482 H         1 <0>         0.1156
     30 H10         1.7312   -7.8502    2.2218 H         1 <0>         0.1234
     31 H11         1.9418   -3.8220    3.6708 H         1 <0>         0.1242
@<TRIPOS>BOND
     1    1    6 ar
     2    1    2 ar
     3    1   21 1
     4    2    3 ar
     5    2   22 1
     6    3    4 ar
     7    3   23 1
     8    4    5 ar
     9    4   20 1
    10    5    6 ar
    11    5    7 1
    12    6   24 1
    13    7    8 1
    14    7   25 1
    15    7   26 1
    16    8    9 1
    17    8   27 1
    18    9   14 ar
    19    9   10 ar
    20   10   11 ar
    21   10   28 1
    22   11   12 ar
    23   11   29 1
    24   12   13 ar
    25   12   30 1
    26   13   14 ar
    27   13   15 1
    28   14   31 1
    29   15   19 2
    30   15   16 1
    31   16   17 1
    32   17   18 2
    33   18   19 1
@<TRIPOS>MOLECULE
ZINC40581224
   44    44     0     0     0
SMALL
USER_CHARGES

@<TRIPOS>ATOM
      1 C1         -0.0187    1.5258    0.0104 C.3       1 <0>        -0.1502
      2 C2          0.0021   -0.0041    0.0020 C.3       1 <0>        -0.1217
      3 C3         -1.4333   -0.5336    0.0129 C.3       1 <0>        -0.1281
      4 C4         -1.4126   -2.0635    0.0045 C.3       1 <0>         0.1501
      5 H1         -0.8263   -2.4142   -0.8449 H         1 <0>         0.1029
      6 C5         -2.8437   -2.5923   -0.1104 C.3       1 <0>        -0.1604
      7 N1         -0.8103   -2.5505    1.2480 N.am      1 <0>        -0.6290
      8 C6         -1.4174   -2.2119    2.5376 C.3       1 <0>         0.0786
      9 C7          0.3022   -3.3102    1.2056 C.2       1 <0>         0.7049
     10 O1          0.8060   -3.5912    0.1353 O.2       1 <0>        -0.5871
     11 N2          0.8562   -3.7582    2.3496 N.am      1 <0>        -0.7397
     12 C8          2.0655   -4.5839    2.3035 C.3       1 <0>         0.1620
     13 C9          1.6755   -6.0481    2.0910 C.3       1 <0>        -0.1244
     14 C10         2.9384   -6.9104    2.0429 C.3       1 <0>        -0.0886
     15 C11         3.7011   -6.7720    3.3621 C.3       1 <0>        -0.1551
     16 C12         4.0910   -5.3078    3.5746 C.3       1 <0>        -0.0876
     17 C13         2.8281   -4.4455    3.6227 C.3       1 <0>        -0.1224
     18 C14         4.9450   -7.6213    3.3147 C.2       1 <0>         0.4943
     19 O2          5.9353   -7.2877    3.9428 O.co2     1 <0>        -0.7018
     20 O3          4.9611   -8.6422    2.6482 O.co2     1 <0>        -0.7002
     21 H2          1.0039    1.9031    0.0027 H         1 <0>         0.0525
     22 H3         -0.5459    1.8868   -0.8726 H         1 <0>         0.0518
     23 H4         -0.5289    1.8773    0.9072 H         1 <0>         0.0504
     24 H5          0.5123   -0.3556   -0.8948 H         1 <0>         0.0629
     25 H6          0.5293   -0.3651    0.8851 H         1 <0>         0.0605
     26 H7         -1.9435   -0.1821    0.9097 H         1 <0>         0.0634
     27 H8         -1.9605   -0.1726   -0.8702 H         1 <0>         0.0721
     28 H9         -3.4299   -2.2416    0.7389 H         1 <0>         0.0554
     29 H10        -3.2917   -2.2299   -1.0357 H         1 <0>         0.0657
     30 H11        -2.8289   -3.6822   -0.1164 H         1 <0>         0.0589
     31 H12        -2.1480   -2.9747    2.8067 H         1 <0>         0.0528
     32 H13        -0.6425   -2.1650    3.3027 H         1 <0>         0.0650
     33 H14        -1.9133   -1.2441    2.4628 H         1 <0>         0.0726
     34 H15         0.4542   -3.5340    3.2035 H         1 <0>         0.3913
     35 H16         2.6997   -4.2538    1.4808 H         1 <0>         0.0862
     36 H17         1.0413   -6.3782    2.9138 H         1 <0>         0.0547
     37 H18         1.1322   -6.1467    1.1513 H         1 <0>         0.0587
     38 H19         2.6606   -7.9535    1.8916 H         1 <0>         0.0671
     39 H20         3.5727   -6.5802    1.2202 H         1 <0>         0.0549
     40 H21         3.0668   -7.1021    4.1848 H         1 <0>         0.0607
     41 H22         4.6343   -5.2092    4.5144 H         1 <0>         0.0702
     42 H23         4.7252   -4.9777    2.7519 H         1 <0>         0.0561
     43 H24         3.1059   -3.4024    3.7740 H         1 <0>         0.0590
     44 H25         2.1938   -4.7757    4.4454 H         1 <0>         0.0604
@<TRIPOS>BOND
     1    1    2 1
     2    1   21 1
     3    1   22 1
     4    1   23 1
     5    2    3 1
     6    2   24 1
     7    2   25 1
     8    3    4 1
     9    3   26 1
    10    3   27 1
    11    4    5 1
    12    4    6 1
    13    4    7 1
    14    6   28 1
    15    6   29 1
    16    6   30 1
    17    7    8 1
    18    7    9 am
    19    8   31 1
    20    8   32 1
    21    8   33 1
    22    9   10 2
    23    9   11 am
    24   11   12 1
    25   11   34 1
    26   12   17 1
    27   12   13 1
    28   12   35 1
    29   13   14 1
    30   13   36 1
    31   13   37 1
    32   14   15 1
    33   14   38 1
    34   14   39 1
    35   15   16 1
    36   15   18 1
    37   15   40 1
    38   16   17 1
    39   16   41 1
    40   16   42 1
    41   17   43 1
    42   17   44 1
    43   18   19 2
    44   18   20 1
@<TRIPOS>MOLECULE
ZINC50196831
   44    44     0     0     0
SMALL
USER_CHARGES

@<TRIPOS>ATOM
      1 C1         -0.0331    1.5290    0.0145 C.3       1 <0>        -0.1565
      2 C2         -0.0058   -0.0008    0.0036 C.3       1 <0>        -0.1149
      3 C3          0.7385   -0.5064    1.2411 C.3       1 <0>        -0.1044
      4 H1          1.7296   -0.0545    1.2794 H         1 <0>         0.0743
      5 C4          0.8737   -2.0291    1.1691 C.3       1 <0>        -0.1130
      6 C5          1.6467   -2.5325    2.3902 C.3       1 <0>        -0.1353
      7 C6          0.8721   -2.1755    3.6628 C.3       1 <0>         0.1101
      8 N1          0.6114   -0.7296    3.6677 N.am      1 <0>        -0.6339
      9 C7         -0.0460   -0.1257    2.5006 C.3       1 <0>         0.1348
     10 C8          0.9685    0.0290    4.7229 C.2       1 <0>         0.7093
     11 O1          0.8346    1.2366    4.6766 O.2       1 <0>        -0.5880
     12 N2          1.4740   -0.5510    5.8295 N.am      1 <0>        -0.7348
     13 C9          1.7613    0.2597    7.0154 C.3       1 <0>         0.1839
     14 C10         2.7886    1.3366    6.6603 C.3       1 <0>        -0.1613
     15 C11         0.4727    0.9251    7.5027 C.3       1 <0>        -0.1590
     16 C12         2.3228   -0.6358    8.1216 C.3       1 <0>        -0.0912
     17 C13         2.6228    0.2110    9.3601 C.3       1 <0>        -0.1796
     18 C14         3.1759   -0.6710   10.4497 C.2       1 <0>         0.4892
     19 O2          3.3169   -1.8661   10.2539 O.co2     1 <0>        -0.7007
     20 O3          3.4822   -0.1895   11.5271 O.co2     1 <0>        -0.7067
     21 H2          0.9879    1.9106    0.0056 H         1 <0>         0.0542
     22 H3         -0.5633    1.8892   -0.8671 H         1 <0>         0.0525
     23 H4         -0.5432    1.8769    0.9127 H         1 <0>         0.0587
     24 H5         -1.0268   -0.3824    0.0125 H         1 <0>         0.0624
     25 H6          0.5044   -0.3487   -0.8946 H         1 <0>         0.0630
     26 H7         -0.1179   -2.4815    1.1552 H         1 <0>         0.0634
     27 H8          1.4105   -2.3035    0.2610 H         1 <0>         0.0636
     28 H9          1.7629   -3.6144    2.3266 H         1 <0>         0.0749
     29 H10         2.6293   -2.0616    2.4183 H         1 <0>         0.0672
     30 H11        -0.0735   -2.7174    3.6791 H         1 <0>         0.0674
     31 H12         1.4641   -2.4431    4.5380 H         1 <0>         0.0791
     32 H13        -0.0596    0.9589    2.6088 H         1 <0>         0.0950
     33 H14        -1.0667   -0.5000    2.4224 H         1 <0>         0.0597
     34 H15         1.6476   -1.5053    5.8407 H         1 <0>         0.3929
     35 H16         2.3886    1.9745    5.8722 H         1 <0>         0.0751
     36 H17         3.0023    1.9398    7.5427 H         1 <0>         0.0652
     37 H18         3.7067    0.8625    6.3132 H         1 <0>         0.0478
     38 H19        -0.2592    0.1580    7.7556 H         1 <0>         0.0491
     39 H20         0.6864    1.5284    8.3850 H         1 <0>         0.0675
     40 H21         0.0727    1.5631    6.7146 H         1 <0>         0.0685
     41 H22         1.5910   -1.4029    8.3746 H         1 <0>         0.0635
     42 H23         3.2409   -1.1098    7.7744 H         1 <0>         0.0635
     43 H24         3.3547    0.9781    9.1072 H         1 <0>         0.0619
     44 H25         1.7048    0.6850    9.7073 H         1 <0>         0.0617
@<TRIPOS>BOND
     1    1    2 1
     2    1   21 1
     3    1   22 1
     4    1   23 1
     5    2    3 1
     6    2   24 1
     7    2   25 1
     8    3    4 1
     9    3    9 1
    10    3    5 1
    11    5    6 1
    12    5   26 1
    13    5   27 1
    14    6    7 1
    15    6   28 1
    16    6   29 1
    17    7    8 1
    18    7   30 1
    19    7   31 1
    20    8    9 1
    21    8   10 am
    22    9   32 1
    23    9   33 1
    24   10   11 2
    25   10   12 am
    26   12   13 1
    27   12   34 1
    28   13   14 1
    29   13   15 1
    30   13   16 1
    31   14   35 1
    32   14   36 1
    33   14   37 1
    34   15   38 1
    35   15   39 1
    36   15   40 1
    37   16   17 1
    38   16   41 1
    39   16   42 1
    40   17   18 1
    41   17   43 1
    42   17   44 1
    43   18   19 2
    44   18   20 1
@<TRIPOS>MOLECULE
ZINC58480365
   33    35     0     0     0
SMALL
USER_CHARGES

@<TRIPOS>ATOM
      1 C1         -0.0187    1.5258    0.0104 C.3       1 <0>        -0.1297
      2 C2          0.0021   -0.0041    0.0020 C.3       1 <0>        -0.1195
      3 H1          0.5293   -0.3651    0.8851 H         1 <0>         0.1025
      4 C3          0.7074   -0.4901   -1.2379 C.2       1 <0>         0.5152
      5 O1          1.5300   -1.3866   -1.1594 O.co2     1 <0>        -0.6690
      6 O2          0.4555    0.0132   -2.3194 O.co2     1 <0>        -0.6663
      7 S1         -1.6997   -0.6320    0.0149 S.3       1 <0>         0.0263
      8 C4         -2.3349   -0.1100    1.5733 C.2       1 <0>         0.4081
      9 N1         -1.5621    0.5799    2.3856 N.2       1 <0>        -0.5837
     10 C5         -1.9808    1.0065    3.5806 C.2       1 <0>         0.5465
     11 O3         -1.2322    1.6443    4.3044 O.2       1 <0>        -0.4887
     12 C6         -3.3617    0.6988    4.0187 C.2       1 <0>        -0.2474
     13 C7         -4.0408    1.0505    5.2607 C.2       1 <0>        -0.0030
     14 C8         -5.3236    0.6520    5.4366 C.2       1 <0>        -0.1908
     15 S2         -5.6888   -0.2249    3.9278 S.3       1 <0>         0.1188
     16 C9         -4.1270   -0.0347    3.1113 C.2       1 <0>         0.0981
     17 N2         -3.6178   -0.4242    1.9099 N.pl3     1 <0>        -0.5682
     18 C10        -3.3408    1.8286    6.3104 C.ar      1 <0>        -0.0418
     19 C11        -2.0751    1.4372    6.7446 C.ar      1 <0>        -0.0530
     20 C12        -1.4282    2.1654    7.7221 C.ar      1 <0>        -0.1231
     21 C13        -2.0332    3.2818    8.2711 C.ar      1 <0>        -0.1143
     22 C14        -3.2892    3.6747    7.8446 C.ar      1 <0>        -0.1310
     23 C15        -3.9431    2.9579    6.8633 C.ar      1 <0>        -0.1033
     24 H2          1.0039    1.9031    0.0027 H         1 <0>         0.0615
     25 H3         -0.5459    1.8868   -0.8726 H         1 <0>         0.0648
     26 H4         -0.5289    1.8773    0.9072 H         1 <0>         0.0651
     27 H5         -5.9688    0.8235    6.2856 H         1 <0>         0.1977
     28 H6         -1.6019    0.5656    6.3170 H         1 <0>         0.1195
     29 H7         -0.4478    1.8630    8.0595 H         1 <0>         0.1212
     30 H8         -1.5232    3.8486    9.0359 H         1 <0>         0.1190
     31 H9         -3.7568    4.5469    8.2770 H         1 <0>         0.1205
     32 H10        -4.9214    3.2686    6.5273 H         1 <0>         0.1202
     33 H11        -4.1691   -0.9301    1.2926 H         1 <0>         0.4278
@<TRIPOS>BOND
     1    1    2 1
     2    1   24 1
     3    1   25 1
     4    1   26 1
     5    2    3 1
     6    2    4 1
     7    2    7 1
     8    4    5 2
     9    4    6 1
    10    7    8 1
    11    8   17 1
    12    8    9 2
    13    9   10 1
    14   10   11 2
    15   10   12 1
    16   12   16 2
    17   12   13 1
    18   13   14 2
    19   13   18 1
    20   14   15 1
    21   14   27 1
    22   15   16 1
    23   16   17 1
    24   17   33 1
    25   18   23 ar
    26   18   19 ar
    27   19   20 ar
    28   19   28 1
    29   20   21 ar
    30   20   29 1
    31   21   22 ar
    32   21   30 1
    33   22   23 ar
    34   22   31 1
    35   23   32 1
@<TRIPOS>MOLECULE
ZINC62846690
   47    47     0     0     0
SMALL
USER_CHARGES

@<TRIPOS>ATOM
      1 C1          0.7293    1.2723   -0.1332 C.3       1 <0>        -0.1601
      2 C2          0.7041   -0.2562   -0.0713 C.3       1 <0>        -0.0873
      3 C3         -0.7380   -0.7485   -0.2092 C.3       1 <0>        -0.1244
      4 C4         -1.5834   -0.1762    0.9309 C.3       1 <0>        -0.1070
      5 C5         -0.9885   -0.6155    2.2726 C.3       1 <0>         0.1307
      6 N1         -0.8745   -2.0803    2.2824 N.am      1 <0>        -0.6197
      7 C6         -0.1587   -2.7406    1.1822 C.3       1 <0>         0.1134
      8 C7         -0.7629   -2.2775   -0.1472 C.3       1 <0>        -0.1064
      9 C8         -1.4158   -2.8045    3.2819 C.2       1 <0>         0.7090
     10 O1         -1.9251   -2.2432    4.2325 O.2       1 <0>        -0.5992
     11 N2         -1.3925   -4.1510    3.2275 N.am      1 <0>        -0.7437
     12 C9         -2.0769   -4.9376    4.2567 C.3       1 <0>         0.1567
     13 H1         -1.9981   -4.4270    5.2165 H         1 <0>         0.0903
     14 C10        -3.5520   -5.0942    3.8820 C.3       1 <0>        -0.1650
     15 C11        -1.4272   -6.3190    4.3589 C.3       1 <0>        -0.1221
     16 C12         0.0275   -6.1664    4.8078 C.3       1 <0>        -0.0976
     17 C13         0.0659   -5.6185    6.2358 C.3       1 <0>        -0.1493
     18 C14         0.7198   -7.5302    4.7661 C.3       1 <0>        -0.1469
     19 C15        -1.3007   -0.2904   -1.5300 C.2       1 <0>         0.5042
     20 O2         -0.6122    0.3687   -2.2903 O.co2     1 <0>        -0.6893
     21 O3         -2.4445   -0.5788   -1.8383 O.co2     1 <0>        -0.6982
     22 H2          1.7566    1.6230   -0.0349 H         1 <0>         0.0303
     23 H3          0.3219    1.6040   -1.0882 H         1 <0>         0.0951
     24 H4          0.1272    1.6788    0.6795 H         1 <0>         0.0369
     25 H5          1.3061   -0.6627   -0.8839 H         1 <0>         0.0537
     26 H6          1.1114   -0.5879    0.8838 H         1 <0>         0.0382
     27 H7         -1.5843    0.9122    0.8723 H         1 <0>         0.0690
     28 H8         -2.6052   -0.5464    0.8474 H         1 <0>         0.0650
     29 H9         -0.0010   -0.1713    2.3974 H         1 <0>         0.0631
     30 H10        -1.6412   -0.2944    3.0843 H         1 <0>         0.0843
     31 H11         0.8965   -2.4696    1.2181 H         1 <0>         0.0684
     32 H12        -0.2639   -3.8215    1.2745 H         1 <0>         0.0657
     33 H13        -1.7924   -2.6278   -0.2206 H         1 <0>         0.0678
     34 H14        -0.1798   -2.6846   -0.9733 H         1 <0>         0.0649
     35 H15        -0.9226   -4.5993    2.5070 H         1 <0>         0.3934
     36 H16        -3.6308   -5.6047    2.9222 H         1 <0>         0.0551
     37 H17        -4.0612   -5.6794    4.6477 H         1 <0>         0.0612
     38 H18        -4.0149   -4.1101    3.8092 H         1 <0>         0.0614
     39 H19        -1.9702   -6.9230    5.0858 H         1 <0>         0.0771
     40 H20        -1.4576   -6.8078    3.3851 H         1 <0>         0.0670
     41 H21         0.5434   -5.4765    4.1399 H         1 <0>         0.0714
     42 H22        -0.4500   -6.3083    6.9036 H         1 <0>         0.0525
     43 H23         1.1022   -5.5098    6.5555 H         1 <0>         0.0513
     44 H24        -0.4273   -4.6469    6.2655 H         1 <0>         0.0598
     45 H25         1.7286   -7.4380    5.1683 H         1 <0>         0.0531
     46 H26         0.1536   -8.2435    5.3650 H         1 <0>         0.0530
     47 H27         0.7703   -7.8807    3.7352 H         1 <0>         0.0532
@<TRIPOS>BOND
     1    1    2 1
     2    1   22 1
     3    1   23 1
     4    1   24 1
     5    2    3 1
     6    2   25 1
     7    2   26 1
     8    3    8 1
     9    3    4 1
    10    3   19 1
    11    4    5 1
    12    4   27 1
    13    4   28 1
    14    5    6 1
    15    5   29 1
    16    5   30 1
    17    6    7 1
    18    6    9 am
    19    7    8 1
    20    7   31 1
    21    7   32 1
    22    8   33 1
    23    8   34 1
    24    9   10 2
    25    9   11 am
    26   11   12 1
    27   11   35 1
    28   12   13 1
    29   12   14 1
    30   12   15 1
    31   14   36 1
    32   14   37 1
    33   14   38 1
    34   15   16 1
    35   15   39 1
    36   15   40 1
    37   16   17 1
    38   16   18 1
    39   16   41 1
    40   17   42 1
    41   17   43 1
    42   17   44 1
    43   18   45 1
    44   18   46 1
    45   18   47 1
    46   19   20 2
    47   19   21 1
@<TRIPOS>MOLECULE
ZINC35734149
   36    37     0     0     0
SMALL
USER_CHARGES

@<TRIPOS>ATOM
      1 C1          1.5645   -0.9739   -1.9547 C.3       1 <0>        -0.1607
      2 C2          2.0362    0.2192   -1.1211 C.3       1 <0>         0.1911
      3 H1          1.1741    0.8112   -0.8137 H         1 <0>         0.0867
      4 C3          2.9778    1.0865   -1.9591 C.3       1 <0>        -0.1643
      5 C4          2.6776    2.5848   -2.0356 C.3       1 <0>        -0.1767
      6 C5          2.4208    1.6901   -3.2500 C.3       1 <0>        -0.1694
      7 N1          2.7450   -0.2644    0.0663 N.am      1 <0>        -0.7426
      8 C6          2.0538   -0.5998    1.1737 C.2       1 <0>         0.7105
      9 O1          0.8530   -0.4144    1.2203 O.2       1 <0>        -0.6055
     10 N2          2.6936   -1.1407    2.2294 N.am      1 <0>        -0.6243
     11 C7          1.9403   -1.6181    3.3970 C.3       1 <0>         0.1322
     12 C8          2.3362   -3.0710    3.6788 C.3       1 <0>        -0.1350
     13 C9          3.8563   -3.1607    3.8319 C.3       1 <0>        -0.0947
     14 C10         4.5287   -2.7208    2.5294 C.3       1 <0>        -0.1670
     15 H2          4.1879   -3.3557    1.7115 H         1 <0>         0.0632
     16 C11         4.1572   -1.2696    2.2320 C.3       1 <0>         0.1352
     17 C12         6.0243   -2.8411    2.6699 C.2       1 <0>         0.4989
     18 O2          6.6925   -3.2578    1.7392 O.co2     1 <0>        -0.6985
     19 O3          6.5661   -2.5216    3.7144 O.co2     1 <0>        -0.6921
     20 H3          0.8937   -1.5917   -1.3577 H         1 <0>         0.0598
     21 H4          1.0371   -0.6140   -2.8382 H         1 <0>         0.0624
     22 H5          2.4265   -1.5659   -2.2621 H         1 <0>         0.0581
     23 H6          4.0244    0.7820   -1.9565 H         1 <0>         0.1096
     24 H7          1.8093    2.9527   -1.4890 H         1 <0>         0.0952
     25 H8          3.5268    3.2664   -2.0833 H         1 <0>         0.0943
     26 H9          3.1012    1.7832   -4.0965 H         1 <0>         0.0958
     27 H10         1.3836    1.4695   -3.5022 H         1 <0>         0.0961
     28 H11         3.7117   -0.3433    0.0555 H         1 <0>         0.3990
     29 H12         2.1779   -1.0001    4.2628 H         1 <0>         0.0623
     30 H13         0.8716   -1.5643    3.1893 H         1 <0>         0.0865
     31 H14         1.8574   -3.4066    4.5987 H         1 <0>         0.0686
     32 H15         2.0160   -3.7025    2.8501 H         1 <0>         0.0598
     33 H16         4.1784   -2.5099    4.6447 H         1 <0>         0.0687
     34 H17         4.1384   -4.1893    4.0568 H         1 <0>         0.0562
     35 H18         4.5507   -0.9859    1.2559 H         1 <0>         0.0693
     36 H19         4.5796   -0.6225    3.0007 H         1 <0>         0.0710
@<TRIPOS>BOND
     1    1    2 1
     2    1   20 1
     3    1   21 1
     4    1   22 1
     5    2    3 1
     6    2    4 1
     7    2    7 1
     8    4    6 1
     9    4    5 1
    10    4   23 1
    11    5    6 1
    12    5   24 1
    13    5   25 1
    14    6   26 1
    15    6   27 1
    16    7    8 am
    17    7   28 1
    18    8    9 2
    19    8   10 am
    20   10   16 1
    21   10   11 1
    22   11   12 1
    23   11   29 1
    24   11   30 1
    25   12   13 1
    26   12   31 1
    27   12   32 1
    28   13   14 1
    29   13   33 1
    30   13   34 1
    31   14   15 1
    32   14   16 1
    33   14   17 1
    34   16   35 1
    35   16   36 1
    36   17   18 2
    37   17   19 1
@<TRIPOS>MOLECULE
ZINC40495075
   38    38     0     0     0
SMALL
USER_CHARGES

@<TRIPOS>ATOM
      1 C1         -0.0182    1.5281    0.0092 C.3       1 <0>        -0.1450
      2 C2          0.0011   -0.0018    0.0005 C.3       1 <0>        -0.0830
      3 C3          0.7399   -0.5096    1.2403 C.3       1 <0>        -0.1431
      4 C4         -1.4348   -0.5300    0.0104 C.3       1 <0>        -0.1366
      5 C5          0.7175   -0.4956   -1.2580 C.3       1 <0>         0.1504
      6 N1          2.0923    0.0102   -1.2676 N.am      1 <0>        -0.7472
      7 C6          2.9171   -0.2992   -2.2876 C.2       1 <0>         0.7082
      8 O1          2.5514   -1.0719   -3.1522 O.2       1 <0>        -0.6055
      9 N2          4.1473    0.2478   -2.3492 N.am      1 <0>        -0.6249
     10 C7          5.0138    0.0126   -3.5122 C.3       1 <0>         0.1324
     11 C8          5.4711    1.3649   -4.0679 C.3       1 <0>        -0.1351
     12 C9          6.1278    2.1762   -2.9487 C.3       1 <0>        -0.0947
     13 C10         5.1088    2.4310   -1.8357 C.3       1 <0>        -0.1671
     14 H1          4.2508    2.9655   -2.2434 H         1 <0>         0.0632
     15 C11         4.6451    1.0957   -1.2574 C.3       1 <0>         0.1356
     16 C12         5.7468    3.2580   -0.7493 C.2       1 <0>         0.4989
     17 O2          5.1113    4.1455   -0.2061 O.co2     1 <0>        -0.6982
     18 O3          6.8984    3.0396   -0.4137 O.co2     1 <0>        -0.6919
     19 H2          1.0047    1.9044    0.0021 H         1 <0>         0.0594
     20 H3         -0.5446    1.8898   -0.8741 H         1 <0>         0.0571
     21 H4         -0.5286    1.8799    0.9058 H         1 <0>         0.0580
     22 H5          0.2296   -0.1578    2.1369 H         1 <0>         0.0581
     23 H6          0.7537   -1.5995    1.2341 H         1 <0>         0.0565
     24 H7          1.7629   -0.1333    1.2332 H         1 <0>         0.0564
     25 H8         -1.9612   -0.1683   -0.8728 H         1 <0>         0.0571
     26 H9         -1.4210   -1.6199    0.0042 H         1 <0>         0.0566
     27 H10        -1.9451   -0.1782    0.9070 H         1 <0>         0.0593
     28 H11         0.7312   -1.5855   -1.2642 H         1 <0>         0.0633
     29 H12         0.1911   -0.1339   -2.1413 H         1 <0>         0.0620
     30 H13         2.4091    0.5677   -0.5398 H         1 <0>         0.3989
     31 H14         5.8832   -0.5704   -3.2082 H         1 <0>         0.0623
     32 H15         4.4583   -0.5283   -4.2783 H         1 <0>         0.0865
     33 H16         6.1906    1.2038   -4.8708 H         1 <0>         0.0687
     34 H17         4.6097    1.9094   -4.4546 H         1 <0>         0.0598
     35 H18         6.9743    1.6201   -2.5457 H         1 <0>         0.0687
     36 H19         6.4762    3.1290   -3.3472 H         1 <0>         0.0563
     37 H20         3.8464    1.2692   -0.5362 H         1 <0>         0.0675
     38 H21         5.4837    0.6030   -0.7654 H         1 <0>         0.0710
@<TRIPOS>BOND
     1    1    2 1
     2    1   19 1
     3    1   20 1
     4    1   21 1
     5    2    3 1
     6    2    4 1
     7    2    5 1
     8    3   22 1
     9    3   23 1
    10    3   24 1
    11    4   25 1
    12    4   26 1
    13    4   27 1
    14    5    6 1
    15    5   28 1
    16    5   29 1
    17    6    7 am
    18    6   30 1
    19    7    8 2
    20    7    9 am
    21    9   15 1
    22    9   10 1
    23   10   11 1
    24   10   31 1
    25   10   32 1
    26   11   12 1
    27   11   33 1
    28   11   34 1
    29   12   13 1
    30   12   35 1
    31   12   36 1
    32   13   14 1
    33   13   15 1
    34   13   16 1
    35   15   37 1
    36   15   38 1
    37   16   17 2
    38   16   18 1
@<TRIPOS>MOLECULE
ZINC42472040
   38    38     0     0     0
SMALL
USER_CHARGES

@<TRIPOS>ATOM
      1 C1         -0.0075    1.4914   -0.0338 C.3       1 <0>        -0.1466
      2 C2          0.0137   -0.0384   -0.0205 C.3       1 <0>        -0.0898
      3 C3         -1.4216   -0.5683   -0.0093 C.3       1 <0>        -0.1082
      4 C4         -1.4004   -2.0981    0.0040 C.3       1 <0>        -0.1389
      5 C5         -0.6664   -2.5871    1.2542 C.3       1 <0>         0.1713
      6 C6          0.7688   -2.0572    1.2430 C.3       1 <0>        -0.1251
      7 C7          0.7476   -0.5274    1.2297 C.3       1 <0>        -0.1413
      8 N1         -1.3583   -2.0979    2.4493 N.am      1 <0>        -0.6300
      9 C8         -0.6486   -1.2512    3.4115 C.3       1 <0>         0.0710
     10 C9         -2.6476   -2.4267    2.6636 C.2       1 <0>         0.7020
     11 O1         -3.2366   -3.1294    1.8651 O.2       1 <0>        -0.5861
     12 N2         -3.2841   -1.9767    3.7631 N.am      1 <0>        -0.7442
     13 C10        -4.6856   -2.3341    3.9960 C.3       1 <0>         0.1586
     14 C11        -5.1634   -1.6991    5.3034 C.3       1 <0>        -0.1944
     15 C12        -6.6050   -2.0668    5.5431 C.2       1 <0>         0.4956
     16 O2         -7.1956   -2.7715    4.7423 O.co2     1 <0>        -0.6919
     17 O3         -7.1808   -1.6597    6.5377 O.co2     1 <0>        -0.7022
     18 H1          1.0150    1.8689   -0.0418 H         1 <0>         0.0511
     19 H2         -0.5304    1.8398   -0.9245 H         1 <0>         0.0524
     20 H3         -0.5222    1.8554    0.8553 H         1 <0>         0.0532
     21 H4          0.5284   -0.4024   -0.9097 H         1 <0>         0.0649
     22 H5         -1.9363   -0.2043    0.8799 H         1 <0>         0.0612
     23 H6         -1.9445   -0.2199   -0.9000 H         1 <0>         0.0570
     24 H7         -2.4229   -2.4755    0.0120 H         1 <0>         0.0901
     25 H8         -0.8856   -2.4621   -0.8852 H         1 <0>         0.0639
     26 H9         -0.6513   -3.6769    1.2637 H         1 <0>         0.0701
     27 H10         1.2917   -2.4056    2.1337 H         1 <0>         0.0681
     28 H11         1.2836   -2.4212    0.3538 H         1 <0>         0.0761
     29 H12         1.7702   -0.1499    1.2217 H         1 <0>         0.0591
     30 H13         0.2329   -0.1634    2.1189 H         1 <0>         0.0877
     31 H14        -0.8578   -0.2032    3.1968 H         1 <0>         0.0570
     32 H15        -0.9836   -1.4891    4.4211 H         1 <0>         0.0603
     33 H16         0.4235   -1.4313    3.3324 H         1 <0>         0.0832
     34 H17        -2.8142   -1.4161    4.4001 H         1 <0>         0.3893
     35 H18        -5.2959   -1.9685    3.1702 H         1 <0>         0.0658
     36 H19        -4.7777   -3.4181    4.0636 H         1 <0>         0.0657
     37 H20        -4.5530   -2.0648    6.1292 H         1 <0>         0.0619
     38 H21        -5.0713   -0.6151    5.2358 H         1 <0>         0.0619
@<TRIPOS>BOND
     1    1    2 1
     2    1   18 1
     3    1   19 1
     4    1   20 1
     5    2    7 1
     6    2    3 1
     7    2   21 1
     8    3    4 1
     9    3   22 1
    10    3   23 1
    11    4    5 1
    12    4   24 1
    13    4   25 1
    14    5    6 1
    15    5    8 1
    16    5   26 1
    17    6    7 1
    18    6   27 1
    19    6   28 1
    20    7   29 1
    21    7   30 1
    22    8    9 1
    23    8   10 am
    24    9   31 1
    25    9   32 1
    26    9   33 1
    27   10   11 2
    28   10   12 am
    29   12   13 1
    30   12   34 1
    31   13   14 1
    32   13   35 1
    33   13   36 1
    34   14   15 1
    35   14   37 1
    36   14   38 1
    37   15   16 2
    38   15   17 1
@<TRIPOS>MOLECULE
ZINC61121396
   33    34     0     0     0
SMALL
USER_CHARGES

@<TRIPOS>ATOM
      1 C1          0.0017    1.4200    0.3980 C.ar      1 <0>        -0.1804
      2 C2          1.1619    2.0954    0.0443 C.ar      1 <0>         0.2293
      3 C3          2.3226    1.3840   -0.2273 C.ar      1 <0>        -0.1631
      4 C4          2.3220    0.0030   -0.1451 C.ar      1 <0>         0.1255
      5 C5          1.1631   -0.6704    0.2082 C.ar      1 <0>         0.0003
      6 C6          0.0035    0.0390    0.4796 C.ar      1 <0>         0.1228
      7 F1         -1.1253   -0.6185    0.8242 F         1 <0>        -0.1191
      8 F2          1.1635   -2.0190    0.2877 F         1 <0>        -0.1221
      9 F3          3.4514   -0.6897   -0.4098 F         1 <0>        -0.1154
     10 N1          1.1611    3.4934   -0.0390 N.am      1 <0>        -0.6810
     11 C7          2.3135    4.1776    0.1037 C.2       1 <0>         0.7044
     12 O1          3.3737    3.5831    0.1345 O.2       1 <0>        -0.5630
     13 N2          2.2908    5.5208    0.2122 N.am      1 <0>        -0.6137
     14 C8          1.0162    6.2396    0.3451 C.3       1 <0>         0.1091
     15 C9          0.9450    7.3213   -0.7373 C.3       1 <0>        -0.1364
     16 C10         2.1836    8.2151   -0.6419 C.3       1 <0>        -0.0949
     17 C11         3.4405    7.3751   -0.8804 C.3       1 <0>        -0.1684
     18 H1          3.3826    6.9043   -1.8617 H         1 <0>         0.0670
     19 C12         3.5403    6.2936    0.2060 C.3       1 <0>         0.1522
     20 C13         4.6573    8.2621   -0.8191 C.2       1 <0>         0.4993
     21 O2          5.7237    7.8088   -0.4397 O.co2     1 <0>        -0.6937
     22 O3          4.5754    9.4330   -1.1489 O.co2     1 <0>        -0.6941
     23 H2         -0.9007    1.9728    0.6138 H         1 <0>         0.1546
     24 H3          3.2256    1.9084   -0.5029 H         1 <0>         0.1946
     25 H4          0.3312    3.9693   -0.1994 H         1 <0>         0.4128
     26 H5          0.1884    5.5418    0.2194 H         1 <0>         0.0676
     27 H6          0.9594    6.7036    1.3297 H         1 <0>         0.0746
     28 H7          0.9106    6.8509   -1.7200 H         1 <0>         0.0630
     29 H8          0.0490    7.9244   -0.5906 H         1 <0>         0.0716
     30 H9          2.1235    9.0006   -1.3952 H         1 <0>         0.0726
     31 H10         2.2307    8.6658    0.3494 H         1 <0>         0.0574
     32 H11         3.6851    6.7620    1.1796 H         1 <0>         0.0670
     33 H12         4.3784    5.6315   -0.0115 H         1 <0>         0.0996
@<TRIPOS>BOND
     1    1    6 ar
     2    1    2 ar
     3    1   23 1
     4    2    3 ar
     5    2   10 1
     6    3    4 ar
     7    3   24 1
     8    4    5 ar
     9    4    9 1
    10    5    6 ar
    11    5    8 1
    12    6    7 1
    13   10   11 am
    14   10   25 1
    15   11   12 2
    16   11   13 am
    17   13   19 1
    18   13   14 1
    19   14   15 1
    20   14   26 1
    21   14   27 1
    22   15   16 1
    23   15   28 1
    24   15   29 1
    25   16   17 1
    26   16   30 1
    27   16   31 1
    28   17   18 1
    29   17   19 1
    30   17   20 1
    31   19   32 1
    32   19   33 1
    33   20   21 2
    34   20   22 1
@<TRIPOS>MOLECULE
ZINC62846161
   42    43     0     0     0
SMALL
USER_CHARGES

@<TRIPOS>ATOM
      1 C1         -0.0189    1.5253    0.0042 C.3       1 <0>        -0.1590
      2 C2          0.0020   -0.0046   -0.0032 C.3       1 <0>        -0.0950
      3 C3          0.7193   -0.4987   -1.2611 C.3       1 <0>        -0.1248
      4 C4          2.1545    0.0326   -1.2716 C.3       1 <0>        -0.1064
      5 C5          2.8815   -0.4469   -0.0113 C.3       1 <0>         0.1127
      6 N1          2.7806   -1.9107    0.0647 N.am      1 <0>        -0.6204
      7 C6          1.4511   -2.5319   -0.0079 C.3       1 <0>         0.1269
      8 C7          0.7401   -2.0290   -1.2682 C.3       1 <0>        -0.1000
      9 C8          3.8866   -2.6693    0.1981 C.2       1 <0>         0.7068
     10 O1          3.7846   -3.8711    0.3519 O.2       1 <0>        -0.5991
     11 N2          5.1057   -2.0957    0.1611 N.am      1 <0>        -0.7438
     12 C9          6.3092   -2.9303    0.1942 C.3       1 <0>         0.1577
     13 C10         6.7020   -3.3483   -1.2379 C.3       1 <0>        -0.1363
     14 C11         7.7657   -2.3045   -1.6599 C.3       1 <0>        -0.1258
     15 C12         8.5646   -2.0824   -0.3517 C.3       1 <0>        -0.1236
     16 C13         7.4935   -2.1254    0.7576 C.3       1 <0>        -0.1306
     17 C14        -0.0091   -0.0008   -2.4828 C.2       1 <0>         0.5037
     18 O2         -0.1390    1.1971   -2.6690 O.co2     1 <0>        -0.6903
     19 O3         -0.4684   -0.7959   -3.2849 O.co2     1 <0>        -0.6963
     20 H1          1.0037    1.9026   -0.0029 H         1 <0>         0.0432
     21 H2         -0.5453    1.8857   -0.8796 H         1 <0>         0.0962
     22 H3         -0.5299    1.8773    0.9003 H         1 <0>         0.0273
     23 H4          0.5284   -0.3650    0.8806 H         1 <0>         0.0451
     24 H5         -1.0206   -0.3820    0.0039 H         1 <0>         0.0495
     25 H6          2.6737   -0.3393   -2.1549 H         1 <0>         0.0554
     26 H7          2.1388    1.1224   -1.2901 H         1 <0>         0.0799
     27 H8          3.9305   -0.1551   -0.0613 H         1 <0>         0.0651
     28 H9          2.4180   -0.0024    0.8694 H         1 <0>         0.0697
     29 H10         1.5563   -3.6158   -0.0556 H         1 <0>         0.0844
     30 H11         0.8709   -2.2575    0.8731 H         1 <0>         0.0612
     31 H12        -0.2823   -2.4066   -1.2843 H         1 <0>         0.0718
     32 H13         1.2726   -2.3815   -2.1515 H         1 <0>         0.0612
     33 H14         5.1861   -1.1303    0.1125 H         1 <0>         0.3937
     34 H15         6.1334   -3.8144    0.8070 H         1 <0>         0.0895
     35 H16         7.1299   -4.3508   -1.2388 H         1 <0>         0.0717
     36 H17         5.8373   -3.3009   -1.8998 H         1 <0>         0.0711
     37 H18         8.4100   -2.7044   -2.4429 H         1 <0>         0.0656
     38 H19         7.2908   -1.3786   -1.9845 H         1 <0>         0.0666
     39 H20         9.2933   -2.8804   -0.2096 H         1 <0>         0.0667
     40 H21         9.0592   -1.1112   -0.3670 H         1 <0>         0.0657
     41 H22         7.1727   -1.1138    1.0064 H         1 <0>         0.0699
     42 H23         7.8929   -2.6193    1.6434 H         1 <0>         0.0729
@<TRIPOS>BOND
     1    1    2 1
     2    1   20 1
     3    1   21 1
     4    1   22 1
     5    2    3 1
     6    2   23 1
     7    2   24 1
     8    3    8 1
     9    3    4 1
    10    3   17 1
    11    4    5 1
    12    4   25 1
    13    4   26 1
    14    5    6 1
    15    5   27 1
    16    5   28 1
    17    6    7 1
    18    6    9 am
    19    7    8 1
    20    7   29 1
    21    7   30 1
    22    8   31 1
    23    8   32 1
    24    9   10 2
    25    9   11 am
    26   11   12 1
    27   11   33 1
    28   12   16 1
    29   12   13 1
    30   12   34 1
    31   13   14 1
    32   13   35 1
    33   13   36 1
    34   14   15 1
    35   14   37 1
    36   14   38 1
    37   15   16 1
    38   15   39 1
    39   15   40 1
    40   16   41 1
    41   16   42 1
    42   17   18 2
    43   17   19 1
@<TRIPOS>MOLECULE
ZINC31841302
   28    30     0     0     0
SMALL
USER_CHARGES
N-[(4-chlorophenyl)methyleneamino]-9H-purin-6-amine
@<TRIPOS>ATOM
      1 C1         -4.7459    4.1324    0.3494 C.ar      1 <0>        -0.0769
      2 C2         -4.7425    5.5115    0.3616 C.ar      1 <0>        -0.1048
      3 C3         -3.5628    6.2059    0.1514 C.ar      1 <0>        -0.0254
      4 C4         -2.3787    5.5216   -0.0666 C.ar      1 <0>        -0.0971
      5 C5         -2.3673    4.1426   -0.0756 C.ar      1 <0>        -0.1281
      6 C6         -3.5538    3.4360    0.1358 C.ar      1 <0>        -0.0934
      7 C7         -3.5490    1.9614    0.1276 C.2       1 <0>         0.0958
      8 N1         -2.4244    1.3157    0.1860 N.2       1 <0>        -0.2057
      9 N2         -1.2821    1.9435    0.6996 N.pl3     1 <0>        -0.5604
     10 C8         -0.0573    1.3020    0.6466 C.ar      1 <0>         0.5127
     11 C9          1.1004    1.9191    1.1517 C.ar      1 <0>        -0.1069
     12 C10         2.3164    1.2200    1.0647 C.ar      1 <0>         0.2942
     13 N3          3.2646    2.0396    1.6230 N.pl3     1 <0>        -0.5915
     14 H1          4.3134    1.7120    1.6743 H         1 <0>         0.4641
     15 C11         2.6340    3.1793    2.0247 C.2       1 <0>         0.2730
     16 N4          1.3643    3.1064    1.7473 N.2       1 <0>        -0.4734
     17 N5          2.3284    0.0113    0.5123 N.ar      1 <0>        -0.5552
     18 C12         1.2189   -0.5273    0.0519 C.ar      1 <0>         0.3581
     19 N6          0.0533    0.0899    0.1116 N.ar      1 <0>        -0.5558
     20 Cl1        -3.5684    7.9418    0.1618 Cl        1 <0>        -0.0609
     21 H2         -5.6673    3.5921    0.5087 H         1 <0>         0.1441
     22 H3         -5.6625    6.0511    0.5311 H         1 <0>         0.1408
     23 H4         -1.4622    6.0690   -0.2302 H         1 <0>         0.1395
     24 H5         -1.4433    3.6101   -0.2460 H         1 <0>         0.1464
     25 H6         -4.4984    1.4086    0.0720 H         1 <0>         0.1959
     26 H7         -1.3590    2.9464    1.1450 H         1 <0>         0.4367
     27 H8          3.1167    4.0192    2.5023 H         1 <0>         0.2267
     28 H9          1.2638   -1.5113   -0.3910 H         1 <0>         0.2071
@<TRIPOS>BOND
     1    1    6 ar
     2    1    2 ar
     3    1   21 1
     4    2    3 ar
     5    2   22 1
     6    3    4 ar
     7    3   20 1
     8    4    5 ar
     9    4   23 1
    10    5    6 ar
    11    5   24 1
    12    6    7 1
    13    7    8 2
    14    7   25 1
    15    8    9 1
    16    9   10 1
    17    9   26 1
    18   10   19 ar
    19   10   11 ar
    20   11   16 1
    21   11   12 ar
    22   12   13 1
    23   12   17 ar
    24   13   14 1
    25   13   15 1
    26   15   16 2
    27   15   27 1
    28   17   18 ar
    29   18   19 ar
    30   18   28 1
@<TRIPOS>MOLECULE
ZINC42014059
   36    38     0     0     0
SMALL
USER_CHARGES

@<TRIPOS>ATOM
      1 C1         -2.7331    0.5866   -0.0309 C.3       1 <0>        -0.1118
      2 C2         -1.6225   -0.4306    0.0237 C.ar      1 <0>        -0.1075
      3 C3         -0.8387   -0.6567   -1.0932 C.ar      1 <0>        -0.0558
      4 C4          0.1815   -1.5879   -1.0492 C.ar      1 <0>        -0.1948
      5 C5          0.4215   -2.2988    0.1162 C.ar      1 <0>         0.1521
      6 C6         -0.3676   -2.0715    1.2414 C.ar      1 <0>         0.0838
      7 C7         -1.3863   -1.1308    1.1910 C.ar      1 <0>        -0.0573
      8 N1         -0.1301   -2.7880    2.4231 N.pl3     1 <0>        -0.3188
      9 C8          0.1387   -2.2812    3.6604 C.2       1 <0>         0.2967
     10 N2          0.2924   -3.3088    4.4697 N.2       1 <0>        -0.3184
     11 N3          0.1398   -4.4119    3.8307 N.2       1 <0>        -0.0406
     12 N4         -0.1235   -4.1840    2.5899 N.2       1 <0>        -0.0585
     13 C9          0.2394   -0.8504    4.0240 C.ar      1 <0>         0.0060
     14 C10         0.4552    0.1097    3.0343 C.ar      1 <0>        -0.1513
     15 C11         0.5492    1.4436    3.3756 C.ar      1 <0>        -0.0677
     16 C12         0.4299    1.8339    4.6963 C.ar      1 <0>        -0.1720
     17 C13         0.2149    0.8854    5.6891 C.ar      1 <0>         0.2168
     18 C14         0.1132   -0.4568    5.3550 C.ar      1 <0>        -0.1419
     19 N5          0.0954    1.2845    7.0225 N.pl3     1 <0>        -0.8743
     20 O1          1.4239   -3.2157    0.1609 O.3       1 <0>        -0.3038
     21 C15         2.1917   -3.3961   -1.0308 C.3       1 <0>         0.0245
     22 H1         -2.3464    1.5627    0.2620 H         1 <0>         0.0759
     23 H2         -3.1262    0.6412   -1.0461 H         1 <0>         0.0721
     24 H3         -3.5298    0.2916    0.6519 H         1 <0>         0.0692
     25 H4         -1.0247   -0.1042   -2.0024 H         1 <0>         0.1389
     26 H5          0.7917   -1.7620   -1.9232 H         1 <0>         0.1443
     27 H6         -1.9974   -0.9492    2.0628 H         1 <0>         0.1400
     28 H7          0.5490   -0.1913    2.0014 H         1 <0>         0.1259
     29 H8          0.7170    2.1849    2.6083 H         1 <0>         0.1313
     30 H9          0.5043    2.8792    4.9575 H         1 <0>         0.1279
     31 H10        -0.0583   -1.1951    6.1243 H         1 <0>         0.1374
     32 H11         0.1625    2.2237    7.2555 H         1 <0>         0.4016
     33 H12        -0.0547    0.6224    7.7153 H         1 <0>         0.4020
     34 H13         1.5362   -3.7180   -1.8400 H         1 <0>         0.0620
     35 H14         2.6682   -2.4541   -1.3021 H         1 <0>         0.0604
     36 H15         2.9562   -4.1539   -0.8592 H         1 <0>         0.1058
@<TRIPOS>BOND
     1    1    2 1
     2    1   22 1
     3    1   23 1
     4    1   24 1
     5    2    7 ar
     6    2    3 ar
     7    3    4 ar
     8    3   25 1
     9    4    5 ar
    10    4   26 1
    11    5    6 ar
    12    5   20 1
    13    6    7 ar
    14    6    8 1
    15    7   27 1
    16    8   12 1
    17    8    9 1
    18    9   10 2
    19    9   13 1
    20   10   11 1
    21   11   12 2
    22   13   18 ar
    23   13   14 ar
    24   14   15 ar
    25   14   28 1
    26   15   16 ar
    27   15   29 1
    28   16   17 ar
    29   16   30 1
    30   17   18 ar
    31   17   19 1
    32   18   31 1
    33   19   32 1
    34   19   33 1
    35   20   21 1
    36   21   34 1
    37   21   35 1
    38   21   36 1
@<TRIPOS>MOLECULE
ZINC43670461
   32    33     0     0     0
SMALL
USER_CHARGES

@<TRIPOS>ATOM
      1 C1         -0.0184    1.5028    0.0103 C.3       1 <0>        -0.0884
      2 C2          0.0021   -0.0041    0.0020 C.2       1 <0>         0.1616
      3 C3          0.0080   -0.8162   -1.1356 C.2       1 <0>        -0.2617
      4 C4          0.0283   -2.1132   -0.7214 C.2       1 <0>         0.4415
      5 N1          0.0348   -2.1096    0.6311 N.pl3     1 <0>        -0.3789
      6 N2          0.0230   -0.7757    1.0584 N.2       1 <0>        -0.2719
      7 C5          0.0550   -3.2917    1.4962 C.3       1 <0>         0.2106
      8 H1          0.0641   -4.1917    0.8814 H         1 <0>         0.1134
      9 C6          1.3082   -3.2605    2.3733 C.3       1 <0>        -0.1605
     10 C7         -1.1713   -3.2941    2.3721 C.ar      1 <0>        -0.1222
     11 C8         -1.4028   -2.2435    3.2398 C.ar      1 <0>        -0.0900
     12 C9         -2.5295   -2.2455    4.0440 C.ar      1 <0>         0.0925
     13 C10        -3.4245   -3.3001    3.9793 C.ar      1 <0>        -0.1114
     14 C11        -3.1931   -4.3504    3.1119 C.ar      1 <0>        -0.1235
     15 C12        -2.0687   -4.3458    2.3036 C.ar      1 <0>         0.1043
     16 F1         -1.8450   -5.3704    1.4518 F         1 <0>        -0.1318
     17 F2         -2.7556   -1.2188    4.8925 F         1 <0>        -0.1284
     18 N3          0.0402   -3.2384   -1.5410 N.pl3     1 <0>        -0.8395
     19 N4         -0.0055   -0.3494   -2.5403 N.pl3     1 <0>         0.0610
     20 O1          1.0360   -0.1445   -3.1192 O.2       1 <0>        -0.1402
     21 O2         -1.0578   -0.1732   -3.1087 O.3       1 <0>        -0.1423
     22 H2          1.0042    1.8801    0.0026 H         1 <0>         0.0933
     23 H3         -0.5455    1.8639   -0.8728 H         1 <0>         0.0807
     24 H4         -0.5286    1.8543    0.9071 H         1 <0>         0.0918
     25 H5          1.2991   -2.3605    2.9881 H         1 <0>         0.0811
     26 H6          1.3232   -4.1400    3.0170 H         1 <0>         0.0868
     27 H7          2.1952   -3.2587    1.7398 H         1 <0>         0.0735
     28 H8         -0.7046   -1.4212    3.2905 H         1 <0>         0.1585
     29 H9         -4.3034   -3.3018    4.6070 H         1 <0>         0.1516
     30 H10        -3.8910   -5.1731    3.0617 H         1 <0>         0.1524
     31 H11         0.0344   -3.1359   -2.5055 H         1 <0>         0.4234
     32 H12         0.0542   -4.1249   -1.1475 H         1 <0>         0.4126
@<TRIPOS>BOND
     1    1    2 1
     2    1   22 1
     3    1   23 1
     4    1   24 1
     5    2    6 2
     6    2    3 1
     7    3    4 2
     8    3   19 1
     9    4    5 1
    10    4   18 1
    11    5    6 1
    12    5    7 1
    13    7    8 1
    14    7    9 1
    15    7   10 1
    16    9   25 1
    17    9   26 1
    18    9   27 1
    19   10   15 ar
    20   10   11 ar
    21   11   12 ar
    22   11   28 1
    23   12   13 ar
    24   12   17 1
    25   13   14 ar
    26   13   29 1
    27   14   15 ar
    28   14   30 1
    29   15   16 1
    30   18   31 1
    31   18   32 1
    32   19   20 2
    33   19   21 1
@<TRIPOS>MOLECULE
ZINC50377031
   39    41     0     0     0
SMALL
USER_CHARGES

@<TRIPOS>ATOM
      1 C1         -2.1690    0.3679    0.6857 C.3       1 <0>        -0.1185
      2 C2         -0.9901   -0.5038    0.3374 C.ar      1 <0>         0.0144
      3 C3         -0.9362   -1.1348   -0.8883 C.ar      1 <0>        -0.1765
      4 C4          0.1438   -1.9373   -1.2139 C.ar      1 <0>        -0.0397
      5 C5          1.1784   -2.1141   -0.3158 C.ar      1 <0>        -0.2005
      6 C6          1.1397   -1.4865    0.9213 C.ar      1 <0>         0.2526
      7 C7          0.0500   -0.6688    1.2514 C.ar      1 <0>        -0.1310
      8 C8          0.0007    0.0098    2.5640 C.2       1 <0>         0.3073
      9 N1         -0.1300    1.3036    2.7723 N.2       1 <0>        -0.3190
     10 N2         -0.1363    1.5577    4.0311 N.2       1 <0>        -0.0405
     11 N3         -0.0127    0.4691    4.7101 N.2       1 <0>        -0.0825
     12 N4          0.0756   -0.5831    3.7819 N.pl3     1 <0>        -0.3729
     13 C9          0.2198   -2.0125    4.0683 C.3       1 <0>         0.1431
     14 H1          0.3403   -2.5690    3.1388 H         1 <0>         0.1319
     15 C10         1.4370   -2.2473    4.9865 C.3       1 <0>        -0.1271
     16 C11         0.8332   -2.2989    6.4119 C.3       1 <0>        -0.1229
     17 C12        -0.5024   -3.0514    6.1903 C.3       1 <0>        -0.1415
     18 C13        -1.0139   -2.5240    4.8326 C.3       1 <0>         0.0790
     19 H2         -1.7199   -1.7087    4.9904 H         1 <0>         0.0751
     20 O1         -1.6401   -3.5798    4.1009 O.3       1 <0>        -0.3784
     21 C14        -3.0521   -3.6682    4.3018 C.3       1 <0>         0.0306
     22 N5          2.1815   -1.6641    1.8288 N.pl3     1 <0>        -0.8742
     23 H3         -1.9708    1.3914    0.3674 H         1 <0>         0.0870
     24 H4         -3.0588   -0.0045    0.1781 H         1 <0>         0.0738
     25 H5         -2.3302    0.3474    1.7635 H         1 <0>         0.0574
     26 H6         -1.7404   -1.0025   -1.5968 H         1 <0>         0.1307
     27 H7          0.1775   -2.4281   -2.1753 H         1 <0>         0.1311
     28 H8          2.0179   -2.7415   -0.5766 H         1 <0>         0.1311
     29 H9          1.9217   -3.1928    4.7430 H         1 <0>         0.0957
     30 H10         2.1439   -1.4221    4.9012 H         1 <0>         0.0781
     31 H11         1.4831   -2.8560    7.0867 H         1 <0>         0.0809
     32 H12         0.6517   -1.2933    6.7912 H         1 <0>         0.0813
     33 H13        -0.3309   -4.1267    6.1413 H         1 <0>         0.0856
     34 H14        -1.2108   -2.8129    6.9837 H         1 <0>         0.0775
     35 H15        -3.5228   -2.7364    3.9883 H         1 <0>         0.0419
     36 H16        -3.4520   -4.4934    3.7126 H         1 <0>         0.0927
     37 H17        -3.2587   -3.8422    5.3578 H         1 <0>         0.0462
     38 H18         2.8873   -2.3016    1.6383 H         1 <0>         0.4066
     39 H19         2.2011   -1.1503    2.6513 H         1 <0>         0.3937
@<TRIPOS>BOND
     1    1    2 1
     2    1   23 1
     3    1   24 1
     4    1   25 1
     5    2    7 ar
     6    2    3 ar
     7    3    4 ar
     8    3   26 1
     9    4    5 ar
    10    4   27 1
    11    5    6 ar
    12    5   28 1
    13    6    7 ar
    14    6   22 1
    15    7    8 1
    16    8   12 1
    17    8    9 2
    18    9   10 1
    19   10   11 2
    20   11   12 1
    21   12   13 1
    22   13   14 1
    23   13   18 1
    24   13   15 1
    25   15   16 1
    26   15   29 1
    27   15   30 1
    28   16   17 1
    29   16   31 1
    30   16   32 1
    31   17   18 1
    32   17   33 1
    33   17   34 1
    34   18   19 1
    35   18   20 1
    36   20   21 1
    37   21   35 1
    38   21   36 1
    39   21   37 1
    40   22   38 1
    41   22   39 1
@<TRIPOS>MOLECULE
ZINC61537443
   36    37     0     0     0
SMALL
USER_CHARGES

@<TRIPOS>ATOM
      1 C1         -0.0187    1.5258    0.0104 C.3       1 <0>        -0.1588
      2 C2          0.0021   -0.0041    0.0020 C.3       1 <0>         0.1569
      3 H1         -1.0205   -0.3814    0.0098 H         1 <0>         0.1067
      4 C3          0.7182   -0.4975   -1.2568 C.3       1 <0>         0.0656
      5 O1          2.0188    0.0904   -1.3262 O.3       1 <0>        -0.5702
      6 N1          0.7106   -0.4894    1.1889 N.pl3     1 <0>        -0.6707
      7 C4          0.0354   -0.6369    2.3833 C.ar      1 <0>         0.6445
      8 N2          0.6787   -1.0718    3.4617 N.ar      1 <0>        -0.6508
      9 C5          0.0253   -1.2121    4.6099 C.ar      1 <0>         0.6451
     10 N3         -1.2707   -0.9169    4.6768 N.ar      1 <0>        -0.6278
     11 C6         -1.9083   -0.4841    3.6016 C.ar      1 <0>         0.4770
     12 N4         -1.2592   -0.3386    2.4578 N.ar      1 <0>        -0.6272
     13 Cl1        -3.5989   -0.1007    3.6929 Cl        1 <0>         0.0362
     14 N5          0.6896   -1.6639    5.7319 N.pl3     1 <0>        -0.5646
     15 C7          2.1215   -1.9883    5.6742 C.3       1 <0>         0.1225
     16 C8          2.8479   -1.2114    6.7767 C.3       1 <0>        -0.1358
     17 C9          2.1893   -1.5112    8.1252 C.3       1 <0>        -0.1226
     18 C10         0.7290   -1.0545    8.0944 C.3       1 <0>        -0.1361
     19 C11        -0.0201   -1.8239    7.0084 C.3       1 <0>         0.1208
     20 H2          1.0039    1.9031    0.0027 H         1 <0>         0.0657
     21 H3         -0.5459    1.8868   -0.8726 H         1 <0>         0.0668
     22 H4         -0.5289    1.8773    0.9072 H         1 <0>         0.0599
     23 H5          0.8116   -1.5829   -1.2198 H         1 <0>         0.0541
     24 H6          0.1430   -0.2121   -2.1375 H         1 <0>         0.0673
     25 H7          2.5311   -0.1785   -2.1011 H         1 <0>         0.3845
     26 H8          1.6544   -0.7070    1.1351 H         1 <0>         0.4214
     27 H9          2.2602   -3.0583    5.8291 H         1 <0>         0.0705
     28 H10         2.5219   -1.7029    4.7015 H         1 <0>         0.1004
     29 H11         3.8942   -1.5155    6.8072 H         1 <0>         0.0791
     30 H12         2.7850   -0.1429    6.5707 H         1 <0>         0.0664
     31 H13         2.2306   -2.5830    8.3192 H         1 <0>         0.0661
     32 H14         2.7197   -0.9788    8.9148 H         1 <0>         0.0674
     33 H15         0.2671   -1.2470    9.0628 H         1 <0>         0.0801
     34 H16         0.6860    0.0125    7.8760 H         1 <0>         0.0665
     35 H17        -1.0322   -1.4300    6.9157 H         1 <0>         0.1026
     36 H18        -0.0598   -2.8802    7.2745 H         1 <0>         0.0706
@<TRIPOS>BOND
     1    1    2 1
     2    1   20 1
     3    1   21 1
     4    1   22 1
     5    2    3 1
     6    2    4 1
     7    2    6 1
     8    4    5 1
     9    4   23 1
    10    4   24 1
    11    5   25 1
    12    6    7 1
    13    6   26 1
    14    7   12 ar
    15    7    8 ar
    16    8    9 ar
    17    9   10 ar
    18    9   14 1
    19   10   11 ar
    20   11   12 ar
    21   11   13 1
    22   14   19 1
    23   14   15 1
    24   15   16 1
    25   15   27 1
    26   15   28 1
    27   16   17 1
    28   16   29 1
    29   16   30 1
    30   17   18 1
    31   17   31 1
    32   17   32 1
    33   18   19 1
    34   18   33 1
    35   18   34 1
    36   19   35 1
    37   19   36 1
@<TRIPOS>MOLECULE
ZINC00403451
   23    24     0     0     0
SMALL
USER_CHARGES
6-methoxyquinolin-8-amine
@<TRIPOS>ATOM
      1 C1         -0.0745   -2.7020   -0.0126 C.3       1 <0>         0.0259
      2 O1          1.2027   -2.0611   -0.0214 O.3       1 <0>        -0.3129
      3 C2          1.2113   -0.7023   -0.0137 C.ar      1 <0>         0.1891
      4 C3          2.4120   -0.0287   -0.0211 C.ar      1 <0>        -0.2140
      5 C4          2.4239    1.3746   -0.0132 C.ar      1 <0>        -0.0184
      6 C5          3.6344    2.0946   -0.0209 C.ar      1 <0>        -0.0806
      7 C6          3.5731    3.4588   -0.0139 C.ar      1 <0>        -0.1502
      8 C7          2.3354    4.0986    0.0009 C.ar      1 <0>         0.0978
      9 N1          1.2111    3.4247    0.0084 N.ar      1 <0>        -0.4589
     10 C8          1.2009    2.0890    0.0018 C.ar      1 <0>         0.0449
     11 C9         -0.0166    1.3723    0.0096 C.ar      1 <0>         0.2889
     12 C10         0.0021   -0.0041    0.0020 C.ar      1 <0>        -0.2938
     13 N2         -1.2314    2.0559    0.0191 N.pl3     1 <0>        -0.8505
     14 H1         -0.6210   -2.4107    0.8844 H         1 <0>         0.0568
     15 H2         -0.6383   -2.4006   -0.8955 H         1 <0>         0.0568
     16 H3          0.0615   -3.7834   -0.0201 H         1 <0>         0.1015
     17 H4          3.3416   -0.5784   -0.0332 H         1 <0>         0.1344
     18 H5          4.5848    1.5819   -0.0323 H         1 <0>         0.1403
     19 H6          4.4827    4.0410   -0.0198 H         1 <0>         0.1378
     20 H7          2.3015    5.1780    0.0066 H         1 <0>         0.1579
     21 H8         -0.9295   -0.5504    0.0080 H         1 <0>         0.1341
     22 H9         -2.0661    1.5617    0.0204 H         1 <0>         0.4016
     23 H10        -1.2421    3.0259    0.0244 H         1 <0>         0.4116
@<TRIPOS>BOND
     1    1    2 1
     2    1   14 1
     3    1   15 1
     4    1   16 1
     5    2    3 1
     6    3   12 ar
     7    3    4 ar
     8    4    5 ar
     9    4   17 1
    10    5   10 ar
    11    5    6 ar
    12    6    7 ar
    13    6   18 1
    14    7    8 ar
    15    7   19 1
    16    8    9 ar
    17    8   20 1
    18    9   10 ar
    19   10   11 ar
    20   11   12 ar
    21   11   13 1
    22   12   21 1
    23   13   22 1
    24   13   23 1
@<TRIPOS>MOLECULE
ZINC05664842
   17    17     0     0     0
SMALL
USER_CHARGES
(6S)-5,5-dichloro-6-methyl-hexahydropyrimidine-2,4-dione
@<TRIPOS>ATOM
      1 C1          1.6054    2.0961   -1.4372 C.3       1 <0>        -0.1796
      2 C2          1.2528    1.7048   -0.0007 C.3       1 <0>         0.1353
      3 H1          2.0436    1.0765    0.4090 H         1 <0>         0.1365
      4 C3          1.1121    2.9679    0.8519 C.3       1 <0>         0.0350
      5 C4         -0.1743    3.6679    0.4921 C.2       1 <0>         0.5245
      6 O1         -0.2339    4.8785    0.5183 O.2       1 <0>        -0.4452
      7 N1         -1.2561    2.9481    0.1425 N.am      1 <0>        -0.6620
      8 C5         -1.1883    1.6119    0.0165 C.2       1 <0>         0.7111
      9 O2         -2.2167    0.9723   -0.0869 O.2       1 <0>        -0.5365
     10 N2         -0.0111    0.9658    0.0074 N.am      1 <0>        -0.7152
     11 Cl1         1.0846    2.5166    2.5973 Cl        1 <0>        -0.0731
     12 Cl2         2.5062    4.0666    0.5357 Cl        1 <0>        -0.0511
     13 H2          0.8145    2.7242   -1.8472 H         1 <0>         0.0648
     14 H3          2.5463    2.6463   -1.4434 H         1 <0>         0.0915
     15 H4          1.7065    1.1966   -2.0444 H         1 <0>         0.0899
     16 H5         -2.0974    3.4008   -0.0252 H         1 <0>         0.4389
     17 H6          0.0021   -0.0041    0.0020 H         1 <0>         0.4352
@<TRIPOS>BOND
     1    1    2 1
     2    1   13 1
     3    1   14 1
     4    1   15 1
     5    2    3 1
     6    2   10 1
     7    2    4 1
     8    4    5 1
     9    4   11 1
    10    4   12 1
    11    5    6 2
    12    5    7 am
    13    7    8 am
    14    7   16 1
    15    8    9 2
    16    8   10 am
    17   10   17 1
@<TRIPOS>MOLECULE
ZINC37730079
   23    24     0     0     0
SMALL
USER_CHARGES

@<TRIPOS>ATOM
      1 C1         -0.0161    1.3392    0.0094 C.2       1 <0>         0.2781
      2 N1          1.2214    1.7652   -0.0001 N.2       1 <0>        -0.5751
      3 C2          2.0581    0.7230   -0.0137 C.2       1 <0>         0.4701
      4 N2          1.3539   -0.3840   -0.0129 N.2       1 <0>        -0.3725
      5 N3          0.0021   -0.0041    0.0020 N.pl3     1 <0>        -0.3711
      6 C3         -1.1595   -0.8967    0.0087 C.3       1 <0>         0.1556
      7 C4         -2.3184   -0.2501    0.7953 C.3       1 <0>        -0.1362
      8 C5         -3.1856    0.4277   -0.2945 C.3       1 <0>        -0.1302
      9 C6         -3.1189   -0.5859   -1.4637 C.3       1 <0>        -0.1250
     10 C7         -1.6685   -1.1103   -1.4276 C.3       1 <0>        -0.1354
     11 N4          3.4520    0.7998   -0.0273 N.pl3     1 <0>        -0.8267
     12 H1         -0.8995    1.9604    0.0252 H         1 <0>         0.2144
     13 H2         -0.8919   -1.8539    0.4562 H         1 <0>         0.1062
     14 H3         -2.8938   -1.0116    1.3218 H         1 <0>         0.0936
     15 H4         -1.9364    0.4928    1.4956 H         1 <0>         0.0790
     16 H5         -4.2119    0.5523    0.0507 H         1 <0>         0.0784
     17 H6         -2.7569    1.3857   -0.5888 H         1 <0>         0.0695
     18 H7         -3.8236   -1.4017   -1.3021 H         1 <0>         0.0735
     19 H8         -3.3211   -0.0882   -2.4121 H         1 <0>         0.0725
     20 H9         -1.0513   -0.5497   -2.1297 H         1 <0>         0.0737
     21 H10        -1.6487   -2.1712   -1.6769 H         1 <0>         0.0808
     22 H11         3.8901    1.6652   -0.0270 H         1 <0>         0.4140
     23 H12         3.9824   -0.0123   -0.0370 H         1 <0>         0.4130
@<TRIPOS>BOND
     1    1    5 1
     2    1    2 2
     3    1   12 1
     4    2    3 1
     5    3    4 2
     6    3   11 1
     7    4    5 1
     8    5    6 1
     9    6   10 1
    10    6    7 1
    11    6   13 1
    12    7    8 1
    13    7   14 1
    14    7   15 1
    15    8    9 1
    16    8   16 1
    17    8   17 1
    18    9   10 1
    19    9   18 1
    20    9   19 1
    21   10   20 1
    22   10   21 1
    23   11   22 1
    24   11   23 1
@<TRIPOS>MOLECULE
ZINC39113977
   22    23     0     0     0
SMALL
USER_CHARGES

@<TRIPOS>ATOM
      1 C1         -0.0187    1.5258    0.0104 C.3       1 <0>        -0.1248
      2 C2          0.0021   -0.0041    0.0020 C.3       1 <0>        -0.0335
      3 H1          0.5175   -0.3208   -0.9047 H         1 <0>         0.1393
      4 C3         -1.4285   -0.4842   -0.0890 C.2       1 <0>         0.4785
      5 O1         -2.1331   -0.1464   -1.0190 O.2       1 <0>        -0.4326
      6 N1         -1.9070   -1.2852    0.8665 N.2       1 <0>        -0.5423
      7 C4         -1.1638   -1.6693    1.8893 C.2       1 <0>         0.2876
      8 C5         -1.7171   -2.5193    2.8769 C.2       1 <0>        -0.1145
      9 C6         -0.9757   -2.9248    3.9308 C.2       1 <0>        -0.0469
     10 C7          0.4127   -2.5121    4.1014 C.2       1 <0>         0.2211
     11 C8          1.0149   -1.6971    3.1952 C.2       1 <0>        -0.2205
     12 C9          0.2481   -1.2323    2.0351 C.2       1 <0>         0.1724
     13 N2          0.8038   -0.4483    1.1524 N.2       1 <0>        -0.4145
     14 N3          1.1297   -2.9583    5.2048 N.pl3     1 <0>        -0.8566
     15 H2          1.0039    1.9031    0.0027 H         1 <0>         0.0817
     16 H3         -0.5459    1.8868   -0.8726 H         1 <0>         0.0816
     17 H4         -0.5289    1.8773    0.9072 H         1 <0>         0.0585
     18 H5         -2.7424   -2.8466    2.7870 H         1 <0>         0.1588
     19 H6         -1.4243   -3.5732    4.6689 H         1 <0>         0.1492
     20 H7          2.0434   -1.3957    3.3283 H         1 <0>         0.1453
     21 H8          0.7065   -3.5402    5.8553 H         1 <0>         0.4042
     22 H9          2.0535   -2.6878    5.3246 H         1 <0>         0.4079
@<TRIPOS>BOND
     1    1    2 1
     2    1   15 1
     3    1   16 1
     4    1   17 1
     5    2    3 1
     6    2   13 1
     7    2    4 1
     8    4    5 2
     9    4    6 1
    10    6    7 2
    11    7   12 1
    12    7    8 1
    13    8    9 2
    14    8   18 1
    15    9   10 1
    16    9   19 1
    17   10   11 1
    18   10   14 2
    19   11   12 2
    20   11   20 1
    21   12   13 1
    22   14   21 1
    23   14   22 1
@<TRIPOS>MOLECULE
ZINC04786354
   15    16     0     0     0
SMALL
USER_CHARGES

@<TRIPOS>ATOM
      1 C1         -0.0167    1.3778    0.0096 C.ar      1 <0>        -0.1529
      2 C2          1.1835    2.0740    0.0019 C.ar      1 <0>        -0.0456
      3 C3          2.3640    1.3461   -0.0133 C.ar      1 <0>         0.0253
      4 C4          2.3078   -0.0512   -0.0203 C.ar      1 <0>         0.2844
      5 N1          1.1397   -0.6719   -0.0124 N.ar      1 <0>        -0.4664
      6 C5          0.0021   -0.0041    0.0020 C.ar      1 <0>         0.1374
      7 N2          3.6212   -0.5016   -0.0352 N.pl3     1 <0>        -0.5632
      8 C6          4.4401    0.5666   -0.0373 C.2       1 <0>         0.5171
      9 N3          3.7098    1.6980   -0.0242 N.pl3     1 <0>        -0.5697
     10 H1          4.0614    2.6021   -0.0230 H         1 <0>         0.4515
     11 S1          6.1507    0.4974   -0.0535 S.2       1 <0>        -0.5611
     12 H2         -0.9561    1.9104    0.0259 H         1 <0>         0.1581
     13 H3          1.1981    3.1539    0.0072 H         1 <0>         0.1528
     14 H4         -0.9315   -0.5471    0.0084 H         1 <0>         0.1787
     15 H5          3.9014   -1.4302   -0.0426 H         1 <0>         0.4535
@<TRIPOS>BOND
     1    1    6 ar
     2    1    2 ar
     3    1   12 1
     4    2    3 ar
     5    2   13 1
     6    3    9 1
     7    3    4 ar
     8    4    5 ar
     9    4    7 1
    10    5    6 ar
    11    6   14 1
    12    7    8 1
    13    7   15 1
    14    8    9 1
    15    8   11 2
    16    9   10 1
@<TRIPOS>MOLECULE
ZINC20011538
   28    29     0     0     0
SMALL
USER_CHARGES
3-amino-N-(2,3-dichlorophenyl)-4-fluoro-benzenesulfonamide
@<TRIPOS>ATOM
      1 C1          1.3942   -0.4721    0.3992 C.ar      1 <0>        -0.0725
      2 C2          0.1473    0.1029    0.2462 C.ar      1 <0>        -0.2308
      3 C3          0.0240    1.4843    0.1796 C.ar      1 <0>         0.2594
      4 C4          1.1568    2.2852    0.2671 C.ar      1 <0>        -0.0742
      5 C5          2.4018    1.7035    0.4210 C.ar      1 <0>         0.0006
      6 C6          2.5197    0.3258    0.4865 C.ar      1 <0>        -0.1851
      7 Cl1         3.8179    2.7016    0.5316 Cl        1 <0>        -0.0854
      8 Cl2         1.0086    4.0128    0.1838 Cl        1 <0>        -0.0669
      9 N1         -1.2355    2.0681    0.0192 N.2       1 <0>        -1.0416
     10 S1         -2.5619    1.3861    0.7388 S.o2      1 <0>         2.5941
     11 O1         -3.6499    2.2699    0.5056 O.2       1 <0>        -0.9905
     12 O2         -2.5872    0.0237    0.3357 O.2       1 <0>        -1.0333
     13 C7         -2.2722    1.3917    2.4768 C.ar      1 <0>        -0.6153
     14 C8         -1.6527    0.3109    3.0768 C.ar      1 <0>        -0.0638
     15 C9         -1.4187    0.3127    4.4397 C.ar      1 <0>        -0.1283
     16 C10        -1.8137    1.3920    5.2087 C.ar      1 <0>         0.0376
     17 C11        -2.4418    2.4778    4.6082 C.ar      1 <0>         0.1759
     18 C12        -2.6696    2.4735    3.2387 C.ar      1 <0>        -0.0809
     19 N2         -2.8425    3.5717    5.3819 N.pl3     1 <0>        -0.8990
     20 F1         -1.5895    1.3918    6.5409 F         1 <0>        -0.1480
     21 H1          1.4898   -1.5466    0.4510 H         1 <0>         0.1197
     22 H2         -0.7311   -0.5218    0.1789 H         1 <0>         0.1587
     23 H3          3.4930   -0.1266    0.6063 H         1 <0>         0.1214
     24 H4         -1.3470   -0.5349    2.4788 H         1 <0>         0.1391
     25 H5         -0.9312   -0.5315    4.9047 H         1 <0>         0.1331
     26 H6         -3.1574    3.3150    2.7693 H         1 <0>         0.1398
     27 H7         -3.3392    4.4298    4.9055 H         1 <0>         0.4208
     28 H8         -2.6610    3.5740    6.4668 H         1 <0>         0.4154
@<TRIPOS>BOND
     1    1    6 ar
     2    1    2 ar
     3    1   21 1
     4    2    3 ar
     5    2   22 1
     6    3    4 ar
     7    3    9 1
     8    4    5 ar
     9    4    8 1
    10    5    6 ar
    11    5    7 1
    12    6   23 1
    13    9   10 1
    14   10   11 2
    15   10   12 2
    16   10   13 1
    17   13   18 ar
    18   13   14 ar
    19   14   15 ar
    20   14   24 1
    21   15   16 ar
    22   15   25 1
    23   16   17 ar
    24   16   20 1
    25   17   18 ar
    26   17   19 1
    27   18   26 1
    28   19   27 1
    29   19   28 1
@<TRIPOS>MOLECULE
ZINC37052747
   28    29     0     0     0
SMALL
USER_CHARGES

@<TRIPOS>ATOM
      1 C1         -0.0168    1.3843    0.0097 C.ar      1 <0>        -0.1320
      2 C2          1.1707    2.0902    0.0021 C.ar      1 <0>        -0.1316
      3 C3          2.3788    1.4144   -0.0131 C.ar      1 <0>         0.1438
      4 C4          2.4000    0.0297   -0.0212 C.ar      1 <0>        -0.6097
      5 C5          1.2154   -0.6800   -0.0141 C.ar      1 <0>        -0.0787
      6 C6          0.0021   -0.0041    0.0020 C.ar      1 <0>         0.1786
      7 N1         -1.1985   -0.7206    0.0101 N.pl3     1 <0>        -0.8794
      8 S1          3.9395   -0.8271   -0.0410 S.o2      1 <0>         2.6073
      9 O1          4.7400   -0.2476    0.9801 O.2       1 <0>        -1.0147
     10 O2          3.6320   -2.2141   -0.0730 O.2       1 <0>        -1.0231
     11 N2          4.6785   -0.4728   -1.4801 N.2       1 <0>        -1.0763
     12 C7          5.9300   -1.0195   -1.7760 C.ar      1 <0>         0.2978
     13 C8          6.5527   -1.8649   -0.8663 C.ar      1 <0>        -0.2521
     14 C9          7.7895   -2.4040   -1.1608 C.ar      1 <0>        -0.0400
     15 C10         8.4095   -2.1029   -2.3607 C.ar      1 <0>        -0.1330
     16 C11         7.7917   -1.2602   -3.2695 C.ar      1 <0>         0.0237
     17 C12         6.5506   -0.7232   -2.9823 C.ar      1 <0>        -0.1642
     18 Cl1         8.5730   -0.8838   -4.7733 Cl        1 <0>        -0.0831
     19 Cl2         9.9645   -2.7821   -2.7271 Cl        1 <0>        -0.0942
     20 F1          3.5389    2.1068   -0.0204 F         1 <0>        -0.1209
     21 H1         -0.9590    1.9119    0.0260 H         1 <0>         0.1319
     22 H2          1.1565    3.1701    0.0077 H         1 <0>         0.1393
     23 H3          1.2323   -1.7599   -0.0212 H         1 <0>         0.1455
     24 H4         -2.0455   -0.2478    0.0210 H         1 <0>         0.3971
     25 H5         -1.1846   -1.6905    0.0048 H         1 <0>         0.4000
     26 H6          6.0700   -2.1000    0.0708 H         1 <0>         0.1110
     27 H7          8.2737   -3.0612   -0.4536 H         1 <0>         0.1237
     28 H8          6.0667   -0.0699   -3.6932 H         1 <0>         0.1332
@<TRIPOS>BOND
     1    1    6 ar
     2    1    2 ar
     3    1   21 1
     4    2    3 ar
     5    2   22 1
     6    3    4 ar
     7    3   20 1
     8    4    5 ar
     9    4    8 1
    10    5    6 ar
    11    5   23 1
    12    6    7 1
    13    7   24 1
    14    7   25 1
    15    8    9 2
    16    8   10 2
    17    8   11 1
    18   11   12 1
    19   12   17 ar
    20   12   13 ar
    21   13   14 ar
    22   13   26 1
    23   14   15 ar
    24   14   27 1
    25   15   16 ar
    26   15   19 1
    27   16   17 ar
    28   16   18 1
    29   17   28 1
@<TRIPOS>MOLECULE
ZINC40229763
   28    29     0     0     0
SMALL
USER_CHARGES

@<TRIPOS>ATOM
      1 C1         -0.0167    1.3780    0.0096 C.ar      1 <0>        -0.0604
      2 C2          1.1689    2.0878    0.0021 C.ar      1 <0>        -0.1692
      3 C3          2.3819    1.4127   -0.0131 C.ar      1 <0>         0.2823
      4 C4          2.4005    0.0224   -0.0206 C.ar      1 <0>        -0.1013
      5 C5          1.2094   -0.6831   -0.0131 C.ar      1 <0>         0.1176
      6 C6          0.0021   -0.0041    0.0020 C.ar      1 <0>        -0.2372
      7 F1          1.2245   -2.0340   -0.0204 F         1 <0>        -0.1453
      8 F2          3.5787   -0.6386   -0.0358 F         1 <0>        -0.1343
      9 N1          3.5826    2.1295   -0.0211 N.2       1 <0>        -1.0775
     10 S1          5.0286    1.3226   -0.0392 S.o2      1 <0>         2.6174
     11 O1          5.1269    0.6374    1.2018 O.2       1 <0>        -1.0155
     12 O2          5.1027    0.6499   -1.2887 O.2       1 <0>        -1.0067
     13 C7          6.3038    2.5385   -0.0455 C.ar      1 <0>        -0.6066
     14 C8          7.1664    2.6396    1.0290 C.ar      1 <0>        -0.0732
     15 C9          8.1716    3.5975    1.0239 C.ar      1 <0>         0.1927
     16 C10         8.3079    4.4526   -0.0620 C.ar      1 <0>        -0.1292
     17 C11         7.4431    4.3484   -1.1348 C.ar      1 <0>        -0.0491
     18 C12         6.4439    3.3878   -1.1294 C.ar      1 <0>         0.1555
     19 F3          5.6024    3.2838   -2.1812 F         1 <0>        -0.1079
     20 Cl1         7.6119    5.4170   -2.4925 Cl        1 <0>        -0.0524
     21 N2          9.0451    3.7013    2.1107 N.pl3     1 <0>        -0.8739
     22 H1         -0.9597    1.9041    0.0259 H         1 <0>         0.1234
     23 H2          1.1519    3.1677    0.0077 H         1 <0>         0.1290
     24 H3         -0.9264   -0.5557    0.0082 H         1 <0>         0.1242
     25 H4          7.0587    1.9740    1.8727 H         1 <0>         0.1524
     26 H5          9.0889    5.1986   -0.0678 H         1 <0>         0.1426
     27 H6          8.9491    3.1040    2.8689 H         1 <0>         0.4033
     28 H7          9.7471    4.3707    2.1065 H         1 <0>         0.3993
@<TRIPOS>BOND
     1    1    6 ar
     2    1    2 ar
     3    1   22 1
     4    2    3 ar
     5    2   23 1
     6    3    4 ar
     7    3    9 1
     8    4    5 ar
     9    4    8 1
    10    5    6 ar
    11    5    7 1
    12    6   24 1
    13    9   10 1
    14   10   11 2
    15   10   12 2
    16   10   13 1
    17   13   18 ar
    18   13   14 ar
    19   14   15 ar
    20   14   25 1
    21   15   16 ar
    22   15   21 1
    23   16   17 ar
    24   16   26 1
    25   17   18 ar
    26   17   20 1
    27   18   19 1
    28   21   27 1
    29   21   28 1
@<TRIPOS>MOLECULE
ZINC42870458
   48    49     0     0     0
SMALL
USER_CHARGES

@<TRIPOS>ATOM
      1 C1         -0.0187    1.5258    0.0104 C.3       1 <0>        -0.1543
      2 C2          0.0021   -0.0041    0.0020 C.3       1 <0>        -0.0828
      3 H1          0.5123   -0.3556   -0.8948 H         1 <0>         0.0733
      4 C3         -1.4333   -0.5336    0.0129 C.3       1 <0>        -0.1128
      5 C4         -1.4126   -2.0635    0.0045 C.3       1 <0>        -0.1211
      6 C5         -0.6726   -2.5703    1.2440 C.3       1 <0>        -0.1194
      7 C6          0.7628   -2.0407    1.2331 C.3       1 <0>        -0.1155
      8 C7          0.7421   -0.5109    1.2415 C.3       1 <0>        -0.0928
      9 H2          0.2319   -0.1594    2.1383 H         1 <0>         0.0760
     10 C8          2.1775    0.0187    1.2307 C.3       1 <0>         0.1406
     11 N1          2.8495   -0.3667    2.4741 N.am      1 <0>        -0.7499
     12 C9          4.1308   -0.0068    2.6870 C.2       1 <0>         0.7011
     13 O1          4.7289    0.6376    1.8471 O.2       1 <0>        -0.5890
     14 N2          4.7491   -0.3613    3.8309 N.am      1 <0>        -0.7405
     15 C10         6.1419    0.0298    4.0623 C.3       1 <0>         0.1632
     16 C11         7.0740   -0.9951    3.4130 C.3       1 <0>        -0.1250
     17 C12         8.5286   -0.5867    3.6547 C.3       1 <0>        -0.0888
     18 C13         8.7996   -0.5321    5.1595 C.3       1 <0>        -0.1554
     19 C14         7.8675    0.4928    5.8088 C.3       1 <0>        -0.0879
     20 C15         6.4130    0.0843    5.5671 C.3       1 <0>        -0.1226
     21 C16        10.2323   -0.1298    5.3976 C.2       1 <0>         0.4945
     22 O2         10.5325    0.4891    6.4042 O.co2     1 <0>        -0.7019
     23 O3         11.0912   -0.4232    4.5835 O.co2     1 <0>        -0.7003
     24 H3          1.0039    1.9031    0.0027 H         1 <0>         0.0618
     25 H4         -0.5459    1.8868   -0.8726 H         1 <0>         0.0549
     26 H5         -0.5289    1.8773    0.9072 H         1 <0>         0.0545
     27 H6         -1.9435   -0.1821    0.9097 H         1 <0>         0.0616
     28 H7         -1.9605   -0.1726   -0.8702 H         1 <0>         0.0622
     29 H8         -2.4352   -2.4408    0.0122 H         1 <0>         0.0598
     30 H9         -0.9024   -2.4150   -0.8923 H         1 <0>         0.0616
     31 H10        -1.1828   -2.2188    2.1408 H         1 <0>         0.0608
     32 H11        -0.6578   -3.6602    1.2380 H         1 <0>         0.0610
     33 H12         1.2900   -2.4018    2.1162 H         1 <0>         0.0623
     34 H13         1.2730   -2.3923    0.3363 H         1 <0>         0.0650
     35 H14         2.7143   -0.4040    0.3814 H         1 <0>         0.0637
     36 H15         2.1632    1.1054    1.1471 H         1 <0>         0.0687
     37 H16         2.3724   -0.8807    3.1441 H         1 <0>         0.3925
     38 H17         4.2720   -0.8754    4.5009 H         1 <0>         0.3911
     39 H18         6.3209    1.0120    3.6250 H         1 <0>         0.0863
     40 H19         6.8950   -1.9774    3.8503 H         1 <0>         0.0551
     41 H20         6.8809   -1.0340    2.3410 H         1 <0>         0.0587
     42 H21         9.1927   -1.3168    3.1921 H         1 <0>         0.0672
     43 H22         8.7076    0.3956    3.2174 H         1 <0>         0.0550
     44 H23         8.6206   -1.5144    5.5968 H         1 <0>         0.0608
     45 H24         8.0606    0.5316    6.8809 H         1 <0>         0.0702
     46 H25         8.0465    1.4750    5.3716 H         1 <0>         0.0561
     47 H26         5.7489    0.8145    6.0297 H         1 <0>         0.0594
     48 H27         6.2339   -0.8980    6.0044 H         1 <0>         0.0608
@<TRIPOS>BOND
     1    1    2 1
     2    1   24 1
     3    1   25 1
     4    1   26 1
     5    2    3 1
     6    2    8 1
     7    2    4 1
     8    4    5 1
     9    4   27 1
    10    4   28 1
    11    5    6 1
    12    5   29 1
    13    5   30 1
    14    6    7 1
    15    6   31 1
    16    6   32 1
    17    7    8 1
    18    7   33 1
    19    7   34 1
    20    8    9 1
    21    8   10 1
    22   10   11 1
    23   10   35 1
    24   10   36 1
    25   11   12 am
    26   11   37 1
    27   12   13 2
    28   12   14 am
    29   14   15 1
    30   14   38 1
    31   15   20 1
    32   15   16 1
    33   15   39 1
    34   16   17 1
    35   16   40 1
    36   16   41 1
    37   17   18 1
    38   17   42 1
    39   17   43 1
    40   18   19 1
    41   18   21 1
    42   18   44 1
    43   19   20 1
    44   19   45 1
    45   19   46 1
    46   20   47 1
    47   20   48 1
    48   21   22 2
    49   21   23 1
@<TRIPOS>MOLECULE
ZINC47931914
   40    42     0     0     0
SMALL
USER_CHARGES

@<TRIPOS>ATOM
      1 C1         -0.0990    1.4876    0.0042 C.3       1 <0>        -0.1237
      2 C2         -0.0208   -0.0173    0.0026 C.ar      1 <0>        -0.0743
      3 C3         -0.0027   -0.7073   -1.1953 C.ar      1 <0>        -0.1171
      4 C4          0.0691   -2.0876   -1.1968 C.ar      1 <0>        -0.1183
      5 C5          0.1232   -2.7783   -0.0003 C.ar      1 <0>        -0.1198
      6 C6          0.1060   -2.0885    1.1973 C.ar      1 <0>        -0.1116
      7 C7          0.0386   -0.7075    1.1986 C.ar      1 <0>        -0.0896
      8 C8          0.0252    0.0449    2.5043 C.3       1 <0>         0.1789
      9 H1         -0.5846    0.9424    2.4002 H         1 <0>         0.1056
     10 C9          1.4548    0.4403    2.8797 C.3       1 <0>        -0.1576
     11 N1         -0.5370   -0.8085    3.5540 N.am      1 <0>        -0.7239
     12 C10        -1.1898   -0.2547    4.5950 C.2       1 <0>         0.5646
     13 O1         -1.3119    0.9524    4.6630 O.2       1 <0>        -0.5303
     14 C11        -1.7583   -1.1176    5.6564 C.ar      1 <0>        -0.0813
     15 C12        -1.6085   -2.5108    5.5744 C.ar      1 <0>        -0.1677
     16 C13        -2.1220   -3.3250    6.5373 C.ar      1 <0>        -0.0114
     17 C14        -2.8098   -2.7714    7.6266 C.ar      1 <0>        -0.2232
     18 C15        -2.9689   -1.3641    7.7225 C.ar      1 <0>         0.2150
     19 C16        -2.4279   -0.5418    6.7235 C.ar      1 <0>        -0.0716
     20 N2         -3.6287   -0.8508    8.7705 N.2       1 <0>        -0.5500
     21 C17        -4.1286   -1.6408    9.7084 C.2       1 <0>         0.5084
     22 N3         -4.0049   -2.9777    9.6643 N.pl3     1 <0>        -0.6013
     23 H2         -4.3871   -3.5171   10.3741 H         1 <0>         0.4205
     24 C18        -3.3561   -3.5812    8.6450 C.2       1 <0>         0.5040
     25 O2         -3.2331   -4.9193    8.6021 O.3       1 <0>        -0.6133
     26 S1         -4.9622   -0.9325   11.0252 S.2       1 <0>        -0.7105
     27 H3          0.9082    1.9038   -0.0155 H         1 <0>         0.0735
     28 H4         -0.6484    1.8238   -0.8751 H         1 <0>         0.0677
     29 H5         -0.6134    1.8238    0.9045 H         1 <0>         0.0735
     30 H6         -0.0450   -0.1678   -2.1299 H         1 <0>         0.1227
     31 H7          0.0825   -2.6266   -2.1325 H         1 <0>         0.1216
     32 H8          0.1785   -3.8569   -0.0014 H         1 <0>         0.1233
     33 H9          0.1480   -2.6280    2.1319 H         1 <0>         0.1201
     34 H10         1.8731    1.0753    2.0987 H         1 <0>         0.0670
     35 H11         1.4451    0.9846    3.8241 H         1 <0>         0.0674
     36 H12         2.0645   -0.4571    2.9838 H         1 <0>         0.0592
     37 H13        -0.4396   -1.7720    3.4997 H         1 <0>         0.4000
     38 H14        -1.0798   -2.9421    4.7372 H         1 <0>         0.1203
     39 H15        -2.0001   -4.3954    6.4620 H         1 <0>         0.1359
     40 H16        -2.5359    0.5311    6.7836 H         1 <0>         0.1474
@<TRIPOS>BOND
     1    1    2 1
     2    1   27 1
     3    1   28 1
     4    1   29 1
     5    2    7 ar
     6    2    3 ar
     7    3    4 ar
     8    3   30 1
     9    4    5 ar
    10    4   31 1
    11    5    6 ar
    12    5   32 1
    13    6    7 ar
    14    6   33 1
    15    7    8 1
    16    8    9 1
    17    8   10 1
    18    8   11 1
    19   10   34 1
    20   10   35 1
    21   10   36 1
    22   11   12 am
    23   11   37 1
    24   12   13 2
    25   12   14 1
    26   14   19 ar
    27   14   15 ar
    28   15   16 ar
    29   15   38 1
    30   16   17 ar
    31   16   39 1
    32   17   24 2
    33   17   18 ar
    34   18   19 ar
    35   18   20 2
    36   19   40 1
    37   20   21 1
    38   21   22 1
    39   21   26 2
    40   22   23 1
    41   22   24 1
    42   24   25 1
@<TRIPOS>MOLECULE
ZINC19152733
   33    34     0     0     0
SMALL
USER_CHARGES

@<TRIPOS>ATOM
      1 C1          5.5184   -1.1122    4.1830 C.3       1 <0>        -0.1021
      2 C2          4.7443   -2.3021    3.6772 C.2       1 <0>        -0.0399
      3 C3          5.1757   -2.9872    2.6080 C.2       1 <0>        -0.1968
      4 S1          3.9499   -4.2670    2.4138 S.3       1 <0>         0.0995
      5 C4          2.8928   -3.8448    3.7751 C.2       1 <0>         0.1609
      6 C5          3.5254   -2.7239    4.3458 C.2       1 <0>        -0.3001
      7 C6          2.8802   -2.1610    5.4916 C.2       1 <0>         0.5643
      8 O1          3.3531   -1.1858    6.0496 O.2       1 <0>        -0.5462
      9 N1          1.7441   -2.7215    5.9454 N.am      1 <0>        -0.6275
     10 H1          1.3037   -2.3426    6.7222 H         1 <0>         0.4174
     11 C7          1.1993   -3.8135    5.3327 C.2       1 <0>         0.3466
     12 N2          1.7682   -4.3466    4.2698 N.2       1 <0>        -0.4968
     13 S2         -0.2899   -4.5121    5.9641 S.3       1 <0>         0.1412
     14 C8         -0.5792   -5.9074    4.9277 C.2       1 <0>        -0.5326
     15 C9         -1.6597   -5.9144    4.0615 C.2       1 <0>         0.4126
     16 O2         -2.4337   -4.9668    4.0411 O.3       1 <0>        -0.5683
     17 C10        -1.8823   -7.0891    3.1441 C.3       1 <0>        -0.1565
     18 C11         0.2740   -6.9970    4.9794 C.2       1 <0>         0.4168
     19 O3          0.0237   -8.0015    4.3268 O.2       1 <0>        -0.5593
     20 C12         1.5106   -6.9457    5.8391 C.3       1 <0>        -0.1888
     21 C13         6.4032   -2.7354    1.7708 C.3       1 <0>        -0.0573
     22 H2          6.2540   -1.4424    4.9165 H         1 <0>         0.0666
     23 H3          6.0281   -0.6292    3.3493 H         1 <0>         0.0609
     24 H4          4.8331   -0.4043    4.6491 H         1 <0>         0.0807
     25 H5         -0.9727   -7.2840    2.5761 H         1 <0>         0.0776
     26 H6         -2.1370   -7.9687    3.7353 H         1 <0>         0.0762
     27 H7         -2.6983   -6.8642    2.4573 H         1 <0>         0.0409
     28 H8          1.6172   -5.9471    6.2629 H         1 <0>         0.0591
     29 H9          1.4236   -7.6749    6.6446 H         1 <0>         0.0674
     30 H10         2.3853   -7.1779    5.2317 H         1 <0>         0.0651
     31 H11         7.2451   -3.2909    2.1840 H         1 <0>         0.0724
     32 H12         6.2187   -3.0631    0.7477 H         1 <0>         0.0693
     33 H13         6.6336   -1.6700    1.7751 H         1 <0>         0.0769
@<TRIPOS>BOND
     1    1    2 1
     2    1   22 1
     3    1   23 1
     4    1   24 1
     5    2    6 1
     6    2    3 2
     7    3    4 1
     8    3   21 1
     9    4    5 1
    10    5   12 1
    11    5    6 2
    12    6    7 1
    13    7    8 2
    14    7    9 am
    15    9   10 1
    16    9   11 1
    17   11   12 2
    18   11   13 1
    19   13   14 1
    20   14   15 2
    21   14   18 1
    22   15   17 1
    23   15   16 1
    24   17   25 1
    25   17   26 1
    26   17   27 1
    27   18   20 1
    28   18   19 2
    29   20   28 1
    30   20   29 1
    31   20   30 1
    32   21   31 1
    33   21   32 1
    34   21   33 1
@<TRIPOS>MOLECULE
ZINC50006932
   36    37     0     0     0
SMALL
USER_CHARGES

@<TRIPOS>ATOM
      1 C1         -0.0184    1.5028    0.0103 C.3       1 <0>        -0.0567
      2 C2          0.0021   -0.0041    0.0020 C.2       1 <0>        -0.1965
      3 C3         -1.0421   -0.8718    0.0018 C.2       1 <0>        -0.1400
      4 C4         -0.7893   -2.2262   -0.0067 C.2       1 <0>        -0.1823
      5 C5          0.5116   -2.6529   -0.0146 C.2       1 <0>         0.0151
      6 S1          1.4054   -1.1073   -0.0179 S.3       1 <0>         0.0532
      7 C6          1.0389   -4.0341   -0.0236 C.2       1 <0>         0.1865
      8 N1          2.3369   -4.3747   -0.0311 N.2       1 <0>        -0.6187
      9 C7          2.4503   -5.6832   -0.0380 C.2       1 <0>         0.3474
     10 N2          1.2083   -6.2128   -0.0350 N.2       1 <0>        -0.3756
     11 N3          0.3127   -5.1315   -0.0200 N.2       1 <0>        -0.3644
     12 N4          3.6401   -6.3974   -0.0472 N.am      1 <0>        -0.6222
     13 C8          3.6172   -7.7450   -0.0536 C.2       1 <0>         0.5014
     14 O1          2.5568   -8.3334   -0.0513 O.2       1 <0>        -0.4837
     15 C9          4.9092   -8.5206   -0.0636 C.3       1 <0>        -0.1264
     16 C10         4.6041  -10.0198   -0.0694 C.3       1 <0>        -0.0497
     17 C11         3.7896  -10.3697   -1.3164 C.3       1 <0>        -0.1544
     18 C12         5.9159  -10.8072   -0.0795 C.3       1 <0>        -0.1398
     19 C13         3.8017  -10.3817    1.1821 C.3       1 <0>        -0.1543
     20 H1          1.0042    1.8801    0.0026 H         1 <0>         0.0654
     21 H2         -0.5455    1.8639   -0.8728 H         1 <0>         0.0703
     22 H3         -0.5286    1.8543    0.9071 H         1 <0>         0.0704
     23 H4         -2.0579   -0.5051    0.0085 H         1 <0>         0.1233
     24 H5         -1.6018   -2.9377   -0.0067 H         1 <0>         0.1333
     25 H6          4.4883   -5.9268   -0.0490 H         1 <0>         0.4037
     26 H7          5.4809   -8.2627   -0.9551 H         1 <0>         0.0886
     27 H8          5.4895   -8.2713    0.8248 H         1 <0>         0.0886
     28 H9          4.3612  -10.1118   -2.2079 H         1 <0>         0.0431
     29 H10         3.5722  -11.4378   -1.3205 H         1 <0>         0.0472
     30 H11         2.8550   -9.8087   -1.3091 H         1 <0>         0.0888
     31 H12         6.4961  -10.5580    0.8089 H         1 <0>         0.0523
     32 H13         5.6985  -11.8753   -0.0836 H         1 <0>         0.0550
     33 H14         6.4875  -10.5494   -0.9711 H         1 <0>         0.0523
     34 H15         2.8671   -9.8208    1.1893 H         1 <0>         0.0888
     35 H16         3.5843  -11.4498    1.1780 H         1 <0>         0.0472
     36 H17         4.3820  -10.1325    2.0704 H         1 <0>         0.0432
@<TRIPOS>BOND
     1    1    2 1
     2    1   20 1
     3    1   21 1
     4    1   22 1
     5    2    6 1
     6    2    3 2
     7    3    4 1
     8    3   23 1
     9    4    5 2
    10    4   24 1
    11    5    6 1
    12    5    7 1
    13    7    8 1
    14    7   11 2
    15    8    9 2
    16    9   12 1
    17    9   10 1
    18   10   11 1
    19   12   13 am
    20   12   25 1
    21   13   14 2
    22   13   15 1
    23   15   16 1
    24   15   26 1
    25   15   27 1
    26   16   17 1
    27   16   18 1
    28   16   19 1
    29   17   28 1
    30   17   29 1
    31   17   30 1
    32   18   31 1
    33   18   32 1
    34   18   33 1
    35   19   34 1
    36   19   35 1
    37   19   36 1
@<TRIPOS>MOLECULE
ZINC54700306
   33    35     0     0     0
SMALL
USER_CHARGES

@<TRIPOS>ATOM
      1 C1         -0.0163    1.3534    0.0095 C.2       1 <0>        -0.1522
      2 C2          1.1777    2.0410    0.0018 C.2       1 <0>        -0.1422
      3 C3          2.3469    1.3292   -0.0132 C.2       1 <0>        -0.0456
      4 S1          1.7525   -0.3543   -0.0166 S.3       1 <0>         0.0997
      5 C4          0.0021   -0.0041    0.0020 C.2       1 <0>        -0.1948
      6 C5          3.7397    1.8255   -0.0243 C.2       1 <0>         0.2676
      7 N1          4.1043    3.0908   -0.0157 N.2       1 <0>        -0.3072
      8 H1          6.0799    3.8899   -0.0304 H         1 <0>         0.4518
      9 N2          5.5084    3.1062   -0.0317 N.pl3     1 <0>        -0.3968
     10 C6          5.9056    1.8212   -0.0493 C.2       1 <0>         0.3238
     11 N3          4.8422    1.0618   -0.0389 N.2       1 <0>        -0.5525
     12 C7          7.3334    1.3395   -0.0711 C.3       1 <0>         0.0148
     13 H2          7.3849    0.3365    0.3526 H         1 <0>         0.0904
     14 C8          8.2042    2.2877    0.7556 C.3       1 <0>        -0.1203
     15 C9          9.6538    1.7986    0.7334 C.3       1 <0>        -0.1106
     16 C10        10.1601    1.7691   -0.7100 C.3       1 <0>        -0.1209
     17 C11         9.2892    0.8208   -1.5367 C.3       1 <0>        -0.0879
     18 C12         7.8397    1.3099   -1.5146 C.3       1 <0>        -0.1552
     19 H3          7.2193    0.6343   -2.1035 H         1 <0>         0.0702
     20 C13         7.7684    2.6965   -2.1004 C.2       1 <0>         0.5068
     21 O1          8.5661    3.0383   -2.9567 O.co2     1 <0>        -0.6833
     22 O2          6.9130    3.4767   -1.7180 O.co2     1 <0>        -0.7055
     23 H4         -0.9549    1.8875    0.0258 H         1 <0>         0.1333
     24 H5          1.1909    3.1209    0.0071 H         1 <0>         0.1387
     25 H6         -0.8285   -0.6944    0.0062 H         1 <0>         0.1851
     26 H7          8.1527    3.2907    0.3318 H         1 <0>         0.0766
     27 H8          7.8435    2.3088    1.7839 H         1 <0>         0.0572
     28 H9         10.2742    2.4742    1.3223 H         1 <0>         0.0584
     29 H10         9.7053    0.7957    1.1572 H         1 <0>         0.0579
     30 H11        10.1085    2.7720   -1.1338 H         1 <0>         0.0763
     31 H12        11.1928    1.4206   -0.7258 H         1 <0>         0.0521
     32 H13         9.6500    0.7998   -2.5650 H         1 <0>         0.0680
     33 H14         9.3408   -0.1821   -1.1129 H         1 <0>         0.0463
@<TRIPOS>BOND
     1    1    5 2
     2    1    2 1
     3    1   23 1
     4    2    3 2
     5    2   24 1
     6    3    4 1
     7    3    6 1
     8    4    5 1
     9    5   25 1
    10    6   11 1
    11    6    7 2
    12    7    9 1
    13    8    9 1
    14    9   10 1
    15   10   12 1
    16   10   11 2
    17   12   13 1
    18   12   18 1
    19   12   14 1
    20   14   15 1
    21   14   26 1
    22   14   27 1
    23   15   16 1
    24   15   28 1
    25   15   29 1
    26   16   17 1
    27   16   30 1
    28   16   31 1
    29   17   18 1
    30   17   32 1
    31   17   33 1
    32   18   19 1
    33   18   20 1
    34   20   21 2
    35   20   22 1
@<TRIPOS>MOLECULE
ZINC62826164
   40    42     0     0     0
SMALL
USER_CHARGES

@<TRIPOS>ATOM
      1 C1          0.2435    1.4977    0.1130 C.3       1 <0>        -0.1039
      2 C2          0.0919    0.0022    0.0051 C.ar      1 <0>        -0.1132
      3 C3          1.0883   -0.8288    0.4933 C.ar      1 <0>        -0.1177
      4 C4          0.9627   -2.1999    0.4012 C.ar      1 <0>        -0.0907
      5 C5         -0.1668   -2.7578   -0.1832 C.ar      1 <0>         0.1797
      6 C6         -1.1786   -1.9193   -0.6786 C.ar      1 <0>        -0.1425
      7 C7         -1.0384   -0.5316   -0.5728 C.ar      1 <0>        -0.0805
      8 C8         -2.3804   -2.4968   -1.3006 C.2       1 <0>         0.5237
      9 O1         -3.2135   -1.7650   -1.8175 O.co2     1 <0>        -0.6876
     10 O2         -2.5466   -3.7090   -1.3010 O.co2     1 <0>        -0.6829
     11 N1         -0.2950   -4.1400   -0.2780 N.am      1 <0>        -0.6537
     12 C9         -0.2519   -4.8987    0.8352 C.2       1 <0>         0.7306
     13 O3         -0.0008   -4.3879    1.9095 O.2       1 <0>        -0.5921
     14 N2         -0.4872   -6.2234    0.7574 N.am      1 <0>        -0.6352
     15 C10        -0.7983   -6.9940   -0.4647 C.3       1 <0>         0.1034
     16 C11        -0.9536   -8.4722    0.0106 C.3       1 <0>        -0.1085
     17 H1         -0.8366   -9.2421   -0.7520 H         1 <0>         0.1116
     18 C12        -2.3017   -8.4747    0.7972 C.3       1 <0>        -0.1198
     19 C13        -2.0130   -7.6064    2.0441 C.3       1 <0>        -0.1368
     20 C14        -0.4780   -7.1973    1.8868 C.3       1 <0>         0.1474
     21 H2          0.0352   -6.8684    2.7905 H         1 <0>         0.1167
     22 C15         0.0900   -8.4763    1.1855 C.3       1 <0>        -0.1356
     23 C16         2.0529   -3.0930    0.9351 C.3       1 <0>        -0.0917
     24 H3         -0.1803    1.8386    1.0576 H         1 <0>         0.0624
     25 H4          1.3009    1.7594    0.0737 H         1 <0>         0.0584
     26 H5         -0.2803    1.9766   -0.7142 H         1 <0>         0.0622
     27 H6          1.9690   -0.4002    0.9484 H         1 <0>         0.1143
     28 H7         -1.8134    0.1204   -0.9478 H         1 <0>         0.1267
     29 H8         -0.4154   -4.5577   -1.1451 H         1 <0>         0.4078
     30 H9         -1.7288   -6.6399   -0.9082 H         1 <0>         0.0810
     31 H10         0.0186   -6.9115   -1.1817 H         1 <0>         0.0585
     32 H11        -3.0947   -8.0288    0.1969 H         1 <0>         0.0707
     33 H12        -2.5695   -9.4893    1.0923 H         1 <0>         0.0639
     34 H13        -2.6540   -6.7248    2.0506 H         1 <0>         0.0720
     35 H14        -2.1558   -8.1885    2.9545 H         1 <0>         0.0674
     36 H15         0.0017   -9.3642    1.8116 H         1 <0>         0.0828
     37 H16         1.1100   -8.3288    0.8307 H         1 <0>         0.0745
     38 H17         1.9196   -3.2271    2.0085 H         1 <0>         0.0764
     39 H18         2.0040   -4.0623    0.4390 H         1 <0>         0.0512
     40 H19         3.0236   -2.6355    0.7438 H         1 <0>         0.0488
@<TRIPOS>BOND
     1    1    2 1
     2    1   24 1
     3    1   25 1
     4    1   26 1
     5    2    7 ar
     6    2    3 ar
     7    3    4 ar
     8    3   27 1
     9    4    5 ar
    10    4   23 1
    11    5    6 ar
    12    5   11 1
    13    6    7 ar
    14    6    8 1
    15    7   28 1
    16    8    9 2
    17    8   10 1
    18   11   12 am
    19   11   29 1
    20   12   13 2
    21   12   14 am
    22   14   20 1
    23   14   15 1
    24   15   16 1
    25   15   30 1
    26   15   31 1
    27   16   17 1
    28   16   22 1
    29   16   18 1
    30   18   19 1
    31   18   32 1
    32   18   33 1
    33   19   20 1
    34   19   34 1
    35   19   35 1
    36   20   21 1
    37   20   22 1
    38   22   36 1
    39   22   37 1
    40   23   38 1
    41   23   39 1
    42   23   40 1
@<TRIPOS>MOLECULE
ZINC62876802
   39    40     0     0     0
SMALL
USER_CHARGES

@<TRIPOS>ATOM
      1 C1         -0.0148    1.5221    0.0070 C.3       1 <0>        -0.1566
      2 C2          0.0004   -0.0078    0.0011 C.3       1 <0>         0.2171
      3 H1         -1.0235   -0.3814    0.0111 H         1 <0>         0.0938
      4 C3          0.7019   -0.4984   -1.2392 C.2       1 <0>        -0.1217
      5 C4         -0.0257   -0.9254   -2.3342 C.2       1 <0>        -0.1462
      6 C5          0.6362   -1.3607   -3.4340 C.2       1 <0>        -0.1704
      7 S1          2.3408   -1.1734   -2.9375 S.3       1 <0>         0.0322
      8 C6          2.0558   -0.5223   -1.2997 C.2       1 <0>        -0.1693
      9 N1          0.7092   -0.4937    1.1875 N.am      1 <0>        -0.7463
     10 C7          0.0512   -0.6335    2.3554 C.2       1 <0>         0.7069
     11 O1         -1.1059   -0.2717    2.4484 O.2       1 <0>        -0.5875
     12 N2          0.6758   -1.1742    3.4203 N.am      1 <0>        -0.6194
     13 C8          2.1061   -1.5051    3.3608 C.3       1 <0>         0.1161
     14 C9          2.8170   -0.8336    4.5400 C.3       1 <0>        -0.1380
     15 C10         2.1307   -1.2440    5.8449 C.3       1 <0>        -0.0874
     16 C11         0.6745   -0.7734    5.8273 C.3       1 <0>        -0.1435
     17 C12        -0.0592   -1.4385    4.6647 C.3       1 <0>         0.1553
     18 C13         0.6309    0.7458    5.6515 C.3       1 <0>        -0.1084
     19 C14         0.0087   -1.1495    7.1258 C.2       1 <0>         0.5050
     20 O2         -0.8938   -0.4605    7.5701 O.co2     1 <0>        -0.6910
     21 O3          0.3725   -2.1427    7.7322 O.co2     1 <0>        -0.6957
     22 H2          1.0091    1.8957   -0.0031 H         1 <0>         0.0550
     23 H3         -0.5422    1.8836   -0.8758 H         1 <0>         0.0629
     24 H4         -0.5222    1.8770    0.9040 H         1 <0>         0.0698
     25 H5         -1.1054   -0.9127   -2.3135 H         1 <0>         0.1372
     26 H6          0.2362   -1.7263   -4.3682 H         1 <0>         0.1864
     27 H7          2.7754   -0.2256   -0.5511 H         1 <0>         0.1830
     28 H8          1.6520   -0.7148    1.1326 H         1 <0>         0.3909
     29 H9          2.2342   -2.5857    3.4242 H         1 <0>         0.0671
     30 H10         2.5271   -1.1395    2.4242 H         1 <0>         0.0645
     31 H11         3.8603   -1.1485    4.5630 H         1 <0>         0.0663
     32 H12         2.7657    0.2493    4.4269 H         1 <0>         0.0658
     33 H13         2.1605   -2.3289    5.9453 H         1 <0>         0.0665
     34 H14         2.6498   -0.7871    6.6875 H         1 <0>         0.0566
     35 H15        -1.0665   -1.0291    4.5881 H         1 <0>         0.0908
     36 H16        -0.1117   -2.5136    4.8368 H         1 <0>         0.0617
     37 H17         1.1114    1.0168    4.7114 H         1 <0>         0.0341
     38 H18        -0.4064    1.0805    5.6390 H         1 <0>         0.0557
     39 H19         1.1566    1.2226    6.4789 H         1 <0>         0.0408
@<TRIPOS>BOND
     1    1    2 1
     2    1   22 1
     3    1   23 1
     4    1   24 1
     5    2    3 1
     6    2    4 1
     7    2    9 1
     8    4    8 2
     9    4    5 1
    10    5    6 2
    11    5   25 1
    12    6    7 1
    13    6   26 1
    14    7    8 1
    15    8   27 1
    16    9   10 am
    17    9   28 1
    18   10   11 2
    19   10   12 am
    20   12   17 1
    21   12   13 1
    22   13   14 1
    23   13   29 1
    24   13   30 1
    25   14   15 1
    26   14   31 1
    27   14   32 1
    28   15   16 1
    29   15   33 1
    30   15   34 1
    31   16   17 1
    32   16   18 1
    33   16   19 1
    34   17   35 1
    35   17   36 1
    36   18   37 1
    37   18   38 1
    38   18   39 1
    39   19   20 2
    40   19   21 1
@<TRIPOS>MOLECULE
ZINC13009613
   49    52     0     0     0
SMALL
USER_CHARGES
N-[4-[[6-(3-methylpyrazol-1-yl)pyridazin-3-yl]amino]phenyl]cyclopentanecarboxamide
@<TRIPOS>ATOM
      1 C1          5.6908   10.9430    7.2117 C.3       1 <0>        -0.0755
      2 C2          4.8158   11.0380    5.9884 C.2       1 <0>         0.0934
      3 C3          4.3740   12.2219    5.3876 C.2       1 <0>        -0.2590
      4 C4          3.6139   11.8892    4.3188 C.2       1 <0>         0.0809
      5 N1          3.5767   10.5336    4.2468 N.pl3     1 <0>        -0.3212
      6 N2          4.3353   10.0274    5.3103 N.2       1 <0>        -0.2878
      7 C5          2.8967    9.7770    3.2853 C.ar      1 <0>         0.2768
      8 C6          2.9437    8.3839    3.3313 C.ar      1 <0>        -0.0738
      9 C7          2.2506    7.6784    2.3631 C.ar      1 <0>        -0.1468
     10 C8          1.5571    8.4055    1.3944 C.ar      1 <0>         0.3232
     11 N3          1.5695    9.7291    1.4304 N.ar      1 <0>        -0.2638
     12 N4          2.2083   10.3819    2.3320 N.ar      1 <0>        -0.2222
     13 N5          0.8496    7.7409    0.3964 N.pl3     1 <0>        -0.6502
     14 C9          0.9681    6.3532    0.2605 C.ar      1 <0>         0.1448
     15 C10         2.2101    5.7457    0.3938 C.ar      1 <0>        -0.1344
     16 C11         2.3267    4.3767    0.2601 C.ar      1 <0>        -0.0917
     17 C12         1.2024    3.6068   -0.0073 C.ar      1 <0>         0.1303
     18 C13        -0.0385    4.2145   -0.1462 C.ar      1 <0>        -0.1151
     19 C14        -0.1564    5.5830   -0.0074 C.ar      1 <0>        -0.1202
     20 N6          1.3208    2.2172   -0.1425 N.am      1 <0>        -0.6735
     21 C15         2.2036    1.5390    0.6173 C.2       1 <0>         0.5201
     22 O1          2.9470    2.1389    1.3649 O.2       1 <0>        -0.5164
     23 C16         2.2628    0.0350    0.5427 C.3       1 <0>        -0.1122
     24 C17         0.9233   -0.5704    1.0107 C.3       1 <0>        -0.1161
     25 C18         1.3334   -1.8502    1.7807 C.3       1 <0>        -0.1246
     26 C19         2.6240   -1.4088    2.5147 C.3       1 <0>        -0.1256
     27 C20         3.3441   -0.4980    1.4990 C.3       1 <0>        -0.1203
     28 H1          5.0657   10.9113    8.1040 H         1 <0>         0.0823
     29 H2          6.2934   10.0363    7.1578 H         1 <0>         0.0762
     30 H3          6.3463   11.8126    7.2579 H         1 <0>         0.0831
     31 H4          4.5998   13.2247    5.7188 H         1 <0>         0.1589
     32 H5          3.1254   12.5772    3.6447 H         1 <0>         0.1851
     33 H6          3.5003    7.8711    4.1017 H         1 <0>         0.1647
     34 H7          2.2501    6.5984    2.3548 H         1 <0>         0.1653
     35 H8          0.2745    8.2397   -0.2047 H         1 <0>         0.4218
     36 H9          3.0845    6.3444    0.6024 H         1 <0>         0.1311
     37 H10         3.2924    3.9043    0.3638 H         1 <0>         0.1446
     38 H11        -0.9120    3.6161   -0.3589 H         1 <0>         0.1335
     39 H12        -1.1222    6.0551   -0.1112 H         1 <0>         0.1345
     40 H13         0.7675    1.7433   -0.7829 H         1 <0>         0.4126
     41 H14         2.4793   -0.2796   -0.4782 H         1 <0>         0.1027
     42 H15         0.4020    0.1219    1.6716 H         1 <0>         0.0706
     43 H16         0.2994   -0.8243    0.1537 H         1 <0>         0.0750
     44 H17         1.5422   -2.6668    1.0895 H         1 <0>         0.0714
     45 H18         0.5611   -2.1354    2.4951 H         1 <0>         0.0707
     46 H19         3.2410   -2.2744    2.7554 H         1 <0>         0.0694
     47 H20         2.3772   -0.8518    3.4186 H         1 <0>         0.0670
     48 H21         4.0848   -1.0721    0.9423 H         1 <0>         0.0704
     49 H22         3.8260    0.3312    2.0170 H         1 <0>         0.0902
@<TRIPOS>BOND
     1    1    2 1
     2    1   28 1
     3    1   29 1
     4    1   30 1
     5    2    6 2
     6    2    3 1
     7    3    4 2
     8    3   31 1
     9    4    5 1
    10    4   32 1
    11    5    6 1
    12    5    7 1
    13    7   12 ar
    14    7    8 ar
    15    8    9 ar
    16    8   33 1
    17    9   10 ar
    18    9   34 1
    19   10   11 ar
    20   10   13 1
    21   11   12 ar
    22   13   14 1
    23   13   35 1
    24   14   19 ar
    25   14   15 ar
    26   15   16 ar
    27   15   36 1
    28   16   17 ar
    29   16   37 1
    30   17   18 ar
    31   17   20 1
    32   18   19 ar
    33   18   38 1
    34   19   39 1
    35   20   21 am
    36   20   40 1
    37   21   22 2
    38   21   23 1
    39   23   27 1
    40   23   24 1
    41   23   41 1
    42   24   25 1
    43   24   42 1
    44   24   43 1
    45   25   26 1
    46   25   44 1
    47   25   45 1
    48   26   27 1
    49   26   46 1
    50   26   47 1
    51   27   48 1
    52   27   49 1
@<TRIPOS>MOLECULE
ZINC31705845
   41    43     0     0     0
SMALL
USER_CHARGES
3-[(5-tert-butyl-1,2,4-oxadiazol-3-yl)methylsulfanyl]-5-(2,5-dichlorophenyl)-1,2,4-triazol-4-amine
@<TRIPOS>ATOM
      1 C1          3.4527    1.3722   -1.0727 C.3       1 <0>        -0.1443
      2 C2          2.7367    2.0062    0.1215 C.3       1 <0>         0.0294
      3 C3          2.9032    3.5262    0.0678 C.3       1 <0>        -0.1549
      4 C4          3.3421    1.4725    1.4213 C.3       1 <0>        -0.1447
      5 C5          1.2710    1.6593    0.0704 C.2       1 <0>         0.1970
      6 N1          0.7521    0.4553    0.0958 N.2       1 <0>        -0.4648
      7 C6         -0.5793    0.6335    0.0301 C.2       1 <0>         0.1731
      8 N2         -0.7982    1.9130   -0.0308 N.2       1 <0>        -0.3625
      9 O1          0.2517    2.5200   -0.0089 O.3       1 <0>         0.0917
     10 C7         -1.6253   -0.4514    0.0275 C.3       1 <0>        -0.0152
     11 S1         -1.9685   -0.9545   -1.6769 S.3       1 <0>         0.0369
     12 C8         -3.1876   -2.1940   -1.3905 C.2       1 <0>         0.1338
     13 N3         -3.6483   -2.5790   -0.2213 N.2       1 <0>        -0.2734
     14 N4         -4.5312   -3.4998   -0.3763 N.2       1 <0>        -0.2285
     15 C9         -4.6817   -3.7660   -1.6529 C.2       1 <0>         0.1899
     16 N5         -3.8258   -2.9379   -2.3417 N.pl3     1 <0>        -0.2018
     17 N6         -3.6504   -2.8734   -3.6948 N.3       1 <0>        -0.7620
     18 C10        -5.5985   -4.7663   -2.2396 C.ar      1 <0>         0.0078
     19 C11        -5.1391   -5.6489   -3.2184 C.ar      1 <0>        -0.0888
     20 C12        -6.0005   -6.5806   -3.7624 C.ar      1 <0>        -0.0302
     21 C13        -7.3178   -6.6406   -3.3388 C.ar      1 <0>        -0.0817
     22 C14        -7.7793   -5.7690   -2.3694 C.ar      1 <0>        -0.0928
     23 C15        -6.9265   -4.8360   -1.8129 C.ar      1 <0>         0.0011
     24 Cl1        -7.5057   -3.7479   -0.5905 Cl        1 <0>        -0.0281
     25 Cl2        -5.4314   -7.6790   -4.9803 Cl        1 <0>        -0.0480
     26 H1          3.3330    0.2794   -1.0341 H         1 <0>         0.0721
     27 H2          4.5225    1.6254   -1.0354 H         1 <0>         0.0802
     28 H3          3.0174    1.7560   -2.0072 H         1 <0>         0.0624
     29 H4          2.3884    3.9820    0.9264 H         1 <0>         0.0684
     30 H5          2.4679    3.9099   -0.8667 H         1 <0>         0.0681
     31 H6          3.9730    3.7794    0.1051 H         1 <0>         0.0801
     32 H7          2.8273    1.9284    2.2799 H         1 <0>         0.0630
     33 H8          4.4119    1.7257    1.4586 H         1 <0>         0.0802
     34 H9          3.2224    0.3797    1.4599 H         1 <0>         0.0721
     35 H10        -1.2574   -1.3168    0.5982 H         1 <0>         0.1346
     36 H11        -2.5481   -0.0722    0.4908 H         1 <0>         0.1296
     37 H12        -4.2311   -3.5327   -4.3567 H         1 <0>         0.4487
     38 H13        -2.9284   -2.1622   -4.1225 H         1 <0>         0.4510
     39 H14        -4.1123   -5.6029   -3.5498 H         1 <0>         0.1449
     40 H15        -7.9874   -7.3716   -3.7673 H         1 <0>         0.1512
     41 H16        -8.8076   -5.8210   -2.0435 H         1 <0>         0.1541
@<TRIPOS>BOND
     1    1    2 1
     2    1   26 1
     3    1   27 1
     4    1   28 1
     5    2    3 1
     6    2    4 1
     7    2    5 1
     8    3   29 1
     9    3   30 1
    10    3   31 1
    11    4   32 1
    12    4   33 1
    13    4   34 1
    14    5    9 1
    15    5    6 2
    16    6    7 1
    17    7    8 2
    18    7   10 1
    19    8    9 1
    20   10   11 1
    21   10   35 1
    22   10   36 1
    23   11   12 1
    24   12   16 1
    25   12   13 2
    26   13   14 1
    27   14   15 2
    28   15   16 1
    29   15   18 1
    30   16   17 1
    31   17   37 1
    32   17   38 1
    33   18   23 ar
    34   18   19 ar
    35   19   20 ar
    36   19   39 1
    37   20   21 ar
    38   20   25 1
    39   21   22 ar
    40   21   40 1
    41   22   23 ar
    42   22   41 1
    43   23   24 1
@<TRIPOS>MOLECULE
ZINC40648199
   39    41     0     0     0
SMALL
USER_CHARGES

@<TRIPOS>ATOM
      1 C1          0.0942    1.2246   -1.1600 C.ar      1 <0>        -0.0921
      2 C2          1.1380    2.0248   -0.7327 C.ar      1 <0>        -0.1190
      3 C3          2.2152    1.4662   -0.0699 C.ar      1 <0>        -0.0880
      4 C4          2.2517    0.1052    0.1681 C.ar      1 <0>        -0.0666
      5 C5          1.2038   -0.7014   -0.2599 C.ar      1 <0>         0.1576
      6 C6          0.1239   -0.1362   -0.9256 C.ar      1 <0>        -0.1049
      7 N1          1.2372   -2.0790   -0.0214 N.pl3     1 <0>        -0.6382
      8 C7          0.0527   -2.7923    0.0912 C.ar      1 <0>         0.5135
      9 C8          0.0714   -4.1801    0.1943 C.ar      1 <0>        -0.2717
     10 C9         -1.1437   -4.8490    0.3056 C.ar      1 <0>         0.5191
     11 N2         -2.2726   -4.1421    0.3095 N.ar      1 <0>        -0.5827
     12 C10        -2.2484   -2.8288    0.2099 C.ar      1 <0>         0.4102
     13 N3         -1.1186   -2.1587    0.1079 N.ar      1 <0>        -0.5810
     14 N4         -1.1787   -6.2309    0.4105 N.pl3     1 <0>        -0.6940
     15 C11        -2.4640   -6.9242    0.5272 C.3       1 <0>         0.1713
     16 C12        -2.2265   -8.4091    0.6260 C.ar      1 <0>        -0.1353
     17 C13        -2.1723   -9.1778   -0.5218 C.ar      1 <0>        -0.0659
     18 C14        -1.9541  -10.5395   -0.4325 C.ar      1 <0>        -0.1551
     19 C15        -1.7898  -11.1339    0.8072 C.ar      1 <0>         0.1150
     20 C16        -1.8443  -10.3630    1.9561 C.ar      1 <0>        -0.1551
     21 C17        -2.0574   -9.0007    1.8640 C.ar      1 <0>        -0.0659
     22 F1         -1.5770  -12.4651    0.8958 F         1 <0>        -0.1342
     23 N5          1.3504   -4.9252    0.1852 N.pl3     1 <0>         0.0325
     24 O1          1.9256   -5.1513    1.2242 O.2       1 <0>        -0.1349
     25 O2          1.8198   -5.3076   -0.8613 O.3       1 <0>        -0.1328
     26 Cl1         3.6046   -0.5960    0.9997 Cl        1 <0>        -0.0606
     27 H1         -0.7476    1.6650   -1.6738 H         1 <0>         0.1365
     28 H2          1.1118    3.0886   -0.9174 H         1 <0>         0.1365
     29 H3          3.0291    2.0938    0.2619 H         1 <0>         0.1403
     30 H4         -0.6920   -0.7601   -1.2595 H         1 <0>         0.1544
     31 H5          2.0885   -2.5358    0.0652 H         1 <0>         0.4230
     32 H6         -3.1816   -2.2852    0.2161 H         1 <0>         0.2198
     33 H7         -0.3523   -6.7387    0.4066 H         1 <0>         0.4139
     34 H8         -2.9831   -6.5790    1.4213 H         1 <0>         0.0895
     35 H9         -3.0728   -6.7113   -0.3515 H         1 <0>         0.0898
     36 H10        -2.3008   -8.7140   -1.4886 H         1 <0>         0.1365
     37 H11        -1.9122  -11.1398   -1.3292 H         1 <0>         0.1411
     38 H12        -1.7166  -10.8257    2.9236 H         1 <0>         0.1411
     39 H13        -2.0955   -8.3985    2.7597 H         1 <0>         0.1365
@<TRIPOS>BOND
     1    1    6 ar
     2    1    2 ar
     3    1   27 1
     4    2    3 ar
     5    2   28 1
     6    3    4 ar
     7    3   29 1
     8    4    5 ar
     9    4   26 1
    10    5    6 ar
    11    5    7 1
    12    6   30 1
    13    7    8 1
    14    7   31 1
    15    8   13 ar
    16    8    9 ar
    17    9   10 ar
    18    9   23 1
    19   10   11 ar
    20   10   14 1
    21   11   12 ar
    22   12   13 ar
    23   12   32 1
    24   14   15 1
    25   14   33 1
    26   15   16 1
    27   15   34 1
    28   15   35 1
    29   16   21 ar
    30   16   17 ar
    31   17   18 ar
    32   17   36 1
    33   18   19 ar
    34   18   37 1
    35   19   20 ar
    36   19   22 1
    37   20   21 ar
    38   20   38 1
    39   21   39 1
    40   23   24 2
    41   23   25 1
@<TRIPOS>MOLECULE
ZINC45918794
   34    37     0     0     0
SMALL
USER_CHARGES

@<TRIPOS>ATOM
      1 C1         -0.0167    1.3831    0.0096 C.ar      1 <0>        -0.0748
      2 C2          1.1489    2.0960    0.0023 C.ar      1 <0>        -0.0506
      3 C3          2.3746    1.4259   -0.0130 C.ar      1 <0>         0.0930
      4 C4          2.3943    0.0207   -0.0207 C.ar      1 <0>         0.0463
      5 C5          1.2001   -0.6867   -0.0131 C.ar      1 <0>        -0.0287
      6 C6          0.0021   -0.0041    0.0020 C.ar      1 <0>        -0.0293
      7 N1         -1.2725   -0.7565    0.0107 N.pl3     1 <0>         0.0354
      8 O1         -2.3253   -0.1622    0.0243 O.2       1 <0>        -0.1467
      9 O2         -1.2609   -1.9654    0.0041 O.3       1 <0>        -0.1598
     10 N2          3.7264   -0.3416   -0.0354 N.pl3     1 <0>        -0.5787
     11 C7          4.4577    0.8055   -0.0362 C.2       1 <0>         0.3183
     12 N3          3.6680    1.8394   -0.0231 N.2       1 <0>        -0.4617
     13 C8          5.9633    0.8694   -0.0503 C.3       1 <0>        -0.0351
     14 S1          6.5510    0.9042   -1.7661 S.3       1 <0>         0.0332
     15 C9          8.3049    0.9777   -1.6144 C.2       1 <0>         0.2646
     16 N4          9.1822    1.0263   -2.6608 N.pl3     1 <0>        -0.5770
     17 H1          8.9539    1.0266   -3.6035 H         1 <0>         0.4310
     18 C10        10.4589    1.0753   -2.1240 C.ar      1 <0>         0.0606
     19 C11        11.7305    1.1355   -2.6735 C.ar      1 <0>        -0.0937
     20 C12        12.8349    1.1740   -1.8474 C.ar      1 <0>        -0.0889
     21 C13        12.6818    1.1527   -0.4680 C.ar      1 <0>        -0.0381
     22 C14        11.4255    1.0930    0.0947 C.ar      1 <0>        -0.0547
     23 C15        10.2975    1.0535   -0.7290 C.ar      1 <0>         0.0679
     24 N5          8.9627    0.9994   -0.4811 N.2       1 <0>        -0.4868
     25 Cl1        14.0832    1.2012    0.5555 Cl        1 <0>        -0.0571
     26 H2         -0.9623    1.9048    0.0260 H         1 <0>         0.1630
     27 H3          1.1227    3.1757    0.0081 H         1 <0>         0.1582
     28 H4          1.2092   -1.7666   -0.0194 H         1 <0>         0.1581
     29 H5          6.2935    1.7712    0.4653 H         1 <0>         0.1434
     30 H6          6.3688   -0.0072    0.4550 H         1 <0>         0.1277
     31 H7         11.8563    1.1520   -3.7460 H         1 <0>         0.1374
     32 H8         13.8248    1.2205   -2.2767 H         1 <0>         0.1456
     33 H9         11.3130    1.0767    1.1687 H         1 <0>         0.1434
     34 H10         4.0761   -1.2464   -0.0433 H         1 <0>         0.4343
@<TRIPOS>BOND
     1    1    6 ar
     2    1    2 ar
     3    1   26 1
     4    2    3 ar
     5    2   27 1
     6    3   12 1
     7    3    4 ar
     8    4    5 ar
     9    4   10 1
    10    5    6 ar
    11    5   28 1
    12    6    7 1
    13    7    8 2
    14    7    9 1
    15   10   11 1
    16   10   34 1
    17   11   12 2
    18   11   13 1
    19   13   14 1
    20   13   29 1
    21   13   30 1
    22   14   15 1
    23   15   24 2
    24   15   16 1
    25   16   17 1
    26   16   18 1
    27   18   23 ar
    28   18   19 ar
    29   19   20 ar
    30   19   31 1
    31   20   21 ar
    32   20   32 1
    33   21   22 ar
    34   21   25 1
    35   22   23 ar
    36   22   33 1
    37   23   24 1
@<TRIPOS>MOLECULE
ZINC35553315
   50    53     0     0     0
SMALL
USER_CHARGES

@<TRIPOS>ATOM
      1 C1          4.6150   -0.3770    0.8350 C.3       1 <0>        -0.1111
      2 C2          3.4002   -1.2335    0.5866 C.ar      1 <0>        -0.0978
      3 C3          3.0275   -1.5427   -0.7085 C.ar      1 <0>        -0.1005
      4 C4          1.9139   -2.3280   -0.9425 C.ar      1 <0>        -0.1815
      5 C5          1.1682   -2.8078    0.1220 C.ar      1 <0>         0.0890
      6 C6          1.5434   -2.4970    1.4269 C.ar      1 <0>         0.1408
      7 C7          2.6646   -1.7126    1.6541 C.ar      1 <0>        -0.1024
      8 N1          0.7925   -2.9793    2.5076 N.am      1 <0>        -0.6677
      9 C8          0.8756   -2.3745    3.7092 C.2       1 <0>         0.7067
     10 O1          1.5241   -1.3533    3.8322 O.2       1 <0>        -0.5531
     11 N2          0.2400   -2.9015    4.7743 N.am      1 <0>        -0.6810
     12 C9          0.2324   -2.2160    5.9945 C.ar      1 <0>         0.1616
     13 C10         0.2064   -0.8267    6.0110 C.ar      1 <0>        -0.0905
     14 C11         0.1993   -0.1465    7.2137 C.ar      1 <0>        -0.1025
     15 C12         0.2180   -0.8433    8.4057 C.ar      1 <0>        -0.0775
     16 C13         0.2441   -2.2364    8.3986 C.ar      1 <0>        -0.0199
     17 C14         0.2450   -2.9229    7.1871 C.ar      1 <0>        -0.1038
     18 C15         0.2652   -2.9868    9.6790 C.2       1 <0>         0.3006
     19 N3          0.2563   -2.4411   10.9084 N.2       1 <0>        -0.5336
     20 C16         0.2798   -3.3784   11.8126 C.2       1 <0>         0.3168
     21 O2          0.3048   -4.5654   11.1930 O.3       1 <0>        -0.0980
     22 N4          0.2899   -4.2910    9.8001 N.2       1 <0>        -0.3372
     23 C17         0.2791   -3.1633   13.3041 C.3       1 <0>        -0.0443
     24 C18        -0.5535   -4.2008   14.0757 C.3       1 <0>        -0.1275
     25 C19         0.7225   -5.0562   14.1461 C.3       1 <0>        -0.1483
     26 C20         1.5146   -3.7451   14.0110 C.3       1 <0>        -0.1245
     27 O3          0.0725   -3.5799   -0.1066 O.3       1 <0>        -0.3235
     28 C21        -0.2526   -3.8574   -1.4702 C.3       1 <0>         0.0299
     29 H1          5.4961   -1.0128    0.9221 H         1 <0>         0.0694
     30 H2          4.7475    0.3155    0.0037 H         1 <0>         0.0664
     31 H3          4.4802    0.1857    1.7587 H         1 <0>         0.0684
     32 H4          3.6076   -1.1695   -1.5395 H         1 <0>         0.1264
     33 H5          1.6251   -2.5671   -1.9553 H         1 <0>         0.1328
     34 H6          2.9603   -1.4729    2.6648 H         1 <0>         0.1619
     35 H7          0.2130   -3.7483    2.3908 H         1 <0>         0.4137
     36 H8         -0.2123   -3.7560    4.6953 H         1 <0>         0.4111
     37 H9          0.1920   -0.2772    5.0813 H         1 <0>         0.1438
     38 H10         0.1794    0.9333    7.2214 H         1 <0>         0.1389
     39 H11         0.2128   -0.3083    9.3438 H         1 <0>         0.1412
     40 H12         0.2607   -4.0027    7.1766 H         1 <0>         0.1355
     41 H13         0.0616   -2.1322   13.5830 H         1 <0>         0.1285
     42 H14        -0.8973   -3.8487   15.0483 H         1 <0>         0.1043
     43 H15        -1.3489   -4.6512   13.4820 H         1 <0>         0.0765
     44 H16         0.8622   -5.5539   15.1057 H         1 <0>         0.0797
     45 H17         0.8443   -5.7293   13.2974 H         1 <0>         0.0879
     46 H18         2.3888   -3.8276   13.3651 H         1 <0>         0.0748
     47 H19         1.7362   -3.2685   14.9660 H         1 <0>         0.1055
     48 H20        -1.1456   -4.4812   -1.5112 H         1 <0>         0.1008
     49 H21        -0.4387   -2.9215   -1.9971 H         1 <0>         0.0566
     50 H22         0.5785   -4.3812   -1.9425 H         1 <0>         0.0565
@<TRIPOS>BOND
     1    1    2 1
     2    1   29 1
     3    1   30 1
     4    1   31 1
     5    2    7 ar
     6    2    3 ar
     7    3    4 ar
     8    3   32 1
     9    4    5 ar
    10    4   33 1
    11    5    6 ar
    12    5   27 1
    13    6    7 ar
    14    6    8 1
    15    7   34 1
    16    8    9 am
    17    8   35 1
    18    9   10 2
    19    9   11 am
    20   11   12 1
    21   11   36 1
    22   12   17 ar
    23   12   13 ar
    24   13   14 ar
    25   13   37 1
    26   14   15 ar
    27   14   38 1
    28   15   16 ar
    29   15   39 1
    30   16   17 ar
    31   16   18 1
    32   17   40 1
    33   18   22 2
    34   18   19 1
    35   19   20 2
    36   20   21 1
    37   20   23 1
    38   21   22 1
    39   23   26 1
    40   23   24 1
    41   23   41 1
    42   24   25 1
    43   24   42 1
    44   24   43 1
    45   25   26 1
    46   25   44 1
    47   25   45 1
    48   26   46 1
    49   26   47 1
    50   27   28 1
    51   28   48 1
    52   28   49 1
    53   28   50 1
@<TRIPOS>MOLECULE
ZINC00392567
   21    21     0     0     0
SMALL
USER_CHARGES
(1R,2R)-2-hydroxycyclohexane-1-carboxylic acid
@<TRIPOS>ATOM
      1 C1         -0.0127    1.0858    0.0080 C.3       1 <0>        -0.1206
      2 C2         -0.7288    1.5792    1.2668 C.3       1 <0>        -0.1141
      3 C3         -0.7496    3.1091    1.2752 C.3       1 <0>        -0.1523
      4 C4         -1.4896    3.6159    0.0357 C.3       1 <0>         0.1279
      5 H1         -2.5122    3.2386    0.0434 H         1 <0>         0.0493
      6 C5         -0.7734    3.1225   -1.2231 C.3       1 <0>        -0.1231
      7 H2          0.2491    3.4998   -1.2308 H         1 <0>         0.0715
      8 C6         -0.7527    1.5927   -1.2315 C.3       1 <0>        -0.0947
      9 C7         -1.5023    3.6217   -2.4440 C.2       1 <0>         0.4680
     10 O1         -2.4929    4.3023   -2.3200 O.co2     1 <0>        -0.6277
     11 O2         -1.5090    5.0448    0.0436 O.3       1 <0>        -0.5465
     12 H3          0.0021   -0.0041    0.0020 H         1 <0>         0.0579
     13 H4          1.0099    1.4631    0.0003 H         1 <0>         0.0595
     14 H5         -1.7514    1.2020    1.2746 H         1 <0>         0.0600
     15 H6         -0.2017    1.2182    2.1499 H         1 <0>         0.0568
     16 H7          0.2730    3.4864    1.2675 H         1 <0>         0.0646
     17 H8         -1.2598    3.4606    2.1720 H         1 <0>         0.0559
     18 H9         -0.2425    1.2411   -2.1283 H         1 <0>         0.0735
     19 H10        -1.7753    1.2154   -1.2238 H         1 <0>         0.0551
     20 H11        -1.9486    5.4279    0.8149 H         1 <0>         0.3578
     21 O3         -1.0510    3.3103   -3.6692 O.co2     1 <0>        -0.7790
@<TRIPOS>BOND
     1    1    8 1
     2    1    2 1
     3    1   12 1
     4    1   13 1
     5    2    3 1
     6    2   14 1
     7    2   15 1
     8    3    4 1
     9    3   16 1
    10    3   17 1
    11    4    5 1
    12    4    6 1
    13    4   11 1
    14    6    7 1
    15    6    8 1
    16    6    9 1
    17    8   18 1
    18    8   19 1
    19    9   10 2
    20    9   21 1
    21   11   20 1
@<TRIPOS>MOLECULE
ZINC26506723
   20    21     0     0     0
SMALL
USER_CHARGES
5,7-dimethyl-2,3-dihydrofuro[3,4-d]pyridazine-1,4-dione
@<TRIPOS>ATOM
      1 C1          1.7711    3.2855    0.0023 C.3       1 <0>        -0.0730
      2 C2          1.2761    1.8621   -0.0001 C.2       1 <0>         0.0397
      3 C3         -0.0180    1.4787    0.0102 C.2       1 <0>        -0.2192
      4 C4          0.0021   -0.0041    0.0020 C.2       1 <0>        -0.2131
      5 C5          1.3061   -0.3520   -0.0123 C.2       1 <0>         0.0106
      6 O1          2.0481    0.7653   -0.0134 O.3       1 <0>        -0.1812
      7 C6          1.8396   -1.7614   -0.0254 C.3       1 <0>        -0.0554
      8 C7         -1.2874   -0.7080    0.0110 C.2       1 <0>         0.4896
      9 O2         -1.3240   -1.9237    0.0052 O.3       1 <0>        -0.6236
     10 N1         -2.4292    0.0078    0.0261 N.2       1 <0>        -0.5044
     11 N2         -2.4481    1.4008    0.0333 N.am      1 <0>        -0.5111
     12 H1         -3.4081    1.9378    0.0408 H         1 <0>         0.4303
     13 C8         -1.3260    2.1474    0.0315 C.2       1 <0>         0.5290
     14 O3         -1.3955    3.3616    0.0393 O.2       1 <0>        -0.6089
     15 H2          0.9120    3.9724    0.0144 H         1 <0>         0.1055
     16 H3          2.3724    3.4661   -0.9010 H         1 <0>         0.0742
     17 H4          2.3902    3.4569    0.8952 H         1 <0>         0.0742
     18 H5          2.9393   -1.7371   -0.0356 H         1 <0>         0.0647
     19 H6          1.4760   -2.2827   -0.9232 H         1 <0>         0.0862
     20 H7          1.4929   -2.2930    0.8730 H         1 <0>         0.0863
@<TRIPOS>BOND
     1    1    2 1
     2    1   15 1
     3    1   16 1
     4    1   17 1
     5    2    6 1
     6    2    3 2
     7    3   13 1
     8    3    4 1
     9    4    5 2
    10    4    8 1
    11    5    6 1
    12    5    7 1
    13    7   18 1
    14    7   19 1
    15    7   20 1
    16    8    9 1
    17    8   10 2
    18   10   11 1
    19   11   12 1
    20   11   13 am
    21   13   14 2
@<TRIPOS>MOLECULE
ZINC39088934
   21    21     0     0     0
SMALL
USER_CHARGES

@<TRIPOS>ATOM
      1 C1         -0.0187    1.5258    0.0104 C.3       1 <0>        -0.1139
      2 C2          1.4167    2.0553   -0.0004 C.3       1 <0>        -0.1221
      3 C3          2.1567    1.5485    1.2391 C.3       1 <0>        -0.1218
      4 C4          2.1775    0.0187    1.2307 C.3       1 <0>         0.0575
      5 C5          0.7421   -0.5109    1.2415 C.3       1 <0>         0.1019
      6 H1          0.2319   -0.1594    2.1383 H         1 <0>         0.0695
      7 C6          0.0021   -0.0041    0.0020 C.3       1 <0>        -0.1526
      8 O1          0.7614   -1.9398    1.2337 O.3       1 <0>        -0.5487
      9 C7          2.9063   -0.4805    2.4516 C.2       1 <0>         0.4954
     10 O2          2.4964   -0.1976    3.5644 O.co2     1 <0>        -0.6886
     11 O3          3.9059   -1.1673    2.3265 O.co2     1 <0>        -0.6737
     12 F1          2.8323   -0.4325    0.0797 F         1 <0>        -0.2052
     13 H2         -0.5289    1.8773    0.9072 H         1 <0>         0.0627
     14 H3         -0.5459    1.8868   -0.8726 H         1 <0>         0.0612
     15 H4          1.9269    1.7038   -0.8972 H         1 <0>         0.0651
     16 H5          1.4019    3.1452    0.0056 H         1 <0>         0.0628
     17 H6          3.1793    1.9258    1.2314 H         1 <0>         0.0708
     18 H7          1.6465    1.9000    2.1359 H         1 <0>         0.0825
     19 H8         -1.0205   -0.3814    0.0098 H         1 <0>         0.0612
     20 H9          0.5123   -0.3556   -0.8948 H         1 <0>         0.0720
     21 H10        -0.1165   -2.3450    1.2399 H         1 <0>         0.3643
@<TRIPOS>BOND
     1    1    7 1
     2    1    2 1
     3    1   13 1
     4    1   14 1
     5    2    3 1
     6    2   15 1
     7    2   16 1
     8    3    4 1
     9    3   17 1
    10    3   18 1
    11    4    5 1
    12    4    9 1
    13    4   12 1
    14    5    6 1
    15    5    7 1
    16    5    8 1
    17    7   19 1
    18    7   20 1
    19    8   21 1
    20    9   10 2
    21    9   11 1
@<TRIPOS>MOLECULE
ZINC52258982
   25    25     0     0     0
SMALL
USER_CHARGES

@<TRIPOS>ATOM
      1 C1          0.7116   -0.5084   -1.2550 C.3       1 <0>        -0.1187
      2 C2          0.0047   -0.0140    0.0086 C.3       1 <0>        -0.2003
      3 H1          0.0781    1.0720    0.0647 H         1 <0>         0.0661
      4 C3         -1.4686   -0.4240   -0.0377 C.3       1 <0>         0.1413
      5 H2         -1.9185   -0.0589   -0.9610 H         1 <0>         0.0848
      6 C4         -2.2037    0.1791    1.1610 C.3       1 <0>        -0.1541
      7 H3         -1.7336   -0.1348    2.0930 H         1 <0>         0.0944
      8 C5         -3.6968   -0.2297    1.1427 C.3       1 <0>        -0.1423
      9 C6         -4.3981    1.0827    1.5765 C.3       1 <0>         0.0458
     10 O1         -3.6088    2.1119    0.9423 O.3       1 <0>        -0.3872
     11 C7         -2.2287    1.7166    1.0606 C.3       1 <0>         0.0585
     12 O2         -1.5684   -1.8487    0.0099 O.3       1 <0>        -0.5642
     13 C8          0.6582   -0.6249    1.2214 C.2       1 <0>         0.4965
     14 O3          0.8304    0.0465    2.2244 O.co2     1 <0>        -0.6979
     15 O4          1.0147   -1.7907    1.1996 O.co2     1 <0>        -0.6913
     16 H4          1.7382   -0.1421   -1.2640 H         1 <0>         0.0409
     17 H5          0.7145   -1.5983   -1.2669 H         1 <0>         0.0652
     18 H6          0.1856   -0.1369   -2.1345 H         1 <0>         0.0341
     19 H7         -4.0073   -0.5236    0.1401 H         1 <0>         0.0770
     20 H8         -3.8901   -1.0289    1.8583 H         1 <0>         0.0757
     21 H9         -5.4252    1.1075    1.2124 H         1 <0>         0.0868
     22 H10        -4.3714    1.1919    2.6607 H         1 <0>         0.0563
     23 H11        -1.7916    2.1538    1.9584 H         1 <0>         0.0641
     24 H12        -1.6729    2.0396    0.1803 H         1 <0>         0.0845
     25 H13        -1.1874   -2.2432    0.8063 H         1 <0>         0.3838
@<TRIPOS>BOND
     1    1    2 1
     2    1   16 1
     3    1   17 1
     4    1   18 1
     5    2    3 1
     6    2    4 1
     7    2   13 1
     8    4    5 1
     9    4    6 1
    10    4   12 1
    11    6    7 1
    12    6   11 1
    13    6    8 1
    14    8    9 1
    15    8   19 1
    16    8   20 1
    17    9   10 1
    18    9   21 1
    19    9   22 1
    20   10   11 1
    21   11   23 1
    22   11   24 1
    23   12   25 1
    24   13   14 2
    25   13   15 1
@<TRIPOS>MOLECULE
ZINC09592675
   18    19     0     0     0
SMALL
USER_CHARGES

@<TRIPOS>ATOM
      1 C1         -0.0164    1.3615    0.0095 C.ar      1 <0>        -0.1322
      2 C2          1.1693    2.0832    0.0021 C.ar      1 <0>        -0.1522
      3 C3          2.3855    1.4358   -0.0130 C.ar      1 <0>        -0.1388
      4 C4          2.4295    0.0443   -0.0209 C.ar      1 <0>         0.0947
      5 C5          1.2261   -0.6835   -0.0134 C.ar      1 <0>         0.0015
      6 C6          0.0021   -0.0041    0.0020 C.ar      1 <0>        -0.1281
      7 C7          1.2681   -2.1469   -0.0217 C.2       1 <0>        -0.3706
      8 C8          2.4786   -2.7646   -0.0366 C.2       1 <0>         0.2265
      9 C9          3.6987   -1.9602   -0.0439 C.2       1 <0>         0.4990
     10 O1          4.7840   -2.5144   -0.0572 O.2       1 <0>        -0.5450
     11 N1          3.6400   -0.6166   -0.0365 N.am      1 <0>        -0.6326
     12 H1          4.4632   -0.1036   -0.0419 H         1 <0>         0.3951
     13 O2          2.5539   -4.1222   -0.0442 O.3       1 <0>        -0.6762
     14 H2         -0.9614    1.8842    0.0259 H         1 <0>         0.1087
     15 H3          1.1383    3.1627    0.0078 H         1 <0>         0.1102
     16 H4          3.3024    2.0064   -0.0191 H         1 <0>         0.1130
     17 H5         -0.9249   -0.5583    0.0076 H         1 <0>         0.1163
     18 H6          0.3553   -2.7241   -0.0157 H         1 <0>         0.1107
@<TRIPOS>BOND
     1    1    6 ar
     2    1    2 ar
     3    1   14 1
     4    2    3 ar
     5    2   15 1
     6    3    4 ar
     7    3   16 1
     8    4   11 1
     9    4    5 ar
    10    5    6 ar
    11    5    7 1
    12    6   17 1
    13    7    8 2
    14    7   18 1
    15    8    9 1
    16    8   13 1
    17    9   10 2
    18    9   11 am
    19   11   12 1
@<TRIPOS>MOLECULE
ZINC11905852
   28    29     0     0     0
SMALL
USER_CHARGES
6-methyl-5-[(N'E)-N'-[(5-methyl-2-thienyl)methylene]hydrazino]-2H-1,2,4-triazin-3-one
@<TRIPOS>ATOM
      1 C1          6.5783    4.7330   -0.0360 C.3       1 <0>        -0.0769
      2 C2          5.6307    3.5612   -0.0326 C.2       1 <0>        -0.1339
      3 C3          5.9175    2.2334   -0.0424 C.2       1 <0>        -0.1763
      4 C4          4.8873    1.3218   -0.0375 C.2       1 <0>        -0.1007
      5 C5          3.5878    1.7982   -0.0225 C.2       1 <0>        -0.1511
      6 S1          3.8457    3.5649   -0.0234 S.3       1 <0>         0.1244
      7 C6          2.3278    1.0477   -0.0145 C.2       1 <0>         0.1655
      8 N1          1.1926    1.6828   -0.0003 N.2       1 <0>        -0.2235
      9 N2         -0.0111    0.9658    0.0074 N.pl3     1 <0>        -0.5292
     10 C7         -1.2103    1.6367    0.0167 C.2       1 <0>         0.4865
     11 C8         -2.4351    0.9266    0.0186 C.2       1 <0>         0.0016
     12 N3         -3.5597    1.5881    0.0275 N.2       1 <0>        -0.1512
     13 N4         -3.5693    2.8745    0.0345 N.am      1 <0>        -0.4819
     14 H1         -4.4189    3.3424    0.0414 H         1 <0>         0.4450
     15 C9         -2.4272    3.5848    0.0330 C.2       1 <0>         0.6168
     16 O1         -2.4725    4.8040    0.0398 O.2       1 <0>        -0.5165
     17 N5         -1.2440    2.9657    0.0296 N.2       1 <0>        -0.5383
     18 C10        -2.4398   -0.5804    0.0100 C.3       1 <0>        -0.0907
     19 H2          6.7964    5.0209   -1.0644 H         1 <0>         0.0833
     20 H3          6.1201    5.5724    0.4869 H         1 <0>         0.0771
     21 H4          7.5039    4.4531    0.4670 H         1 <0>         0.0839
     22 H5          6.9437    1.8970   -0.0537 H         1 <0>         0.1379
     23 H6          5.0874    0.2605   -0.0455 H         1 <0>         0.1403
     24 H7          2.3425   -0.0321   -0.0205 H         1 <0>         0.1389
     25 H8          0.0021   -0.0041    0.0020 H         1 <0>         0.4053
     26 H9         -2.4359   -0.9496    1.0356 H         1 <0>         0.0906
     27 H10        -3.3334   -0.9380   -0.5015 H         1 <0>         0.0950
     28 H11        -1.5535   -0.9435   -0.5103 H         1 <0>         0.0780
@<TRIPOS>BOND
     1    1    2 1
     2    1   19 1
     3    1   20 1
     4    1   21 1
     5    2    6 1
     6    2    3 2
     7    3    4 1
     8    3   22 1
     9    4    5 2
    10    4   23 1
    11    5    6 1
    12    5    7 1
    13    7    8 2
    14    7   24 1
    15    8    9 1
    16    9   10 1
    17    9   25 1
    18   10   17 2
    19   10   11 1
    20   11   12 2
    21   11   18 1
    22   12   13 1
    23   13   14 1
    24   13   15 am
    25   15   16 2
    26   15   17 1
    27   18   26 1
    28   18   27 1
    29   18   28 1
@<TRIPOS>MOLECULE
ZINC39287345
   27    28     0     0     0
SMALL
USER_CHARGES

@<TRIPOS>ATOM
      1 C1         -0.1740    0.9056   -0.6999 C.3       1 <0>        -0.1461
      2 C2         -0.3968   -0.6053   -0.7915 C.3       1 <0>        -0.0500
      3 C3         -1.8448   -0.9173   -0.5139 C.2       1 <0>         0.1013
      4 C4         -2.4005   -1.1831    0.7425 C.2       1 <0>        -0.1519
      5 C5         -3.7235   -1.4138    0.5722 C.2       1 <0>         0.0754
      6 N1         -3.9948   -1.2980   -0.7456 N.pl3     1 <0>        -0.3414
      7 N2         -2.8005   -0.9808   -1.4055 N.2       1 <0>        -0.2451
      8 C6         -5.3074   -1.4685   -1.3736 C.3       1 <0>         0.0906
      9 C7         -4.7155   -1.7412    1.6584 C.3       1 <0>         0.2279
     10 H1         -5.6785   -2.0151    1.2273 H         1 <0>         0.1791
     11 N3         -4.2058   -2.8222    2.5173 N.2       1 <0>        -0.0529
     12 N4         -4.0977   -2.3769    3.6629 N.2       1 <0>        -0.1092
     13 C8         -4.4612   -1.0941    3.7813 C.2       1 <0>         0.3331
     14 S1         -4.4220   -0.1991    5.2402 S.2       1 <0>        -0.3679
     15 N5         -4.8659   -0.6030    2.5852 N.pl3     1 <0>        -0.3927
     16 N6         -5.3101    0.6569    2.2999 N.3       1 <0>        -0.5454
     17 Cl1        -1.5445   -1.2124    2.2525 Cl        1 <0>        -0.0190
     18 H2          0.8733    1.1313   -0.9007 H         1 <0>         0.0708
     19 H3         -0.8018    1.4106   -1.4341 H         1 <0>         0.0588
     20 H4         -0.4349    1.2513    0.3004 H         1 <0>         0.0571
     21 H5         -0.1360   -0.9510   -1.7918 H         1 <0>         0.0900
     22 H6          0.2309   -1.1103   -0.0574 H         1 <0>         0.0914
     23 H7         -5.8240   -0.5091   -1.4019 H         1 <0>         0.0898
     24 H8         -5.1784   -1.8418   -2.3895 H         1 <0>         0.1066
     25 H9         -5.8963   -2.1814   -0.7965 H         1 <0>         0.0927
     26 H10        -5.3895    1.2110    3.1393 H         1 <0>         0.3948
     27 H11        -4.7107    1.1073    1.6246 H         1 <0>         0.3623
@<TRIPOS>BOND
     1    1    2 1
     2    1   18 1
     3    1   19 1
     4    1   20 1
     5    2    3 1
     6    2   21 1
     7    2   22 1
     8    3    7 2
     9    3    4 1
    10    4    5 2
    11    4   17 1
    12    5    6 1
    13    5    9 1
    14    6    7 1
    15    6    8 1
    16    8   23 1
    17    8   24 1
    18    8   25 1
    19    9   10 1
    20    9   15 1
    21    9   11 1
    22   11   12 2
    23   12   13 1
    24   13   14 2
    25   13   15 1
    26   15   16 1
    27   16   26 1
    28   16   27 1
@<TRIPOS>MOLECULE
ZINC43670303
   35    36     0     0     0
SMALL
USER_CHARGES

@<TRIPOS>ATOM
      1 C1         -0.0184    1.5028    0.0103 C.3       1 <0>        -0.0878
      2 C2          0.0021   -0.0041    0.0020 C.2       1 <0>         0.1487
      3 C3          0.0080   -0.8162   -1.1356 C.2       1 <0>        -0.2618
      4 C4          0.0283   -2.1132   -0.7214 C.2       1 <0>         0.4348
      5 N1          0.0348   -2.1096    0.6311 N.pl3     1 <0>        -0.3699
      6 N2          0.0230   -0.7757    1.0584 N.2       1 <0>        -0.2594
      7 C5          0.0550   -3.2917    1.4962 C.3       1 <0>         0.1650
      8 H1          0.0641   -4.1917    0.8814 H         1 <0>         0.0976
      9 C6          1.3082   -3.2605    2.3733 C.3       1 <0>        -0.1275
     10 C7          1.2954   -1.9972    3.2363 C.3       1 <0>        -0.1306
     11 C8          0.0504   -1.9996    4.1256 C.3       1 <0>        -0.1068
     12 C9         -1.2028   -2.0308    3.2485 C.3       1 <0>        -0.1017
     13 H2         -1.2178   -1.1513    2.6048 H         1 <0>         0.0995
     14 C10        -1.1900   -3.2942    2.3855 C.3       1 <0>        -0.1232
     15 C11        -2.4478   -2.0333    4.1378 C.3       1 <0>        -0.1475
     16 N3          0.0402   -3.2384   -1.5410 N.pl3     1 <0>        -0.8418
     17 N4         -0.0055   -0.3494   -2.5403 N.pl3     1 <0>         0.0613
     18 O1          1.0360   -0.1445   -3.1192 O.2       1 <0>        -0.1431
     19 O2         -1.0578   -0.1732   -3.1087 O.3       1 <0>        -0.1441
     20 H3          1.0042    1.8801    0.0026 H         1 <0>         0.0912
     21 H4         -0.5455    1.8639   -0.8728 H         1 <0>         0.0791
     22 H5         -0.5286    1.8543    0.9071 H         1 <0>         0.0906
     23 H6          1.3232   -4.1400    3.0170 H         1 <0>         0.0864
     24 H7          2.1952   -3.2587    1.7398 H         1 <0>         0.0679
     25 H8          2.1882   -1.9749    3.8612 H         1 <0>         0.0617
     26 H9          1.2804   -1.1176    2.5926 H         1 <0>         0.0917
     27 H10         0.0654   -2.8792    4.7693 H         1 <0>         0.0565
     28 H11         0.0413   -1.0996    4.7404 H         1 <0>         0.0641
     29 H12        -2.0828   -3.3164    1.7606 H         1 <0>         0.0683
     30 H13        -1.1750   -4.1737    3.0292 H         1 <0>         0.0865
     31 H14        -2.4569   -1.1332    4.7526 H         1 <0>         0.0569
     32 H15        -3.3406   -2.0555    3.5129 H         1 <0>         0.0517
     33 H16        -2.4328   -2.9128    4.7814 H         1 <0>         0.0523
     34 H17         0.0344   -3.1359   -2.5055 H         1 <0>         0.4219
     35 H18         0.0542   -4.1249   -1.1475 H         1 <0>         0.4115
@<TRIPOS>BOND
     1    1    2 1
     2    1   20 1
     3    1   21 1
     4    1   22 1
     5    2    6 2
     6    2    3 1
     7    3    4 2
     8    3   17 1
     9    4    5 1
    10    4   16 1
    11    5    6 1
    12    5    7 1
    13    7    8 1
    14    7   14 1
    15    7    9 1
    16    9   10 1
    17    9   23 1
    18    9   24 1
    19   10   11 1
    20   10   25 1
    21   10   26 1
    22   11   12 1
    23   11   27 1
    24   11   28 1
    25   12   13 1
    26   12   14 1
    27   12   15 1
    28   14   29 1
    29   14   30 1
    30   15   31 1
    31   15   32 1
    32   15   33 1
    33   16   34 1
    34   16   35 1
    35   17   18 2
    36   17   19 1
@<TRIPOS>MOLECULE
ZINC52213725
   33    35     0     0     0
SMALL
USER_CHARGES

@<TRIPOS>ATOM
      1 C1          0.3420    1.4459   -0.2349 C.3       1 <0>         0.0272
      2 O1          0.3821    0.0175   -0.2391 O.3       1 <0>        -0.3180
      3 C2          0.8472   -0.5904    0.8851 C.ar      1 <0>         0.0716
      4 C3          1.2505    0.1764    1.9706 C.ar      1 <0>        -0.1267
      5 C4          1.7245   -0.4320    3.1160 C.ar      1 <0>        -0.1575
      6 C5          1.8002   -1.8157    3.1892 C.ar      1 <0>         0.2413
      7 C6          1.3942   -2.5939    2.0974 C.ar      1 <0>        -0.0930
      8 C7          0.9118   -1.9711    0.9462 C.ar      1 <0>        -0.0767
      9 C8          1.4715   -4.0687    2.1670 C.2       1 <0>         0.2989
     10 N1          2.4999   -4.7804    2.5799 N.2       1 <0>        -0.3291
     11 N2          2.2343   -6.0350    2.5122 N.2       1 <0>        -0.0409
     12 N3          1.0411   -6.2182    2.0606 N.2       1 <0>        -0.0801
     13 N4          0.4945   -4.9448    1.8232 N.pl3     1 <0>        -0.3587
     14 C9         -0.8422   -4.6314    1.3122 C.3       1 <0>         0.1136
     15 C10        -1.9524   -5.5113    1.9107 C.3       1 <0>        -0.1390
     16 C11        -2.5705   -5.5519    0.5031 C.3       1 <0>        -0.1356
     17 C12        -1.1554   -5.2930   -0.0402 C.3       1 <0>        -0.1419
     18 N5          2.2797   -2.4300    4.3467 N.pl3     1 <0>        -0.8620
     19 H1          1.3483    1.8372   -0.0853 H         1 <0>         0.0557
     20 H2         -0.0479    1.8013   -1.1887 H         1 <0>         0.1010
     21 H3         -0.3049    1.7889    0.5726 H         1 <0>         0.0553
     22 H4          1.1935    1.2536    1.9184 H         1 <0>         0.1368
     23 H5          2.0372    0.1702    3.9563 H         1 <0>         0.1365
     24 H6          0.5931   -2.5654    0.1026 H         1 <0>         0.1335
     25 H7         -1.0663   -3.5651    1.3390 H         1 <0>         0.1384
     26 H8         -1.5996   -6.4814    2.2607 H         1 <0>         0.1004
     27 H9         -2.5710   -4.9948    2.6445 H         1 <0>         0.0829
     28 H10        -2.9712   -6.5281    0.2302 H         1 <0>         0.0853
     29 H11        -3.2685   -4.7374    0.3092 H         1 <0>         0.0917
     30 H12        -1.1306   -4.6001   -0.8814 H         1 <0>         0.0848
     31 H13        -0.5848   -6.2034   -0.2236 H         1 <0>         0.0975
     32 H14         2.6490   -1.8916    5.0641 H         1 <0>         0.4035
     33 H15         2.2437   -3.3954    4.4339 H         1 <0>         0.4036
@<TRIPOS>BOND
     1    1    2 1
     2    1   19 1
     3    1   20 1
     4    1   21 1
     5    2    3 1
     6    3    8 ar
     7    3    4 ar
     8    4    5 ar
     9    4   22 1
    10    5    6 ar
    11    5   23 1
    12    6    7 ar
    13    6   18 1
    14    7    8 ar
    15    7    9 1
    16    8   24 1
    17    9   13 1
    18    9   10 2
    19   10   11 1
    20   11   12 2
    21   12   13 1
    22   13   14 1
    23   14   17 1
    24   14   15 1
    25   14   25 1
    26   15   16 1
    27   15   26 1
    28   15   27 1
    29   16   17 1
    30   16   28 1
    31   16   29 1
    32   17   30 1
    33   17   31 1
    34   18   32 1
    35   18   33 1
@<TRIPOS>MOLECULE
ZINC61939818
   39    40     0     0     0
SMALL
USER_CHARGES

@<TRIPOS>ATOM
      1 C1          0.0896    1.4129    0.0685 C.3       1 <0>        -0.1423
      2 C2          0.0412   -0.1162    0.0912 C.3       1 <0>        -0.0189
      3 C3          0.7065   -0.6286    1.3701 C.3       1 <0>        -0.1409
      4 C4         -1.3941   -0.5740    0.0535 C.ar      1 <0>         0.2659
      5 N1         -2.2100   -0.1972    1.0207 N.ar      1 <0>        -0.4564
      6 C5         -3.4751   -0.5719    1.0314 C.ar      1 <0>         0.0893
      7 C6         -3.9515   -1.3821   -0.0036 C.ar      1 <0>         0.1481
      8 C7         -3.0529   -1.7607   -1.0124 C.ar      1 <0>         0.0551
      9 N2         -1.7937   -1.3305   -0.9437 N.ar      1 <0>        -0.4469
     10 C8         -3.4968   -2.6173   -2.1347 C.2       1 <0>         0.5786
     11 O1         -4.1638   -2.1439   -3.0336 O.2       1 <0>        -0.5188
     12 N3         -3.1612   -3.9224   -2.1599 N.am      1 <0>        -0.5953
     13 C9         -3.5157   -4.7235   -3.3467 C.3       1 <0>         0.1087
     14 C10        -2.3674   -5.6644   -3.7395 C.3       1 <0>        -0.1661
     15 C11        -1.0435   -4.9450   -3.5777 C.3       1 <0>         0.0712
     16 O2         -0.5482   -5.1882   -2.2676 O.3       1 <0>        -0.3853
     17 C12        -0.9365   -4.3630   -1.2317 C.3       1 <0>         0.0524
     18 C13        -2.4597   -4.4851   -1.0209 C.3       1 <0>         0.0701
     19 N4         -5.2754   -1.8003   -0.0321 N.pl3     1 <0>        -0.8476
     20 H1          1.1277    1.7440    0.0958 H         1 <0>         0.0656
     21 H2         -0.3844    1.7779   -0.8426 H         1 <0>         0.0525
     22 H3         -0.4401    1.8061    0.9362 H         1 <0>         0.0663
     23 H4          0.5709   -0.5094   -0.7765 H         1 <0>         0.0932
     24 H5          0.1769   -0.2354    2.2378 H         1 <0>         0.0662
     25 H6          0.6721   -1.7179    1.3863 H         1 <0>         0.0527
     26 H7          1.7447   -0.2974    1.3974 H         1 <0>         0.0654
     27 H8         -4.1328   -0.2576    1.8282 H         1 <0>         0.1741
     28 H9         -4.4041   -5.3155   -3.1266 H         1 <0>         0.0719
     29 H10        -3.7304   -4.0538   -4.1795 H         1 <0>         0.0943
     30 H11        -2.3832   -6.5446   -3.0967 H         1 <0>         0.0819
     31 H12        -2.4890   -5.9717   -4.7782 H         1 <0>         0.0918
     32 H13        -0.3315   -5.3200   -4.3130 H         1 <0>         0.0943
     33 H14        -1.1896   -3.8743   -3.7204 H         1 <0>         0.0549
     34 H15        -0.4175   -4.6567   -0.3192 H         1 <0>         0.1030
     35 H16        -0.6860   -3.3307   -1.4760 H         1 <0>         0.0659
     36 H17        -2.7412   -3.9440   -0.1176 H         1 <0>         0.0784
     37 H18        -2.7273   -5.5362   -0.9127 H         1 <0>         0.0912
     38 H19        -5.8659   -1.5920    0.7087 H         1 <0>         0.4094
     39 H20        -5.6097   -2.3007   -0.7929 H         1 <0>         0.4060
@<TRIPOS>BOND
     1    1    2 1
     2    1   20 1
     3    1   21 1
     4    1   22 1
     5    2    3 1
     6    2    4 1
     7    2   23 1
     8    3   24 1
     9    3   25 1
    10    3   26 1
    11    4    9 ar
    12    4    5 ar
    13    5    6 ar
    14    6    7 ar
    15    6   27 1
    16    7    8 ar
    17    7   19 1
    18    8    9 ar
    19    8   10 1
    20   10   11 2
    21   10   12 am
    22   12   18 1
    23   12   13 1
    24   13   14 1
    25   13   28 1
    26   13   29 1
    27   14   15 1
    28   14   30 1
    29   14   31 1
    30   15   16 1
    31   15   32 1
    32   15   33 1
    33   16   17 1
    34   17   18 1
    35   17   34 1
    36   17   35 1
    37   18   36 1
    38   18   37 1
    39   19   38 1
    40   19   39 1
@<TRIPOS>MOLECULE
ZINC05909982
   32    33     0     0     0
SMALL
USER_CHARGES
6-(isopropylcarbamoyl)bicyclo[2.2.1]hept-2-ene-5-carboxylic acid
@<TRIPOS>ATOM
      1 C1          0.8515    4.5916   -6.0021 C.3       1 <0>        -0.1602
      2 C2          1.4667    4.4127   -4.6127 C.3       1 <0>         0.1353
      3 C3          1.2459    5.6834   -3.7897 C.3       1 <0>        -0.1632
      4 N1          0.8303    3.2779   -3.9392 N.am      1 <0>        -0.7291
      5 C4          1.4911    2.6113   -2.9720 C.2       1 <0>         0.5318
      6 O1          2.6126    2.9509   -2.6592 O.2       1 <0>        -0.5538
      7 C5          0.8364    1.4441   -2.2793 C.3       1 <0>        -0.1080
      8 H1          0.5444    0.6843   -3.0042 H         1 <0>         0.1194
      9 C6          1.7925    0.8376   -1.2032 C.3       1 <0>        -0.0473
     10 H2          2.8328    0.6906   -1.4935 H         1 <0>         0.0996
     11 C7          1.5271    1.8181   -0.0028 C.3       1 <0>        -0.1203
     12 C8         -0.0187    1.5294    0.0105 C.3       1 <0>        -0.0552
     13 H3         -0.5973    2.0007    0.8050 H         1 <0>         0.0988
     14 C9         -0.3896    1.9123   -1.4577 C.3       1 <0>        -0.1151
     15 H4         -0.5239    2.9901   -1.5503 H         1 <0>         0.0734
     16 C10        -1.6324    1.1824   -1.8978 C.2       1 <0>         0.4742
     17 O2         -1.5852    0.4187   -2.8329 O.co2     1 <0>        -0.6352
     18 C11         0.0021   -0.0041    0.0020 C.2       1 <0>        -0.1364
     19 C12         1.0457   -0.4027   -0.6973 C.2       1 <0>        -0.1831
     20 H5         -0.2177    4.7801   -5.9045 H         1 <0>         0.0615
     21 H6          1.3250    5.4359   -6.5031 H         1 <0>         0.0680
     22 H7          1.0088    3.6863   -6.5884 H         1 <0>         0.0611
     23 H8          2.5359    4.2242   -4.7103 H         1 <0>         0.0838
     24 H9          1.6843    5.5559   -2.7999 H         1 <0>         0.0598
     25 H10         1.7195    6.5277   -4.2907 H         1 <0>         0.0604
     26 H11         0.1768    5.8719   -3.6921 H         1 <0>         0.0568
     27 H12        -0.0667    3.0064   -4.1894 H         1 <0>         0.4057
     28 H13         1.7562    2.8543   -0.2515 H         1 <0>         0.0720
     29 H14         2.0196    1.4972    0.9152 H         1 <0>         0.0689
     30 H15        -0.7163   -0.6481    0.4874 H         1 <0>         0.1206
     31 H16         1.3272   -1.4287   -0.8826 H         1 <0>         0.1209
     32 O3         -2.7917    1.3807   -1.2510 O.co2     1 <0>        -0.7650
@<TRIPOS>BOND
     1    1    2 1
     2    1   20 1
     3    1   21 1
     4    1   22 1
     5    2    3 1
     6    2    4 1
     7    2   23 1
     8    3   24 1
     9    3   25 1
    10    3   26 1
    11    4    5 am
    12    4   27 1
    13    5    6 2
    14    5    7 1
    15    7    8 1
    16    7   14 1
    17    7    9 1
    18    9   10 1
    19    9   19 1
    20    9   11 1
    21   11   12 1
    22   11   28 1
    23   11   29 1
    24   12   13 1
    25   12   14 1
    26   12   18 1
    27   14   15 1
    28   14   16 1
    29   16   17 2
    30   16   32 1
    31   18   19 2
    32   18   30 1
    33   19   31 1
@<TRIPOS>MOLECULE
ZINC22112198
   21    22     0     0     0
SMALL
USER_CHARGES
N-[(4-fluorophenyl)methyl]-2H-tetrazol-5-amine
@<TRIPOS>ATOM
      1 C1         -2.9500    0.2412   -1.1802 C.ar      1 <0>        -0.0717
      2 C2         -3.9849   -0.6747   -1.1815 C.ar      1 <0>        -0.1572
      3 C3         -4.4997   -1.1385    0.0172 C.ar      1 <0>         0.0935
      4 C4         -3.9732   -0.6881    1.2160 C.ar      1 <0>        -0.1572
      5 C5         -2.9348    0.2238    1.2148 C.ar      1 <0>        -0.0718
      6 C6         -2.4216    0.6862    0.0173 C.ar      1 <0>        -0.0992
      7 C7         -1.2896    1.6810    0.0173 C.3       1 <0>         0.1978
      8 N1         -0.0111    0.9658    0.0074 N.pl3     1 <0>        -0.7270
      9 C8          1.1885    1.6804   -0.0003 C.2       1 <0>         0.3663
     10 N2          2.4010    1.1666   -0.0152 N.2       1 <0>        -0.4681
     11 N3          3.2828    2.2599   -0.0269 N.2       1 <0>        -0.2291
     12 N4          2.5611    3.3282   -0.0042 N.2       1 <0>        -0.1368
     13 N5          1.3159    3.0081    0.0061 N.2       1 <0>        -0.4627
     14 F1         -5.5145   -2.0303    0.0172 F         1 <0>        -0.1442
     15 H1         -2.5510    0.6063   -2.1151 H         1 <0>         0.1347
     16 H2         -4.3947   -1.0254   -2.1172 H         1 <0>         0.1336
     17 H3         -4.3737   -1.0495    2.1516 H         1 <0>         0.1336
     18 H4         -2.5238    0.5751    2.1497 H         1 <0>         0.1347
     19 H5         -1.3607    2.3174   -0.8771 H         1 <0>         0.0583
     20 H6         -1.3522    2.3077    0.9191 H         1 <0>         0.0581
     21 H7          0.0038   -0.1341    0.0060 H         1 <0>         0.4142
@<TRIPOS>BOND
     1    1    6 ar
     2    1    2 ar
     3    1   15 1
     4    2    3 ar
     5    2   16 1
     6    3    4 ar
     7    3   14 1
     8    4    5 ar
     9    4   17 1
    10    5    6 ar
    11    5   18 1
    12    6    7 1
    13    7    8 1
    14    7   19 1
    15    7   20 1
    16    8    9 1
    17    8   21 1
    18    9   10 1
    19    9   13 2
    20   10   11 1
    21   11   12 2
    22   12   13 1
@<TRIPOS>MOLECULE
ZINC16677904
   19    20     0     0     0
SMALL
USER_CHARGES

@<TRIPOS>ATOM
      1 C1         -0.0173    1.4248    0.0099 C.3       1 <0>         0.0347
      2 O1          0.0021   -0.0041    0.0020 O.3       1 <0>        -0.3291
      3 C2         -1.2002   -0.6374    0.0101 C.ar      1 <0>         0.1748
      4 C3         -2.3744    0.1266    0.0197 C.ar      1 <0>        -0.3236
      5 C4         -3.6010   -0.4529    0.0284 C.ar      1 <0>         0.0600
      6 C5         -3.7078   -1.8577    0.0275 C.ar      1 <0>        -0.3494
      7 C6         -2.4776   -2.6644    0.0170 C.ar      1 <0>         0.1676
      8 C7         -1.2333   -1.9985    0.0031 C.ar      1 <0>        -0.2068
      9 N1         -2.8511   -3.9311    0.0187 N.2       1 <0>        -0.3892
     10 N2         -4.2488   -3.9971    0.0297 N.pl3     1 <0>        -0.5161
     11 H1         -4.7673   -4.8169    0.0327 H         1 <0>         0.4170
     12 C8         -4.7660   -2.7589    0.0350 C.2       1 <0>         0.4480
     13 O2         -6.0845   -2.4434    0.0454 O.3       1 <0>        -0.7022
     14 H2          1.0053    1.8021    0.0021 H         1 <0>         0.0869
     15 H3         -0.5445    1.7859   -0.8732 H         1 <0>         0.0498
     16 H4         -0.5275    1.7763    0.9067 H         1 <0>         0.0498
     17 H5         -2.3013    1.2041    0.0205 H         1 <0>         0.1076
     18 H6         -4.4906    0.1593    0.0365 H         1 <0>         0.1065
     19 H7         -0.3137   -2.5647   -0.0087 H         1 <0>         0.1139
@<TRIPOS>BOND
     1    1    2 1
     2    1   14 1
     3    1   15 1
     4    1   16 1
     5    2    3 1
     6    3    8 ar
     7    3    4 ar
     8    4    5 ar
     9    4   17 1
    10    5    6 ar
    11    5   18 1
    12    6   12 2
    13    6    7 ar
    14    7    8 ar
    15    7    9 2
    16    8   19 1
    17    9   10 1
    18   10   11 1
    19   10   12 1
    20   12   13 1
@<TRIPOS>MOLECULE
ZINC45236423
   20    22     0     0     0
SMALL
USER_CHARGES

@<TRIPOS>ATOM
      1 C1         -0.0165    1.3658    0.0096 C.ar      1 <0>        -0.1123
      2 C2          1.1565    2.1073    0.0023 C.ar      1 <0>        -0.1324
      3 C3          2.3731    1.4506   -0.0128 C.ar      1 <0>        -0.0558
      4 C4          2.4025    0.0781   -0.0204 C.ar      1 <0>        -0.1882
      5 C5          1.2283   -0.7103   -0.0134 C.ar      1 <0>         0.1114
      6 C6          0.0021   -0.0041    0.0020 C.ar      1 <0>        -0.0866
      7 N1          1.4196   -2.0450   -0.0223 N.2       1 <0>        -0.5504
      8 C7          2.6197   -2.5867   -0.0367 C.2       1 <0>         0.3308
      9 S1          3.6848   -1.1515   -0.0391 S.3       1 <0>         0.0143
     10 C8          2.9905   -4.0142   -0.0478 C.2       1 <0>        -0.1687
     11 C9          4.2782   -4.5173   -0.0572 C.2       1 <0>         0.4255
     12 O1          5.4287   -3.8012   -0.0582 O.3       1 <0>        -0.6676
     13 N2          4.1636   -5.8664   -0.0647 N.pl3     1 <0>        -0.5485
     14 N3          2.7924   -6.1569   -0.0597 N.2       1 <0>        -0.1288
     15 N4          2.1352   -5.0506   -0.0447 N.2       1 <0>        -0.1692
     16 H1         -0.9659    1.8804    0.0259 H         1 <0>         0.1231
     17 H2          1.1194    3.1867    0.0081 H         1 <0>         0.1271
     18 H3          3.2946    2.0138   -0.0189 H         1 <0>         0.1238
     19 H4         -0.9292   -0.5509    0.0083 H         1 <0>         0.1249
     20 H5          4.8907   -6.5084   -0.0724 H         1 <0>         0.4275
@<TRIPOS>BOND
     1    1    6 ar
     2    1    2 ar
     3    1   16 1
     4    2    3 ar
     5    2   17 1
     6    3    4 ar
     7    3   18 1
     8    4    9 1
     9    4    5 ar
    10    5    6 ar
    11    5    7 1
    12    6   19 1
    13    7    8 2
    14    8    9 1
    15    8   10 1
    16   10   15 1
    17   10   11 2
    18   11   12 1
    19   11   13 1
    20   13   20 1
    21   13   14 1
    22   14   15 2
@<TRIPOS>MOLECULE
ZINC13110826
   22    23     0     0     0
SMALL
USER_CHARGES

@<TRIPOS>ATOM
      1 C1         -0.0184    1.5028    0.0103 C.3       1 <0>        -0.0898
      2 C2          0.0021   -0.0041    0.0020 C.2       1 <0>         0.0499
      3 C3          0.0083   -0.7887   -1.0946 C.2       1 <0>        -0.2048
      4 C4          0.0288   -2.1282   -0.6564 C.2       1 <0>        -0.1954
      5 C5          0.0343   -2.1130    0.6919 C.2       1 <0>         0.0261
      6 N1          0.0235   -0.8108    1.1039 N.pl3     1 <0>        -0.3523
      7 C6          0.0297   -0.3751    2.4356 C.2       1 <0>         0.4295
      8 N2          0.0097    0.9007    2.8352 N.2       1 <0>        -0.5692
      9 C7          0.0223    0.9530    4.1506 C.2       1 <0>         0.4708
     10 N3          0.0510   -0.3141    4.6171 N.pl3     1 <0>        -0.4968
     11 H1          0.0655   -0.5907    5.5467 H         1 <0>         0.4349
     12 N4          0.0503   -1.1521    3.4904 N.2       1 <0>        -0.3629
     13 S1          0.0056    2.4178    5.1298 S.3       1 <0>        -0.7805
     14 C8          0.0545   -3.3236    1.5892 C.3       1 <0>        -0.0841
     15 H2          1.0042    1.8801    0.0026 H         1 <0>         0.0667
     16 H3         -0.5455    1.8639   -0.8728 H         1 <0>         0.0679
     17 H4         -0.5286    1.8543    0.9071 H         1 <0>         0.0950
     18 H5         -0.0011   -0.4524   -2.1209 H         1 <0>         0.1387
     19 H6          0.0379   -3.0060   -1.2855 H         1 <0>         0.1379
     20 H7          1.0870   -3.6013    1.8015 H         1 <0>         0.0655
     21 H8         -0.4588   -3.0927    2.5226 H         1 <0>         0.0815
     22 H9         -0.4499   -4.1524    1.0925 H         1 <0>         0.0715
@<TRIPOS>BOND
     1    1    2 1
     2    1   15 1
     3    1   16 1
     4    1   17 1
     5    2    6 1
     6    2    3 2
     7    3    4 1
     8    3   18 1
     9    4    5 2
    10    4   19 1
    11    5    6 1
    12    5   14 1
    13    6    7 1
    14    7   12 2
    15    7    8 1
    16    8    9 2
    17    9   10 1
    18    9   13 1
    19   10   11 1
    20   10   12 1
    21   14   20 1
    22   14   21 1
    23   14   22 1
@<TRIPOS>MOLECULE
ZINC64069987
   29    30     0     0     0
SMALL
USER_CHARGES

@<TRIPOS>ATOM
      1 C1         -0.0187    1.5258    0.0104 C.3       1 <0>        -0.1398
      2 C2          0.0021   -0.0041    0.0020 C.3       1 <0>         0.0929
      3 H1         -1.0109   -0.4061    0.0220 H         1 <0>         0.0788
      4 C3          0.7874   -0.5410   -1.2198 C.3       1 <0>        -0.0488
      5 H2          0.1089   -0.8496   -2.0151 H         1 <0>         0.0898
      6 C4          1.5052   -1.7389   -0.6215 C.2       1 <0>        -0.2019
      7 C5          1.4359   -1.6249    0.6872 C.2       1 <0>         0.0423
      8 O1          0.7816   -0.5153    1.1009 O.3       1 <0>        -0.3134
      9 C6          2.0286   -2.6347    1.6359 C.3       1 <0>        -0.0852
     10 C7          2.1728   -2.8527   -1.3862 C.3       1 <0>        -0.0717
     11 C8          1.7718    0.4839   -1.7215 C.2       1 <0>         0.4411
     12 O2          1.3704    1.4376   -2.5840 O.3       1 <0>        -0.6748
     13 N1          3.0104    0.4475   -1.3212 N.2       1 <0>        -0.6474
     14 C9          3.9011    1.3748   -1.7752 C.2       1 <0>         0.5163
     15 N2          5.2128    1.4501   -1.4469 N.pl3     1 <0>        -0.5189
     16 H3          5.6976    0.8607   -0.8482 H         1 <0>         0.4219
     17 N3          5.7308    2.5519   -2.1466 N.2       1 <0>        -0.3822
     18 C10         4.7461    3.0667   -2.8348 C.2       1 <0>         0.1891
     19 N4          3.6409    2.3570   -2.6180 N.2       1 <0>        -0.5641
     20 H4          1.0039    1.9031    0.0027 H         1 <0>         0.0692
     21 H5         -0.5459    1.8868   -0.8726 H         1 <0>         0.0803
     22 H6         -0.5289    1.8773    0.9072 H         1 <0>         0.0505
     23 H7          3.0572   -2.3568    1.8662 H         1 <0>         0.0734
     24 H8          1.4436   -2.6564    2.5554 H         1 <0>         0.0635
     25 H9          2.0138   -3.6211    1.1724 H         1 <0>         0.0754
     26 H10         3.2152   -2.5930   -1.5706 H         1 <0>         0.0662
     27 H11         2.1251   -3.7728   -0.8038 H         1 <0>         0.0544
     28 H12         1.6609   -2.9980   -2.3375 H         1 <0>         0.0527
     29 H13         4.8185    3.9292   -3.4807 H         1 <0>         0.1903
@<TRIPOS>BOND
     1    1    2 1
     2    1   20 1
     3    1   21 1
     4    1   22 1
     5    2    3 1
     6    2    8 1
     7    2    4 1
     8    4    5 1
     9    4    6 1
    10    4   11 1
    11    6    7 2
    12    6   10 1
    13    7    8 1
    14    7    9 1
    15    9   23 1
    16    9   24 1
    17    9   25 1
    18   10   26 1
    19   10   27 1
    20   10   28 1
    21   11   12 1
    22   11   13 2
    23   13   14 1
    24   14   19 2
    25   14   15 1
    26   15   16 1
    27   15   17 1
    28   17   18 2
    29   18   19 1
    30   18   29 1
@<TRIPOS>MOLECULE
ZINC12428528
   19    20     0     0     0
SMALL
USER_CHARGES
4-fluoro-3-(tetrazol-1-yl)aniline
@<TRIPOS>ATOM
      1 C1          1.1761    2.1051    0.0021 C.ar      1 <0>        -0.1635
      2 C2          1.1587    3.4870    0.0088 C.ar      1 <0>        -0.0718
      3 C3         -0.0463    4.1657    0.0230 C.ar      1 <0>         0.0331
      4 C4         -1.2436    3.4584    0.0311 C.ar      1 <0>         0.1546
      5 C5         -1.2280    2.0720    0.0191 C.ar      1 <0>        -0.1627
      6 C6         -0.0169    1.3940    0.0097 C.ar      1 <0>         0.2357
      7 N1          0.0021   -0.0041    0.0020 N.pl3     1 <0>        -0.8652
      8 N2         -2.4661    4.1470    0.0455 N.pl3     1 <0>        -0.3325
      9 C7         -2.6538    5.4843    0.0586 C.2       1 <0>         0.2305
     10 N3         -3.9442    5.6952    0.0671 N.2       1 <0>        -0.3283
     11 N4         -4.5848    4.5822    0.0683 N.2       1 <0>        -0.0288
     12 N5         -3.7581    3.5926    0.0556 N.2       1 <0>        -0.0756
     13 F1         -0.0602    5.5167    0.0295 F         1 <0>        -0.1336
     14 H1          2.1184    1.5776   -0.0093 H         1 <0>         0.1437
     15 H2          2.0876    4.0378    0.0025 H         1 <0>         0.1536
     16 H3         -2.1566    1.5205    0.0206 H         1 <0>         0.1500
     17 H4          0.8486   -0.4776   -0.0086 H         1 <0>         0.4066
     18 H5         -0.8313   -0.5005    0.0073 H         1 <0>         0.4056
     19 H6         -1.8816    6.2394    0.0600 H         1 <0>         0.2484
@<TRIPOS>BOND
     1    1    6 ar
     2    1    2 ar
     3    1   14 1
     4    2    3 ar
     5    2   15 1
     6    3    4 ar
     7    3   13 1
     8    4    5 ar
     9    4    8 1
    10    5    6 ar
    11    5   16 1
    12    6    7 1
    13    7   17 1
    14    7   18 1
    15    8   12 1
    16    8    9 1
    17    9   10 2
    18    9   19 1
    19   10   11 1
    20   11   12 2
@<TRIPOS>MOLECULE
ZINC35841513
   24    26     0     0     0
SMALL
USER_CHARGES

@<TRIPOS>ATOM
      1 C1          0.1246    1.1107    0.7718 C.ar      1 <0>        -0.2379
      2 C2          1.3884    1.6384    0.9758 C.ar      1 <0>         0.0152
      3 C3          2.4339    1.1929    0.1608 C.ar      1 <0>        -0.1713
      4 C4          2.1596    0.2321   -0.8272 C.ar      1 <0>         0.4597
      5 N1          0.9324   -0.2393   -0.9796 N.ar      1 <0>        -0.5416
      6 C5         -0.0674    0.1680   -0.2211 C.ar      1 <0>         0.1861
      7 N2          3.1789   -0.2236   -1.6464 N.pl3     1 <0>        -0.8299
      8 C6          3.7997    1.7224    0.3349 C.2       1 <0>         0.3362
      9 N3          4.8876    0.9928    0.3895 N.2       1 <0>        -0.4656
     10 C7          5.9568    1.8116    0.5548 C.ar      1 <0>         0.2340
     11 C8          5.4521    3.1228    0.6002 C.ar      1 <0>        -0.0497
     12 O1          4.1129    3.0262    0.4553 O.3       1 <0>        -0.1997
     13 C9          6.3307    4.1830    0.7638 C.ar      1 <0>        -0.0376
     14 C10         7.6835    3.9031    0.8769 C.ar      1 <0>        -0.1526
     15 C11         8.1146    2.5882    0.8239 C.ar      1 <0>         0.1298
     16 N4          7.2645    1.5953    0.6680 N.ar      1 <0>        -0.4398
     17 H1         -0.7040    1.4298    1.3867 H         1 <0>         0.1454
     18 H2          1.5624    2.3761    1.7451 H         1 <0>         0.1424
     19 H3         -1.0537   -0.2428   -0.3786 H         1 <0>         0.1677
     20 H4          4.0576    0.1848   -1.6002 H         1 <0>         0.4135
     21 H5          3.0143   -0.9512   -2.2664 H         1 <0>         0.4107
     22 H6          5.9703    5.2004    0.8018 H         1 <0>         0.1501
     23 H7          8.3961    4.7045    1.0050 H         1 <0>         0.1584
     24 H8          9.1693    2.3731    0.9119 H         1 <0>         0.1764
@<TRIPOS>BOND
     1    1    6 ar
     2    1    2 ar
     3    1   17 1
     4    2    3 ar
     5    2   18 1
     6    3    4 ar
     7    3    8 1
     8    4    5 ar
     9    4    7 1
    10    5    6 ar
    11    6   19 1
    12    7   20 1
    13    7   21 1
    14    8   12 1
    15    8    9 2
    16    9   10 1
    17   10   16 ar
    18   10   11 ar
    19   11   12 1
    20   11   13 ar
    21   13   14 ar
    22   13   22 1
    23   14   15 ar
    24   14   23 1
    25   15   16 ar
    26   15   24 1
@<TRIPOS>MOLECULE
ZINC43575669
   25    26     0     0     0
SMALL
USER_CHARGES

@<TRIPOS>ATOM
      1 C1          2.0616    2.4633    1.9288 C.3       1 <0>        -0.1714
      2 C2          1.0444    1.5683    1.2181 C.3       1 <0>         0.1136
      3 N1          1.1656    0.1973    1.7198 N.pl3     1 <0>        -0.3727
      4 C3          1.9780   -0.7828    1.2509 C.2       1 <0>         0.2992
      5 N2          1.7635   -1.8495    1.9933 N.2       1 <0>        -0.3176
      6 N3          0.8769   -1.6027    2.8889 N.2       1 <0>        -0.0393
      7 N4          0.4695   -0.3835    2.7942 N.2       1 <0>        -0.0825
      8 C4          2.9246   -0.6744    0.1205 C.ar      1 <0>        -0.1413
      9 C5          2.5067   -0.1214   -1.0913 C.ar      1 <0>        -0.0129
     10 C6          3.3906   -0.0210   -2.1428 C.ar      1 <0>        -0.2057
     11 C7          4.6998   -0.4699   -1.9996 C.ar      1 <0>         0.2723
     12 C8          5.1210   -1.0212   -0.7953 C.ar      1 <0>        -0.2389
     13 C9          4.2418   -1.1200    0.2645 C.ar      1 <0>         0.2048
     14 F1          4.6522   -1.6512    1.4369 F         1 <0>        -0.1186
     15 N5          5.5911   -0.3668   -3.0667 N.pl3     1 <0>        -0.8606
     16 H1          3.0686    2.0934    1.7355 H         1 <0>         0.0652
     17 H2          1.9714    3.4834    1.5556 H         1 <0>         0.0886
     18 H3          1.8697    2.4506    3.0017 H         1 <0>         0.0697
     19 H4          0.0374    1.9382    1.4114 H         1 <0>         0.1109
     20 H5          1.2363    1.5810    0.1452 H         1 <0>         0.1053
     21 H6          1.4908    0.2272   -1.2044 H         1 <0>         0.1363
     22 H7          3.0669    0.4065   -3.0802 H         1 <0>         0.1387
     23 H8          6.1378   -1.3691   -0.6873 H         1 <0>         0.1448
     24 H9          5.2982    0.0176   -3.9078 H         1 <0>         0.4065
     25 H10         6.5040   -0.6793   -2.9681 H         1 <0>         0.4057
@<TRIPOS>BOND
     1    1    2 1
     2    1   16 1
     3    1   17 1
     4    1   18 1
     5    2    3 1
     6    2   19 1
     7    2   20 1
     8    3    7 1
     9    3    4 1
    10    4    5 2
    11    4    8 1
    12    5    6 1
    13    6    7 2
    14    8   13 ar
    15    8    9 ar
    16    9   10 ar
    17    9   21 1
    18   10   11 ar
    19   10   22 1
    20   11   12 ar
    21   11   15 1
    22   12   13 ar
    23   12   23 1
    24   13   14 1
    25   15   24 1
    26   15   25 1
@<TRIPOS>MOLECULE
ZINC54404742
   22    23     0     0     0
SMALL
USER_CHARGES

@<TRIPOS>ATOM
      1 C1         -0.0184    1.5028    0.0103 C.3       1 <0>        -0.0998
      2 C2          0.0021   -0.0041    0.0020 C.2       1 <0>         0.1347
      3 C3          0.0083   -0.7949   -1.0937 C.2       1 <0>        -0.2887
      4 C4          0.0283   -2.1327   -0.6615 C.2       1 <0>         0.3515
      5 N1          0.0337   -2.1398    0.6504 N.2       1 <0>        -0.3205
      6 N2          0.0234   -0.8117    1.0956 N.pl3     1 <0>        -0.3175
      7 C5          0.0310   -0.3923    2.4244 C.ar      1 <0>         0.5683
      8 N3          0.0112    0.9036    2.6925 N.ar      1 <0>        -0.5395
      9 C6          0.0176    1.3359    3.9426 C.ar      1 <0>         0.1809
     10 C7          0.0455    0.4131    4.9766 C.ar      1 <0>        -0.2545
     11 C8          0.0657   -0.9362    4.6593 C.ar      1 <0>         0.1813
     12 N4          0.0524   -1.2998    3.3877 N.ar      1 <0>        -0.5147
     13 N5          0.0395   -3.2609   -1.4874 N.pl3     1 <0>        -0.8368
     14 H1          1.0042    1.8801    0.0026 H         1 <0>         0.0822
     15 H2         -0.5455    1.8639   -0.8728 H         1 <0>         0.0817
     16 H3         -0.5286    1.8543    0.9071 H         1 <0>         0.1000
     17 H4         -0.0007   -0.4588   -2.1200 H         1 <0>         0.1585
     18 H5          0.0017    2.3947    4.1550 H         1 <0>         0.1803
     19 H6          0.0517    0.7381    6.0065 H         1 <0>         0.1556
     20 H7          0.0876   -1.6813    5.4408 H         1 <0>         0.1778
     21 H8          0.0336   -3.1561   -2.4517 H         1 <0>         0.4127
     22 H9          0.0532   -4.1483   -1.0960 H         1 <0>         0.4062
@<TRIPOS>BOND
     1    1    2 1
     2    1   14 1
     3    1   15 1
     4    1   16 1
     5    2    6 1
     6    2    3 2
     7    3    4 1
     8    3   17 1
     9    4    5 2
    10    4   13 1
    11    5    6 1
    12    6    7 1
    13    7   12 ar
    14    7    8 ar
    15    8    9 ar
    16    9   10 ar
    17    9   18 1
    18   10   11 ar
    19   10   19 1
    20   11   12 ar
    21   11   20 1
    22   13   21 1
    23   13   22 1
@<TRIPOS>MOLECULE
ZINC63216349
   22    23     0     0     0
SMALL
USER_CHARGES

@<TRIPOS>ATOM
      1 C1         -0.0395   -3.2960   -1.4809 C.3       1 <0>         0.0883
      2 N1         -0.0075   -2.0889   -0.6515 N.pl3     1 <0>        -0.3796
      3 C2          0.1026   -0.8109   -1.0818 C.2       1 <0>         0.3362
      4 N2          0.0931   -0.0272   -0.0221 N.2       1 <0>        -0.5384
      5 C3         -0.0200   -0.7633    1.0803 C.2       1 <0>         0.2059
      6 N3         -0.0909   -2.0263    0.7490 N.2       1 <0>        -0.3204
      7 C4          0.2136   -0.3718   -2.4896 C.ar      1 <0>        -0.1543
      8 C5         -0.1662   -1.2272   -3.5330 C.ar      1 <0>        -0.0197
      9 C6         -0.0451   -0.7734   -4.8303 C.ar      1 <0>        -0.2378
     10 C7          0.4466    0.5097   -5.0592 C.ar      1 <0>         0.4217
     11 N4          0.7975    1.2935   -4.0505 N.ar      1 <0>        -0.5429
     12 C8          0.6920    0.9004   -2.7974 C.ar      1 <0>         0.2149
     13 N5          0.5711    0.9729   -6.3617 N.pl3     1 <0>        -0.8420
     14 H1         -1.0558   -3.4655   -1.8367 H         1 <0>         0.0832
     15 H2          0.6275   -3.1688   -2.3336 H         1 <0>         0.0936
     16 H3          0.2859   -4.1519   -0.8896 H         1 <0>         0.0981
     17 H4         -0.0527   -0.3784    2.0888 H         1 <0>         0.2207
     18 H5         -0.5442   -2.2177   -3.3265 H         1 <0>         0.1407
     19 H6         -0.3281   -1.4057   -5.6589 H         1 <0>         0.1398
     20 H7          0.9832    1.5692   -2.0009 H         1 <0>         0.1723
     21 H8          0.3165    0.4043   -7.1051 H         1 <0>         0.4115
     22 H9          0.9128    1.8653   -6.5285 H         1 <0>         0.4083
@<TRIPOS>BOND
     1    1    2 1
     2    1   14 1
     3    1   15 1
     4    1   16 1
     5    2    6 1
     6    2    3 1
     7    3    4 2
     8    3    7 1
     9    4    5 1
    10    5    6 2
    11    5   17 1
    12    7   12 ar
    13    7    8 ar
    14    8    9 ar
    15    8   18 1
    16    9   10 ar
    17    9   19 1
    18   10   11 ar
    19   10   13 1
    20   11   12 ar
    21   12   20 1
    22   13   21 1
    23   13   22 1
@<TRIPOS>MOLECULE
ZINC12382010
   36    36     0     0     0
SMALL
USER_CHARGES
(2R)-2-(cyclohexanecarbonylamino)-3-methyl-butanoic acid
@<TRIPOS>ATOM
      1 C1          0.6054    5.1539    1.2733 C.3       1 <0>        -0.1423
      2 C2          0.5460    3.6251    1.2656 C.3       1 <0>        -0.0805
      3 C3         -0.9151    3.1714    1.2771 C.3       1 <0>        -0.1573
      4 C4          1.2350    3.0943    0.0069 C.3       1 <0>         0.1083
      5 H1          0.7578    3.4904   -0.9016 H         1 <0>         0.0840
      6 C5          1.1765    1.5884   -0.0006 C.2       1 <0>         0.4591
      7 O1          2.1986    0.9442   -0.0139 O.co2     1 <0>        -0.6311
      8 O2         -0.0110    0.9628    0.0073 O.co2     1 <0>        -0.7586
      9 N1          2.6340    3.5287   -0.0041 N.am      1 <0>        -0.7095
     10 C6          3.2966    3.6377   -1.1727 C.2       1 <0>         0.5186
     11 O3          2.7347    3.3760   -2.2151 O.2       1 <0>        -0.5531
     12 C7          4.7358    4.0846   -1.1840 C.3       1 <0>        -0.1036
     13 C8          4.8410    5.4811   -0.5679 C.3       1 <0>        -0.1083
     14 C9          6.3022    5.9348   -0.5794 C.3       1 <0>        -0.1175
     15 C10         6.8128    5.9737   -2.0212 C.3       1 <0>        -0.1205
     16 C11         6.7075    4.5772   -2.6373 C.3       1 <0>        -0.1196
     17 C12         5.2464    4.1235   -2.6258 C.3       1 <0>        -0.0988
     18 H2          1.6559    5.4801    1.2650 H         1 <0>         0.0489
     19 H3          0.1101    5.5355    2.1783 H         1 <0>         0.0487
     20 H4          0.0929    5.5452    0.3821 H         1 <0>         0.0503
     21 H5          1.0584    3.2337    2.1568 H         1 <0>         0.0639
     22 H6         -0.9578    2.0722    1.2716 H         1 <0>         0.1095
     23 H7         -1.4276    3.5627    0.3859 H         1 <0>         0.0437
     24 H8         -1.4104    3.5530    2.1821 H         1 <0>         0.0333
     25 H9          3.1437    3.7659    0.9414 H         1 <0>         0.4043
     26 H10         5.3307    3.3705   -0.5956 H         1 <0>         0.0934
     27 H11         4.2333    6.1868   -1.1533 H         1 <0>         0.0655
     28 H12         4.4738    5.4532    0.4686 H         1 <0>         0.0660
     29 H13         6.3779    6.9388   -0.1364 H         1 <0>         0.0615
     30 H14         6.9099    5.2290    0.0059 H         1 <0>         0.0634
     31 H15         6.2051    6.6795   -2.6065 H         1 <0>         0.0610
     32 H16         7.8633    6.2999   -2.0295 H         1 <0>         0.0584
     33 H17         7.0746    4.6051   -3.6739 H         1 <0>         0.0615
     34 H18         7.3152    3.8714   -2.0520 H         1 <0>         0.0614
     35 H19         5.1707    3.1195   -3.0688 H         1 <0>         0.0693
     36 H20         4.6387    4.8293   -3.2111 H         1 <0>         0.0669
@<TRIPOS>BOND
     1    1    2 1
     2    1   18 1
     3    1   19 1
     4    1   20 1
     5    2    3 1
     6    2    4 1
     7    2   21 1
     8    3   22 1
     9    3   23 1
    10    3   24 1
    11    4    5 1
    12    4    6 1
    13    4    9 1
    14    6    7 2
    15    6    8 1
    16    9   10 am
    17    9   25 1
    18   10   11 2
    19   10   12 1
    20   12   17 1
    21   12   13 1
    22   12   26 1
    23   13   14 1
    24   13   27 1
    25   13   28 1
    26   14   15 1
    27   14   29 1
    28   14   30 1
    29   15   16 1
    30   15   31 1
    31   15   32 1
    32   16   17 1
    33   16   33 1
    34   16   34 1
    35   17   35 1
    36   17   36 1
@<TRIPOS>MOLECULE
ZINC36946937
   31    31     0     0     0
SMALL
USER_CHARGES

@<TRIPOS>ATOM
      1 C1         -0.7701    1.3583    0.0874 C.3       1 <0>        -0.1198
      2 C2         -0.2219   -0.0440    0.0251 C.2       1 <0>        -0.0567
      3 C3          0.1224   -0.6738    1.1447 C.2       1 <0>        -0.2165
      4 C4          0.1249    0.0506    2.4250 C.2       1 <0>         0.5477
      5 O1         -0.0740    1.2502    2.4453 O.2       1 <0>        -0.5205
      6 N1          0.3476   -0.6151    3.5755 N.am      1 <0>        -0.7034
      7 C5          0.3500    0.1063    4.8506 C.3       1 <0>         0.1299
      8 C6          1.4405    1.1792    4.8274 C.3       1 <0>        -0.1358
      9 C7          0.6247   -0.8754    5.9915 C.3       1 <0>        -0.1481
     10 C8         -0.4794   -1.0769    7.0313 C.3       1 <0>        -0.1785
     11 C9          0.7843   -0.2964    7.3987 C.3       1 <0>        -0.1617
     12 C10        -0.9920    0.7586    5.0613 C.2       1 <0>         0.5084
     13 O2         -1.8693    0.6325    4.2240 O.co2     1 <0>        -0.6753
     14 O3         -1.2006    1.4123    6.0691 O.co2     1 <0>        -0.6970
     15 C11        -0.0640   -0.7329   -1.3059 C.3       1 <0>        -0.1194
     16 H1          0.0549    2.0692    0.1340 H         1 <0>         0.0716
     17 H2         -1.3687    1.5543   -0.8022 H         1 <0>         0.0448
     18 H3         -1.3929    1.4659    0.9754 H         1 <0>         0.0978
     19 H4          0.4002   -1.7170    1.1140 H         1 <0>         0.1152
     20 H5          0.5062   -1.5719    3.5593 H         1 <0>         0.3828
     21 H6          1.2449    1.8786    4.0146 H         1 <0>         0.0675
     22 H7          1.4424    1.7160    5.7761 H         1 <0>         0.0614
     23 H8          2.4113    0.7074    4.6750 H         1 <0>         0.0343
     24 H9          1.2349   -1.7402    5.7309 H         1 <0>         0.0906
     25 H10        -1.4015   -0.5100    6.9026 H         1 <0>         0.1185
     26 H11        -0.5959   -2.0744    7.4550 H         1 <0>         0.0754
     27 H12         1.4992   -0.7805    8.0640 H         1 <0>         0.0788
     28 H13         0.6936    0.7839    7.5117 H         1 <0>         0.1065
     29 H14         0.9270   -0.5229   -1.7084 H         1 <0>         0.0721
     30 H15        -0.1824   -1.8085   -1.1747 H         1 <0>         0.0640
     31 H16        -0.8223   -0.3655   -1.9974 H         1 <0>         0.0655
@<TRIPOS>BOND
     1    1    2 1
     2    1   16 1
     3    1   17 1
     4    1   18 1
     5    2    3 2
     6    2   15 1
     7    3    4 1
     8    3   19 1
     9    4    5 2
    10    4    6 am
    11    6    7 1
    12    6   20 1
    13    7    8 1
    14    7    9 1
    15    7   12 1
    16    8   21 1
    17    8   22 1
    18    8   23 1
    19    9   11 1
    20    9   10 1
    21    9   24 1
    22   10   11 1
    23   10   25 1
    24   10   26 1
    25   11   27 1
    26   11   28 1
    27   12   13 2
    28   12   14 1
    29   15   29 1
    30   15   30 1
    31   15   31 1
@<TRIPOS>MOLECULE
ZINC41037386
   34    34     0     0     0
SMALL
USER_CHARGES

@<TRIPOS>ATOM
      1 C1         -0.0184    1.5028    0.0103 C.3       1 <0>        -0.1269
      2 C2          0.0021   -0.0041    0.0020 C.2       1 <0>        -0.0931
      3 C3          0.5964   -0.6665    0.9903 C.2       1 <0>        -0.2015
      4 C4          0.6164   -2.1373    0.9822 C.2       1 <0>         0.5471
      5 O1          0.0894   -2.7476    0.0718 O.2       1 <0>        -0.5270
      6 N1          1.2187   -2.8086    1.9837 N.am      1 <0>        -0.6997
      7 C5          1.2385   -4.2735    1.9757 C.3       1 <0>         0.1161
      8 C6         -0.1968   -4.8031    1.9865 C.3       1 <0>        -0.1136
      9 C7         -0.9130   -4.3096    3.2453 C.3       1 <0>        -0.1135
     10 C8         -0.1730   -4.8165    4.4849 C.3       1 <0>        -0.1164
     11 C9          1.2624   -4.2869    4.4740 C.3       1 <0>        -0.1128
     12 C10         1.9785   -4.7803    3.2152 C.3       1 <0>        -0.0758
     13 H1          3.0011   -4.4030    3.2075 H         1 <0>         0.0609
     14 C11         1.9993   -6.3102    3.2068 C.3       1 <0>        -0.1517
     15 C12         1.9439   -4.7595    0.7358 C.2       1 <0>         0.5020
     16 O2          2.3888   -3.9567   -0.0667 O.co2     1 <0>        -0.6765
     17 O3          2.0697   -5.9555    0.5352 O.co2     1 <0>        -0.6937
     18 H2          1.0042    1.8801    0.0026 H         1 <0>         0.0691
     19 H3         -0.5455    1.8639   -0.8728 H         1 <0>         0.0634
     20 H4         -0.5286    1.8543    0.9071 H         1 <0>         0.0678
     21 H5         -0.4659   -0.5460   -0.8065 H         1 <0>         0.1237
     22 H6          1.0644   -0.1245    1.7988 H         1 <0>         0.1147
     23 H7          1.6390   -2.3219    2.7099 H         1 <0>         0.3824
     24 H8         -0.7240   -4.4420    1.1035 H         1 <0>         0.0738
     25 H9         -0.1821   -5.8929    1.9805 H         1 <0>         0.0708
     26 H10        -0.9278   -3.2198    3.2513 H         1 <0>         0.0539
     27 H11        -1.9356   -4.6869    3.2531 H         1 <0>         0.0503
     28 H12        -0.6832   -4.4650    5.3817 H         1 <0>         0.0500
     29 H13        -0.1582   -5.9064    4.4789 H         1 <0>         0.0637
     30 H14         1.2476   -3.1970    4.4800 H         1 <0>         0.0533
     31 H15         1.7896   -4.6480    5.3571 H         1 <0>         0.0555
     32 H16         2.5095   -6.6617    2.3100 H         1 <0>         0.0983
     33 H17         2.5265   -6.6712    4.0899 H         1 <0>         0.0329
     34 H18         0.9767   -6.6874    3.2145 H         1 <0>         0.0523
@<TRIPOS>BOND
     1    1    2 1
     2    1   18 1
     3    1   19 1
     4    1   20 1
     5    2    3 2
     6    2   21 1
     7    3    4 1
     8    3   22 1
     9    4    5 2
    10    4    6 am
    11    6    7 1
    12    6   23 1
    13    7   12 1
    14    7    8 1
    15    7   15 1
    16    8    9 1
    17    8   24 1
    18    8   25 1
    19    9   10 1
    20    9   26 1
    21    9   27 1
    22   10   11 1
    23   10   28 1
    24   10   29 1
    25   11   12 1
    26   11   30 1
    27   11   31 1
    28   12   13 1
    29   12   14 1
    30   14   32 1
    31   14   33 1
    32   14   34 1
    33   15   16 2
    34   15   17 1
@<TRIPOS>MOLECULE
ZINC49534005
   18    19     0     0     0
SMALL
USER_CHARGES

@<TRIPOS>ATOM
      1 C1         -0.0158    1.3139    0.0093 C.2       1 <0>         0.0321
      2 C2          1.1859    1.9456    0.0012 C.2       1 <0>        -0.2308
      3 S1          2.2937    0.5453   -0.0169 S.3       1 <0>         0.1282
      4 C3          1.1295   -0.6703   -0.0123 C.2       1 <0>         0.0364
      5 N1          0.0021   -0.0041    0.0020 N.2       1 <0>        -0.5015
      6 C4          1.3347   -2.1632   -0.0223 C.3       1 <0>         0.2321
      7 N2          1.3881   -2.6396   -1.4067 N.pl3     1 <0>        -0.6870
      8 C5          1.5717   -3.9920   -1.6697 C.2       1 <0>         0.3148
      9 N3          1.7113   -4.9958   -0.8261 N.2       1 <0>        -0.3721
     10 N4          1.8837   -6.2739   -1.3051 N.2       1 <0>        -0.3489
     11 C6          1.9085   -6.4892   -2.6064 C.2       1 <0>         0.2996
     12 S2          1.6739   -4.8359   -3.2408 S.3       1 <0>        -0.1772
     13 S3          2.1125   -8.0034   -3.4840 S.3       1 <0>        -0.6993
     14 H1         -0.9439    1.8660    0.0255 H         1 <0>         0.1734
     15 H2          1.4098    3.0021    0.0047 H         1 <0>         0.1972
     16 H3          2.2708   -2.4047    0.4813 H         1 <0>         0.0922
     17 H4          0.5075   -2.6472    0.4969 H         1 <0>         0.0979
     18 H5          1.2952   -2.0112   -2.1397 H         1 <0>         0.4130
@<TRIPOS>BOND
     1    1    5 1
     2    1    2 2
     3    1   14 1
     4    2    3 1
     5    2   15 1
     6    3    4 1
     7    4    5 2
     8    4    6 1
     9    6    7 1
    10    6   16 1
    11    6   17 1
    12    7    8 1
    13    7   18 1
    14    8   12 1
    15    8    9 2
    16    9   10 1
    17   10   11 2
    18   11   12 1
    19   11   13 1
@<TRIPOS>MOLECULE
ZINC19842982
   25    26     0     0     0
SMALL
USER_CHARGES

@<TRIPOS>ATOM
      1 C1         -1.1196    0.5710   -0.0784 C.3       1 <0>        -0.0861
      2 C2          0.0089   -0.4226    0.0226 C.2       1 <0>        -0.1398
      3 C3          0.5434   -1.0379   -1.0834 C.2       1 <0>        -0.1551
      4 C4          1.5589   -1.9223   -0.9205 C.2       1 <0>        -0.2847
      5 S1          1.8231   -1.9491    0.7382 S.3       1 <0>         0.1530
      6 C5          0.5821   -0.7726    1.2421 C.2       1 <0>        -0.1065
      7 C6          0.2624   -0.3162    2.5401 C.2       1 <0>        -0.1244
      8 C7          0.0558   -1.2145    3.5485 C.2       1 <0>         0.1209
      9 C8         -0.1028   -0.9274    4.9262 C.2       1 <0>         0.4562
     10 O1         -0.0769    0.3028    5.4893 O.3       1 <0>        -0.6432
     11 N1         -0.2802   -2.0673    5.5648 N.2       1 <0>        -0.6735
     12 C9         -0.2498   -3.0932    4.7020 C.2       1 <0>         0.5660
     13 N2         -0.3954   -4.3604    5.0187 N.2       1 <0>        -0.8000
     14 N3         -0.0481   -2.6054    3.4293 N.pl3     1 <0>        -0.5682
     15 C10         0.0434   -3.3886    2.1946 C.3       1 <0>         0.1036
     16 H1         -0.7108    1.5737   -0.2036 H         1 <0>         0.0638
     17 H2         -1.7455    0.3241   -0.9359 H         1 <0>         0.0580
     18 H3         -1.7188    0.5340    0.8315 H         1 <0>         0.0677
     19 H4          0.1599   -0.8206   -2.0693 H         1 <0>         0.1202
     20 H5          2.0791   -2.4822   -1.6837 H         1 <0>         0.1726
     21 H6          0.1812    0.7429    2.7354 H         1 <0>         0.1539
     22 H7         -0.5384   -4.6159    5.9435 H         1 <0>         0.3389
     23 H8          1.0830   -3.6621    2.0141 H         1 <0>         0.0614
     24 H9         -0.5584   -4.2922    2.2922 H         1 <0>         0.0777
     25 H10        -0.3263   -2.7942    1.3591 H         1 <0>         0.0676
@<TRIPOS>BOND
     1    1    2 1
     2    1   16 1
     3    1   17 1
     4    1   18 1
     5    2    6 2
     6    2    3 1
     7    3    4 2
     8    3   19 1
     9    4    5 1
    10    4   20 1
    11    5    6 1
    12    6    7 1
    13    7    8 2
    14    7   21 1
    15    8   14 1
    16    8    9 1
    17    9   10 1
    18    9   11 2
    19   11   12 1
    20   12   13 2
    21   12   14 1
    22   13   22 1
    23   14   15 1
    24   15   23 1
    25   15   24 1
    26   15   25 1
@<TRIPOS>MOLECULE
ZINC12427759
   26    27     0     0     0
SMALL
USER_CHARGES
5-amino-2,3-dimethyl-phthalazine-1,4-dione
@<TRIPOS>ATOM
      1 C1          4.8529    4.2178   -0.6963 C.3       1 <0>         0.0726
      2 N1          3.6048    3.4729   -0.5131 N.am      1 <0>        -0.4055
      3 C2          3.6580    2.1349   -0.3630 C.2       1 <0>         0.5609
      4 O1          4.7277    1.5582   -0.3803 O.2       1 <0>        -0.5127
      5 C3          2.4032    1.3742   -0.1775 C.ar      1 <0>        -0.0594
      6 C4          2.4051   -0.0027   -0.0185 C.ar      1 <0>        -0.1189
      7 C5          1.2070   -0.6786    0.1532 C.ar      1 <0>        -0.0477
      8 C6          0.0085    0.0050    0.1678 C.ar      1 <0>        -0.1778
      9 C7         -0.0168    1.3897    0.0097 C.ar      1 <0>         0.2780
     10 C8          1.1829    2.0816   -0.1640 C.ar      1 <0>        -0.2042
     11 C9          1.2135    3.5454   -0.3361 C.2       1 <0>         0.5735
     12 O2          0.1790    4.1844   -0.3304 O.2       1 <0>        -0.5312
     13 N2          2.3959    4.1701   -0.4998 N.am      1 <0>        -0.4052
     14 C10         2.4131    5.6251   -0.6693 C.3       1 <0>         0.0778
     15 N3         -1.2250    2.0738    0.0191 N.pl3     1 <0>        -0.8546
     16 H1          5.6947    3.5255   -0.6820 H         1 <0>         0.1136
     17 H2          4.8277    4.7395   -1.6530 H         1 <0>         0.0750
     18 H3          4.9650    4.9427    0.1100 H         1 <0>         0.0745
     19 H4          3.3375   -0.5476   -0.0280 H         1 <0>         0.1426
     20 H5          1.2117   -1.7515    0.2766 H         1 <0>         0.1393
     21 H6         -0.9162   -0.5364    0.3030 H         1 <0>         0.1369
     22 H7          2.3382    5.8683   -1.7292 H         1 <0>         0.0712
     23 H8          1.5696    6.0631   -0.1356 H         1 <0>         0.1004
     24 H9          3.3442    6.0265   -0.2693 H         1 <0>         0.0845
     25 H10        -2.0205    1.6483    0.3756 H         1 <0>         0.4000
     26 H11        -1.2736    2.9772   -0.3308 H         1 <0>         0.4164
@<TRIPOS>BOND
     1    1    2 1
     2    1   16 1
     3    1   17 1
     4    1   18 1
     5    2   13 1
     6    2    3 am
     7    3    4 2
     8    3    5 1
     9    5   10 ar
    10    5    6 ar
    11    6    7 ar
    12    6   19 1
    13    7    8 ar
    14    7   20 1
    15    8    9 ar
    16    8   21 1
    17    9   10 ar
    18    9   15 1
    19   10   11 1
    20   11   12 2
    21   11   13 am
    22   13   14 1
    23   14   22 1
    24   14   23 1
    25   14   24 1
    26   15   25 1
    27   15   26 1
@<TRIPOS>MOLECULE
ZINC05555625
   18    19     0     0     0
SMALL
USER_CHARGES

@<TRIPOS>ATOM
      1 C1         -0.0184    1.5028    0.0103 C.3       1 <0>        -0.0924
      2 C2          0.0021   -0.0041    0.0020 C.2       1 <0>         0.0913
      3 C3          0.0060   -0.7307   -1.2695 C.2       1 <0>         0.4990
      4 O1         -0.0071   -0.1298   -2.3345 O.2       1 <0>        -0.4534
      5 N1          0.0248   -2.0677   -1.2374 N.2       1 <0>        -0.5508
      6 C4          0.0392   -2.7031   -0.0929 C.2       1 <0>         0.3700
      7 N2          0.0365   -2.0792    1.1286 N.pl3     1 <0>        -0.3996
      8 N3          0.0216   -0.6606    1.1223 N.2       1 <0>        -0.2218
      9 C5          0.0532   -2.8920    2.2360 C.2       1 <0>         0.3985
     10 C6          0.0711   -4.2259    2.1133 C.2       1 <0>        -0.3140
     11 S1          0.0653   -4.4294    0.3390 S.3       1 <0>         0.1739
     12 N4          0.0518   -2.3175    3.5123 N.pl3     1 <0>        -0.8491
     13 H1          1.0042    1.8801    0.0026 H         1 <0>         0.1013
     14 H2         -0.5455    1.8639   -0.8728 H         1 <0>         0.1044
     15 H3         -0.5286    1.8543    0.9071 H         1 <0>         0.0910
     16 H4          0.0857   -4.9808    2.8854 H         1 <0>         0.2203
     17 H5          0.0392   -1.3525    3.6098 H         1 <0>         0.4093
     18 H6          0.0635   -2.8844    4.2994 H         1 <0>         0.4220
@<TRIPOS>BOND
     1    1    2 1
     2    1   13 1
     3    1   14 1
     4    1   15 1
     5    2    8 2
     6    2    3 1
     7    3    4 2
     8    3    5 1
     9    5    6 2
    10    6   11 1
    11    6    7 1
    12    7    8 1
    13    7    9 1
    14    9   10 2
    15    9   12 1
    16   10   11 1
    17   10   16 1
    18   12   17 1
    19   12   18 1
@<TRIPOS>MOLECULE
ZINC42240563
   29    29     0     0     0
SMALL
USER_CHARGES

@<TRIPOS>ATOM
      1 C1         -1.5252   -0.2275   -0.2334 C.3       1 <0>        -0.1544
      2 C2         -0.0226   -0.0174   -0.0365 C.3       1 <0>        -0.1309
      3 C3          0.7364   -0.6227   -1.2191 C.3       1 <0>         0.1072
      4 H1          0.3515   -0.2105   -2.1519 H         1 <0>         0.1138
      5 C4          0.5642   -2.1459   -1.2179 C.3       1 <0>         0.0562
      6 O1          1.2346   -2.6945   -0.0806 O.3       1 <0>        -0.3697
      7 C5          2.6476   -2.4774   -0.0732 C.3       1 <0>         0.0756
      8 H2          3.0849   -2.8942   -0.9804 H         1 <0>         0.0663
      9 C6          2.9265   -0.9711   -0.0157 C.3       1 <0>         0.0897
     10 N1          2.1705   -0.3168   -1.0965 N.pl3     1 <0>        -1.0041
     11 S1          2.9113    0.7307   -2.1435 S.o2      1 <0>         2.7921
     12 O2          4.2631    0.3067   -2.2535 O.2       1 <0>        -0.9778
     13 O3          2.0560    0.8496   -3.2720 O.2       1 <0>        -0.9765
     14 N2          2.9392    2.2161   -1.4121 N.pl3     1 <0>        -1.2585
     15 C7          3.2630   -3.1591    1.1506 C.3       1 <0>        -0.1456
     16 H3         -1.8224    0.1638   -1.2064 H         1 <0>         0.0580
     17 H4         -1.7525   -1.2925   -0.1854 H         1 <0>         0.0611
     18 H5         -2.0713    0.2963    0.5511 H         1 <0>         0.0609
     19 H6          0.1902    1.0499    0.0238 H         1 <0>         0.0622
     20 H7          0.2945   -0.5038    0.8860 H         1 <0>         0.0771
     21 H8         -0.4964   -2.3924   -1.1692 H         1 <0>         0.1109
     22 H9          0.9939   -2.5616   -2.1294 H         1 <0>         0.0579
     23 H10         2.6063   -0.5749    0.9480 H         1 <0>         0.0800
     24 H11         3.9926   -0.7896   -0.1519 H         1 <0>         0.1012
     25 H12         3.6917    2.8119   -1.5525 H         1 <0>         0.4207
     26 H13         2.2030    2.4905   -0.8432 H         1 <0>         0.4149
     27 H14         3.0604   -4.2293    1.1105 H         1 <0>         0.0695
     28 H15         4.3402   -2.9931    1.1556 H         1 <0>         0.0757
     29 H16         2.8266   -2.7405    2.0575 H         1 <0>         0.0665
@<TRIPOS>BOND
     1    1    2 1
     2    1   16 1
     3    1   17 1
     4    1   18 1
     5    2    3 1
     6    2   19 1
     7    2   20 1
     8    3    4 1
     9    3   10 1
    10    3    5 1
    11    5    6 1
    12    5   21 1
    13    5   22 1
    14    6    7 1
    15    7    8 1
    16    7    9 1
    17    7   15 1
    18    9   10 1
    19    9   23 1
    20    9   24 1
    21   10   11 1
    22   11   12 2
    23   11   13 2
    24   11   14 1
    25   14   25 1
    26   14   26 1
    27   15   27 1
    28   15   28 1
    29   15   29 1
@<TRIPOS>MOLECULE
ZINC53146374
   26    28     0     0     0
SMALL
USER_CHARGES

@<TRIPOS>ATOM
      1 C1         -0.0178    1.4608    0.0101 C.3       1 <0>         0.0976
      2 N1          0.0021   -0.0041    0.0020 N.pl3     1 <0>        -0.3665
      3 C2          0.0078   -0.7886   -1.0954 C.2       1 <0>         0.1119
      4 C3          0.0273   -2.0882   -0.6733 C.2       1 <0>        -0.1724
      5 C4          0.0335   -2.0758    0.7368 C.2       1 <0>         0.0643
      6 N2          0.0245   -0.8305    1.1318 N.2       1 <0>        -0.2855
      7 C5          0.0390   -3.2889   -1.5378 C.2       1 <0>         0.2294
      8 N3         -0.2362   -3.3271   -2.8259 N.2       1 <0>        -0.2517
      9 N4         -0.1313   -4.5313   -3.2664 N.2       1 <0>        -0.2763
     10 C6          0.2198   -5.3395   -2.2777 C.2       1 <0>         0.1616
     11 N5          0.3430   -4.5643   -1.1500 N.pl3     1 <0>        -0.3546
     12 C7          0.7049   -5.1256    0.0420 C.2       1 <0>        -0.0605
     13 C8          0.9510   -6.4560    0.1268 C.2       1 <0>         0.2042
     14 C9          0.8351   -7.2733   -1.0166 C.2       1 <0>        -0.1294
     15 C10         0.4671   -6.7236   -2.2044 C.2       1 <0>        -0.0339
     16 N6          1.3223   -7.0206    1.3540 N.pl3     1 <0>        -0.8651
     17 H1          1.0048    1.8381    0.0023 H         1 <0>         0.0809
     18 H2         -0.5450    1.8219   -0.8730 H         1 <0>         0.0942
     19 H3         -0.5280    1.8123    0.9069 H         1 <0>         0.0942
     20 H4         -0.0018   -0.4510   -2.1213 H         1 <0>         0.1905
     21 H5          0.0477   -2.9444    1.3785 H         1 <0>         0.1832
     22 H6          0.7956   -4.5058    0.9217 H         1 <0>         0.1605
     23 H7          1.0319   -8.3330   -0.9476 H         1 <0>         0.1494
     24 H8          0.3775   -7.3408   -3.0862 H         1 <0>         0.1628
     25 H9          1.4028   -6.4598    2.1413 H         1 <0>         0.4036
     26 H10         1.4988   -7.9724    1.4164 H         1 <0>         0.4074
@<TRIPOS>BOND
     1    1    2 1
     2    1   17 1
     3    1   18 1
     4    1   19 1
     5    2    6 1
     6    2    3 1
     7    3    4 2
     8    3   20 1
     9    4    5 1
    10    4    7 1
    11    5    6 2
    12    5   21 1
    13    7   11 1
    14    7    8 2
    15    8    9 1
    16    9   10 2
    17   10   15 1
    18   10   11 1
    19   11   12 1
    20   12   13 2
    21   12   22 1
    22   13   14 1
    23   13   16 1
    24   14   15 2
    25   14   23 1
    26   15   24 1
    27   16   25 1
    28   16   26 1
@<TRIPOS>MOLECULE
ZINC67642791
   29    32     0     0     0
SMALL
USER_CHARGES

@<TRIPOS>ATOM
      1 C1         -0.0189    1.5402    0.0105 C.3       1 <0>        -0.1167
      2 C2          1.4875    1.8805   -0.0020 C.3       1 <0>        -0.0447
      3 C3          2.1655    0.6782    0.6190 C.2       1 <0>        -0.1978
      4 C4          1.3309   -0.3809    0.6213 C.2       1 <0>         0.0581
      5 N1          1.9828   -1.4253    1.1850 N.pl3     1 <0>        -0.4396
      6 H1          1.6228   -2.3162    1.3171 H         1 <0>         0.4448
      7 N2          3.2661   -0.9971    1.5443 N.2       1 <0>        -0.2640
      8 C5          3.3839    0.2700    1.2063 C.2       1 <0>         0.1500
      9 C6          4.5812    1.1165    1.4055 C.2       1 <0>         0.3641
     10 N3          5.7502    0.7254    1.9622 N.pl3     1 <0>        -0.4653
     11 H2          5.9652   -0.1558    2.3058 H         1 <0>         0.4463
     12 N4          6.5906    1.8504    1.9432 N.2       1 <0>        -0.3021
     13 C7          5.9116    2.8255    1.3969 C.2       1 <0>         0.2623
     14 N5          4.7007    2.3843    1.0670 N.2       1 <0>        -0.5051
     15 C8          6.4219    4.2254    1.1717 C.3       1 <0>        -0.0753
     16 C9          7.9079    4.4853    1.4273 C.3       1 <0>        -0.1596
     17 C10         6.8584    5.0246    2.4012 C.3       1 <0>        -0.1573
     18 C11         0.0021   -0.0041    0.0020 C.3       1 <0>        -0.0470
     19 H3         -0.4960    1.9182    0.9147 H         1 <0>         0.0781
     20 H4         -0.5132    1.9279   -0.8803 H         1 <0>         0.0868
     21 H5          1.8348    2.0248   -1.0251 H         1 <0>         0.0793
     22 H6          1.6792    2.7731    0.5934 H         1 <0>         0.0814
     23 H7          5.9476    4.7734    0.3576 H         1 <0>         0.1345
     24 H8          8.5163    3.6437    1.7583 H         1 <0>         0.1039
     25 H9          8.4115    5.2044    0.7812 H         1 <0>         0.1057
     26 H10         6.6715    6.0984    2.3959 H         1 <0>         0.1069
     27 H11         6.7763    4.5378    3.3730 H         1 <0>         0.0966
     28 H12        -0.8198   -0.3974    0.6003 H         1 <0>         0.0830
     29 H13        -0.0593   -0.3782   -1.0199 H         1 <0>         0.0930
@<TRIPOS>BOND
     1    1   18 1
     2    1    2 1
     3    1   19 1
     4    1   20 1
     5    2    3 1
     6    2   21 1
     7    2   22 1
     8    3    8 1
     9    3    4 2
    10    4    5 1
    11    4   18 1
    12    5    6 1
    13    5    7 1
    14    7    8 2
    15    8    9 1
    16    9   14 2
    17    9   10 1
    18   10   11 1
    19   10   12 1
    20   12   13 2
    21   13   14 1
    22   13   15 1
    23   15   17 1
    24   15   16 1
    25   15   23 1
    26   16   17 1
    27   16   24 1
    28   16   25 1
    29   17   26 1
    30   17   27 1
    31   18   28 1
    32   18   29 1
@<TRIPOS>MOLECULE
ZINC35214872
   31    33     0     0     0
SMALL
USER_CHARGES

@<TRIPOS>ATOM
      1 C1         -0.0170    1.4030    0.0098 C.ar      1 <0>        -0.0589
      2 C2          1.1563    2.0976    0.0023 C.ar      1 <0>        -0.1327
      3 C3          2.3734    1.4168   -0.0130 C.ar      1 <0>         0.1507
      4 C4          2.3996    0.0220   -0.0207 C.ar      1 <0>        -0.0175
      5 C5          1.2340   -0.6848   -0.0139 C.ar      1 <0>        -0.0500
      6 C6          0.0021   -0.0041    0.0020 C.ar      1 <0>         0.0221
      7 C7         -1.2146   -0.7331    0.0102 C.2       1 <0>        -0.0764
      8 C8         -2.5079   -0.1745    0.0204 C.2       1 <0>        -0.1347
      9 C9         -3.3953   -1.2069    0.0249 C.2       1 <0>        -0.2361
     10 C10        -2.6366   -2.4067    0.0175 C.2       1 <0>         0.1036
     11 O1         -1.3269   -2.0733    0.0036 O.3       1 <0>        -0.1067
     12 C11        -3.1479   -3.6912    0.0196 C.2       1 <0>        -0.1614
     13 C12        -2.2720   -4.8005    0.0114 C.2       1 <0>         0.1162
     14 C13        -0.7775   -4.7634    0.0061 C.2       1 <0>         0.4900
     15 O2         -0.0663   -3.7807    0.0079 O.2       1 <0>        -0.4586
     16 N1         -0.3869   -6.0575   -0.0007 N.am      1 <0>        -0.6827
     17 C14        -1.5117   -6.8352    0.0002 C.2       1 <0>         0.4657
     18 S1         -1.5097   -8.4951   -0.0067 S.3       1 <0>        -0.6082
     19 N2         -2.6107   -6.0793    0.0127 N.2       1 <0>        -0.5650
     20 N3          3.6960   -0.6920   -0.0369 N.pl3     1 <0>        -0.0180
     21 O3          3.7225   -2.0087   -0.0443 O.2       1 <0>        -0.1748
     22 O4          4.8230   -0.0106   -0.0440 O.3       1 <0>        -0.1550
     23 O5          3.5355    2.1131   -0.0208 O.3       1 <0>        -0.4715
     24 H1         -0.9587    1.9315    0.0261 H         1 <0>         0.1497
     25 H2          1.1432    3.1775    0.0078 H         1 <0>         0.1547
     26 H3          1.2557   -1.7646   -0.0202 H         1 <0>         0.1717
     27 H4         -2.7505    0.8779    0.0242 H         1 <0>         0.1463
     28 H5         -4.4724   -1.1280    0.0331 H         1 <0>         0.1509
     29 H6         -4.2166   -3.8470    0.0276 H         1 <0>         0.1608
     30 H7          0.5287   -6.3777   -0.0057 H         1 <0>         0.4254
     31 H8          3.8815    2.3108    0.8603 H         1 <0>         0.4004
@<TRIPOS>BOND
     1    1    6 ar
     2    1    2 ar
     3    1   24 1
     4    2    3 ar
     5    2   25 1
     6    3    4 ar
     7    3   23 1
     8    4    5 ar
     9    4   20 1
    10    5    6 ar
    11    5   26 1
    12    6    7 1
    13    7   11 1
    14    7    8 2
    15    8    9 1
    16    8   27 1
    17    9   10 2
    18    9   28 1
    19   10   11 1
    20   10   12 1
    21   12   13 2
    22   12   29 1
    23   13   19 1
    24   13   14 1
    25   14   15 2
    26   14   16 am
    27   16   17 1
    28   16   30 1
    29   17   18 1
    30   17   19 2
    31   20   21 2
    32   20   22 1
    33   23   31 1
@<TRIPOS>MOLECULE
ZINC38818985
   38    41     0     0     0
SMALL
USER_CHARGES

@<TRIPOS>ATOM
      1 C1         -0.0177    1.3086   -0.6882 C.3       1 <0>        -0.1033
      2 C2         -0.0258   -0.1887   -0.5178 C.ar      1 <0>        -0.1240
      3 C3         -0.1368   -1.0198   -1.6172 C.ar      1 <0>        -0.0770
      4 C4         -0.1455   -2.3879   -1.4756 C.ar      1 <0>        -0.1631
      5 C5         -0.0425   -2.9897   -0.2087 C.ar      1 <0>         0.1810
      6 C6          0.0683   -2.1230    0.8830 C.ar      1 <0>        -0.1343
      7 C7          0.0834   -0.7537    0.7420 C.ar      1 <0>        -0.0438
      8 S1          0.1781   -3.1820    2.3075 S.3       1 <0>        -0.1468
      9 C8          0.0751   -4.7977    1.4383 C.3       1 <0>         0.2489
     10 H1         -0.8079   -5.3554    1.7505 H         1 <0>         0.1146
     11 N1         -0.0417   -4.3613    0.0403 N.pl3     1 <0>        -0.7338
     12 C9          1.3275   -5.6085    1.6508 C.ar      1 <0>        -0.1450
     13 C10         2.4006   -5.4585    0.7915 C.ar      1 <0>        -0.0652
     14 C11         3.5500   -6.1996    0.9837 C.ar      1 <0>        -0.1643
     15 C12         3.6274   -7.0964    2.0415 C.ar      1 <0>         0.2070
     16 C13         2.5478   -7.2447    2.9028 C.ar      1 <0>        -0.1152
     17 C14         1.4033   -6.4966    2.7081 C.ar      1 <0>        -0.0713
     18 N2          4.7893   -7.8486    2.2387 N.pl3     1 <0>        -0.6447
     19 C15         4.7046   -9.1323    2.7526 C.ar      1 <0>         0.5160
     20 N3          5.8159   -9.7971    3.0434 N.ar      1 <0>        -0.6251
     21 C16         5.7287  -11.0276    3.5363 C.ar      1 <0>         0.4349
     22 O1          6.8463  -11.7301    3.8429 O.3       1 <0>        -0.6775
     23 C17         4.4629  -11.5824    3.7325 C.ar      1 <0>        -0.1234
     24 N4          3.3942  -10.8726    3.4245 N.ar      1 <0>        -0.1776
     25 N5          3.5134   -9.6809    2.9534 N.ar      1 <0>        -0.4223
     26 H2          1.0073    1.6531   -0.8254 H         1 <0>         0.0666
     27 H3         -0.6115    1.5781   -1.5616 H         1 <0>         0.0640
     28 H4         -0.4429    1.7776    0.1991 H         1 <0>         0.0636
     29 H5         -0.2183   -0.5875   -2.6035 H         1 <0>         0.1237
     30 H6         -0.2334   -3.0112   -2.3532 H         1 <0>         0.1202
     31 H7          0.1758   -0.1211    1.6125 H         1 <0>         0.1260
     32 H8         -0.1165   -5.0038   -0.6826 H         1 <0>         0.4128
     33 H9          2.3395   -4.7613   -0.0310 H         1 <0>         0.1182
     34 H10         4.3875   -6.0823    0.3120 H         1 <0>         0.1227
     35 H11         2.6047   -7.9413    3.7261 H         1 <0>         0.1443
     36 H12         0.5651   -6.6084    3.3798 H         1 <0>         0.1233
     37 H13         5.6548   -7.4716    2.0157 H         1 <0>         0.4152
     38 H14         4.3597  -12.5807    4.1314 H         1 <0>         0.1546
@<TRIPOS>BOND
     1    1    2 1
     2    1   26 1
     3    1   27 1
     4    1   28 1
     5    2    7 ar
     6    2    3 ar
     7    3    4 ar
     8    3   29 1
     9    4    5 ar
    10    4   30 1
    11    5   11 1
    12    5    6 ar
    13    6    7 ar
    14    6    8 1
    15    7   31 1
    16    8    9 1
    17    9   10 1
    18    9   11 1
    19    9   12 1
    20   11   32 1
    21   12   17 ar
    22   12   13 ar
    23   13   14 ar
    24   13   33 1
    25   14   15 ar
    26   14   34 1
    27   15   16 ar
    28   15   18 1
    29   16   17 ar
    30   16   35 1
    31   17   36 1
    32   18   19 1
    33   18   37 1
    34   19   25 ar
    35   19   20 ar
    36   20   21 ar
    37   21   22 1
    38   21   23 ar
    39   23   24 ar
    40   23   38 1
    41   24   25 ar
@<TRIPOS>MOLECULE
ZINC13268987
   34    36     0     0     0
SMALL
USER_CHARGES

@<TRIPOS>ATOM
      1 C1         -0.0167    1.3778    0.0096 C.ar      1 <0>        -0.1151
      2 C2          1.1659    2.0892    0.0021 C.ar      1 <0>        -0.0910
      3 C3          2.3884    1.4125   -0.0136 C.ar      1 <0>        -0.1055
      4 C4          2.4077    0.0165   -0.0212 C.ar      1 <0>        -0.1015
      5 C5          1.2134   -0.6883   -0.0131 C.ar      1 <0>         0.1172
      6 C6          0.0021   -0.0041    0.0020 C.ar      1 <0>        -0.1327
      7 N1          1.2265   -2.0839   -0.0212 N.pl3     1 <0>        -0.4520
      8 N2          0.1156   -2.7394   -0.0136 N.2       1 <0>        -0.0826
      9 C7          0.1280   -4.0536   -0.0212 C.2       1 <0>        -0.0804
     10 C8         -1.0386   -4.9663   -0.0206 C.ar      1 <0>        -0.0501
     11 C9         -2.4131   -4.7557   -0.0122 C.ar      1 <0>        -0.0280
     12 C10        -3.2713   -5.8368   -0.0142 C.ar      1 <0>        -0.1380
     13 C11        -2.7643   -7.1256   -0.0241 C.ar      1 <0>        -0.0450
     14 C12        -1.4019   -7.3449   -0.0321 C.ar      1 <0>        -0.2027
     15 C13        -0.5216   -6.2682   -0.0311 C.ar      1 <0>         0.1913
     16 N3          0.8672   -6.2095   -0.0380 N.am      1 <0>        -0.6452
     17 C14         1.3047   -4.9389   -0.0386 C.2       1 <0>         0.5487
     18 O1          2.4689   -4.5824   -0.0485 O.2       1 <0>        -0.5116
     19 C15        -0.8669   -8.7537   -0.0423 C.3       1 <0>         0.5091
     20 F1         -1.9345   -9.6579   -0.0419 F         1 <0>        -0.1736
     21 F2         -0.0905   -8.9494   -1.1896 F         1 <0>        -0.1773
     22 F3         -0.0792   -8.9617    1.0949 F         1 <0>        -0.1772
     23 C16         3.6543    2.1706   -0.0226 C.2       1 <0>         0.5205
     24 O2          3.6348    3.3933   -0.0163 O.co2     1 <0>        -0.6809
     25 O3          4.7229    1.5761   -0.0363 O.co2     1 <0>        -0.6823
     26 H1         -0.9603    1.9029    0.0260 H         1 <0>         0.1252
     27 H2          1.1465    3.1690    0.0081 H         1 <0>         0.1331
     28 H3          3.3492   -0.5124   -0.0337 H         1 <0>         0.1348
     29 H4         -0.9269   -0.5548    0.0079 H         1 <0>         0.1303
     30 H5          2.0711   -2.5609   -0.0324 H         1 <0>         0.4110
     31 H6         -2.8075   -3.7503   -0.0037 H         1 <0>         0.1437
     32 H7         -4.3395   -5.6775   -0.0077 H         1 <0>         0.1431
     33 H8         -3.4416   -7.9668   -0.0253 H         1 <0>         0.1455
     34 H9          1.4469   -6.9871   -0.0457 H         1 <0>         0.4194
@<TRIPOS>BOND
     1    1    6 ar
     2    1    2 ar
     3    1   26 1
     4    2    3 ar
     5    2   27 1
     6    3    4 ar
     7    3   23 1
     8    4    5 ar
     9    4   28 1
    10    5    6 ar
    11    5    7 1
    12    6   29 1
    13    7    8 1
    14    7   30 1
    15    8    9 2
    16    9   17 1
    17    9   10 1
    18   10   15 ar
    19   10   11 ar
    20   11   12 ar
    21   11   31 1
    22   12   13 ar
    23   12   32 1
    24   13   14 ar
    25   13   33 1
    26   14   15 ar
    27   14   19 1
    28   15   16 1
    29   16   17 am
    30   16   34 1
    31   17   18 2
    32   19   20 1
    33   19   21 1
    34   19   22 1
    35   23   24 2
    36   23   25 1
@<TRIPOS>MOLECULE
ZINC61639378
   31    33     0     0     0
SMALL
USER_CHARGES

@<TRIPOS>ATOM
      1 C1         -0.0166    1.3728    0.0096 C.ar      1 <0>        -0.1150
      2 C2          1.1673    2.0992    0.0022 C.ar      1 <0>        -0.1387
      3 C3          2.3858    1.4571   -0.0128 C.ar      1 <0>        -0.0703
      4 C4          2.4283    0.0636   -0.0207 C.ar      1 <0>        -0.1251
      5 C5          1.2247   -0.6761   -0.0132 C.ar      1 <0>        -0.0680
      6 C6          0.0021   -0.0041    0.0020 C.ar      1 <0>        -0.0870
      7 C7          1.3018   -2.1407   -0.0222 C.2       1 <0>         0.3916
      8 O1          0.1641   -2.8809   -0.0158 O.3       1 <0>        -0.7097
      9 N1          2.4642   -2.7308   -0.0369 N.2       1 <0>        -0.4008
     10 N2          3.6666   -2.0232   -0.0445 N.am      1 <0>        -0.4014
     11 C8          3.6978   -0.6746   -0.0372 C.2       1 <0>         0.4997
     12 O2          4.7609   -0.0792   -0.0437 O.2       1 <0>        -0.5534
     13 C9          4.9298   -2.7650   -0.0605 C.3       1 <0>         0.1879
     14 C10         5.3764   -3.0270    1.3547 C.ar      1 <0>         0.1834
     15 C11         6.1824   -2.1067    1.9970 C.ar      1 <0>        -0.1404
     16 C12         6.5908   -2.3540    3.3016 C.ar      1 <0>        -0.0354
     17 C13         6.1720   -3.5216    3.9142 C.ar      1 <0>        -0.2341
     18 C14         5.3611   -4.4033    3.2075 C.ar      1 <0>         0.3987
     19 N3          4.9884   -4.1297    1.9667 N.ar      1 <0>        -0.5005
     20 N4          4.9335   -5.5808    3.8114 N.pl3     1 <0>        -0.8512
     21 Cl1         6.6801   -0.6569    1.1820 Cl        1 <0>        -0.0200
     22 H1         -0.9625    1.8938    0.0259 H         1 <0>         0.1192
     23 H2          1.1321    3.1786    0.0079 H         1 <0>         0.1197
     24 H3          3.3018    2.0291   -0.0189 H         1 <0>         0.1295
     25 H4         -0.9237   -0.5602    0.0082 H         1 <0>         0.1337
     26 H5          4.7875   -3.7137   -0.5781 H         1 <0>         0.1007
     27 H6          5.6888   -2.1788   -0.5785 H         1 <0>         0.1050
     28 H7          7.2212   -1.6509    3.8257 H         1 <0>         0.1382
     29 H8          6.4711   -3.7457    4.9275 H         1 <0>         0.1326
     30 H9          5.2010   -5.7840    4.7214 H         1 <0>         0.4050
     31 H10         4.3679   -6.1989    3.3226 H         1 <0>         0.4060
@<TRIPOS>BOND
     1    1    6 ar
     2    1    2 ar
     3    1   22 1
     4    2    3 ar
     5    2   23 1
     6    3    4 ar
     7    3   24 1
     8    4   11 1
     9    4    5 ar
    10    5    6 ar
    11    5    7 1
    12    6   25 1
    13    7    8 1
    14    7    9 2
    15    9   10 1
    16   10   11 am
    17   10   13 1
    18   11   12 2
    19   13   14 1
    20   13   26 1
    21   13   27 1
    22   14   19 ar
    23   14   15 ar
    24   15   16 ar
    25   15   21 1
    26   16   17 ar
    27   16   28 1
    28   17   18 ar
    29   17   29 1
    30   18   19 ar
    31   18   20 1
    32   20   30 1
    33   20   31 1
@<TRIPOS>MOLECULE
ZINC66134649
   40    41     0     0     0
SMALL
USER_CHARGES

@<TRIPOS>ATOM
      1 C1         -0.0218    1.7348   -0.3317 C.3       1 <0>        -0.1533
      2 C2         -0.0161    0.2179   -0.1314 C.3       1 <0>        -0.1338
      3 C3          0.6697   -0.4514   -1.3241 C.3       1 <0>         0.1405
      4 H1          1.6649   -0.0267   -1.4563 H         1 <0>         0.1085
      5 C4          0.7852   -1.9325   -1.0710 C.ar      1 <0>         0.2165
      6 C5          2.0322   -2.5124   -0.7931 C.ar      1 <0>        -0.2518
      7 C6          2.0848   -3.8954   -0.5650 C.ar      1 <0>         0.2220
      8 N1          0.9680   -4.5954   -0.6196 N.ar      1 <0>        -0.5708
      9 C7         -0.1921   -4.0086   -0.8857 C.ar      1 <0>         0.5442
     10 N2         -0.2852   -2.7024   -1.1020 N.ar      1 <0>        -0.5520
     11 N3         -1.3349   -4.7775   -0.9333 N.pl3     1 <0>        -0.8291
     12 C8          3.3973   -4.5713   -0.2625 C.3       1 <0>        -0.0973
     13 C9          3.2527   -1.6915   -0.7427 C.2       1 <0>         0.5393
     14 O1          3.6549   -1.2584    0.3284 O.co2     1 <0>        -0.6779
     15 O2          3.8651   -1.4422   -1.7721 O.co2     1 <0>        -0.6772
     16 O3         -0.1038   -0.2288   -2.5049 O.3       1 <0>        -0.2929
     17 C10         0.2230    0.8513   -3.2621 C.ar      1 <0>         0.1434
     18 C11         1.3196    1.6312   -2.9235 C.ar      1 <0>        -0.2052
     19 C12         1.6499    2.7283   -3.6950 C.ar      1 <0>        -0.0743
     20 C13         0.8889    3.0496   -4.8039 C.ar      1 <0>        -0.1666
     21 C14        -0.2044    2.2745   -5.1431 C.ar      1 <0>        -0.0566
     22 C15        -0.5357    1.1727   -4.3780 C.ar      1 <0>        -0.1594
     23 C16        -1.0319    2.6278   -6.3520 C.3       1 <0>        -0.1100
     24 H2          1.0040    2.0948   -0.4099 H         1 <0>         0.0599
     25 H3         -0.5631    1.9785   -1.2458 H         1 <0>         0.0577
     26 H4         -0.5105    2.2116    0.5180 H         1 <0>         0.0571
     27 H5          0.5251   -0.0259    0.7827 H         1 <0>         0.0819
     28 H6         -1.0420   -0.1421   -0.0533 H         1 <0>         0.0765
     29 H7         -1.2837   -5.7329   -0.7735 H         1 <0>         0.4082
     30 H8         -2.1905   -4.3633   -1.1265 H         1 <0>         0.4089
     31 H9          3.6092   -4.4929    0.8038 H         1 <0>         0.0833
     32 H10         3.3382   -5.6225   -0.5449 H         1 <0>         0.0731
     33 H11         4.1939   -4.0875   -0.8278 H         1 <0>         0.0853
     34 H12         1.9141    1.3809   -2.0573 H         1 <0>         0.1362
     35 H13         2.5031    3.3358   -3.4317 H         1 <0>         0.1232
     36 H14         1.1488    3.9078   -5.4059 H         1 <0>         0.1182
     37 H15        -1.3872    0.5649   -4.6459 H         1 <0>         0.1255
     38 H16        -0.6296    2.1203   -7.2287 H         1 <0>         0.0692
     39 H17        -2.0630    2.3130   -6.1912 H         1 <0>         0.0646
     40 H18        -1.0017    3.7058   -6.5105 H         1 <0>         0.0650
@<TRIPOS>BOND
     1    1    2 1
     2    1   24 1
     3    1   25 1
     4    1   26 1
     5    2    3 1
     6    2   27 1
     7    2   28 1
     8    3    4 1
     9    3    5 1
    10    3   16 1
    11    5   10 ar
    12    5    6 ar
    13    6    7 ar
    14    6   13 1
    15    7    8 ar
    16    7   12 1
    17    8    9 ar
    18    9   10 ar
    19    9   11 1
    20   11   29 1
    21   11   30 1
    22   12   31 1
    23   12   32 1
    24   12   33 1
    25   13   14 2
    26   13   15 1
    27   16   17 1
    28   17   22 ar
    29   17   18 ar
    30   18   19 ar
    31   18   34 1
    32   19   20 ar
    33   19   35 1
    34   20   21 ar
    35   20   36 1
    36   21   22 ar
    37   21   23 1
    38   22   37 1
    39   23   38 1
    40   23   39 1
    41   23   40 1
@<TRIPOS>MOLECULE
ZINC19300946
   16    16     0     0     0
SMALL
USER_CHARGES
2-[(3,5-dioxo-2H-1,2,4-triazin-6-yl)sulfanyl]acetic acid
@<TRIPOS>ATOM
      1 C1          0.0021   -0.0041    0.0020 C.3       1 <0>        -0.1548
      2 C2         -1.4117   -0.5257    0.0127 C.2       1 <0>         0.4838
      3 O1         -2.3406    0.2469    0.0257 O.co2     1 <0>        -0.6194
      4 O2         -1.6391   -1.8486    0.0078 O.co2     1 <0>        -0.7657
      5 S1         -0.0225    1.8097    0.0120 S.3       1 <0>         0.0287
      6 C3          1.6811    2.2592   -0.0019 C.2       1 <0>        -0.0091
      7 C4          2.0811    3.6763    0.0019 C.2       1 <0>         0.5143
      8 O3          1.2392    4.5547    0.0151 O.3       1 <0>        -0.5608
      9 N1          3.3939    3.9873   -0.0090 N.2       1 <0>        -0.6929
     10 C5          4.3186    3.0094   -0.0236 C.2       1 <0>         0.6391
     11 O4          5.4989    3.3031   -0.0337 O.2       1 <0>        -0.6248
     12 N2          3.9603    1.7135   -0.0267 N.am      1 <0>        -0.5927
     13 H1          4.7318    0.9296   -0.0423 H         1 <0>         0.4284
     14 N3          2.6115    1.3391   -0.0103 N.2       1 <0>        -0.2496
     15 H2          0.5341   -0.3685    0.8932 H         1 <0>         0.0879
     16 H3          0.5170   -0.3589   -0.9030 H         1 <0>         0.0878
@<TRIPOS>BOND
     1    1    2 1
     2    1    5 1
     3    1   15 1
     4    1   16 1
     5    2    3 2
     6    2    4 1
     7    5    6 1
     8    6   14 2
     9    6    7 1
    10    7    8 1
    11    7    9 2
    12    9   10 1
    13   10   11 2
    14   10   12 am
    15   12   13 1
    16   12   14 1
@<TRIPOS>MOLECULE
ZINC34333905
   19    21     0     0     0
SMALL
USER_CHARGES

@<TRIPOS>ATOM
      1 C1         -0.0164    1.3606    0.0095 C.ar      1 <0>        -0.0802
      2 C2          1.1601    2.1062    0.0023 C.ar      1 <0>        -0.2029
      3 C3          2.3844    1.4661   -0.0129 C.ar      1 <0>        -0.0473
      4 C4          2.4234    0.0544   -0.0208 C.ar      1 <0>        -0.2561
      5 C5          1.2267   -0.6899   -0.0139 C.ar      1 <0>         0.2379
      6 C6          0.0021   -0.0041    0.0020 C.ar      1 <0>        -0.1790
      7 N1          1.3156   -2.0278   -0.0214 N.ar      1 <0>        -0.6793
      8 C7          2.4960   -2.6161   -0.0350 C.ar      1 <0>         0.5857
      9 O1          2.5395   -3.9698   -0.0427 O.3       1 <0>        -0.7311
     10 N2          3.6465   -1.9473   -0.0419 N.ar      1 <0>        -0.6616
     11 C8          3.6638   -0.6259   -0.0354 C.ar      1 <0>         0.3988
     12 N3          4.8320    0.0988   -0.0427 N.2       1 <0>        -0.4618
     13 N4          4.8203    1.4980   -0.0359 N.am      1 <0>        -0.5132
     14 C9          3.6665    2.1995   -0.0207 C.2       1 <0>         0.4932
     15 O2          3.6828    3.4150   -0.0144 O.2       1 <0>        -0.6185
     16 H1         -0.9661    1.8748    0.0259 H         1 <0>         0.0991
     17 H2          1.1153    3.1853    0.0082 H         1 <0>         0.1055
     18 H3         -0.9259   -0.5565    0.0079 H         1 <0>         0.1066
     19 H4          5.6638    1.9770   -0.0414 H         1 <0>         0.4042
@<TRIPOS>BOND
     1    1    6 ar
     2    1    2 ar
     3    1   16 1
     4    2    3 ar
     5    2   17 1
     6    3   14 1
     7    3    4 ar
     8    4   11 ar
     9    4    5 ar
    10    5    6 ar
    11    5    7 ar
    12    6   18 1
    13    7    8 ar
    14    8    9 1
    15    8   10 ar
    16   10   11 ar
    17   11   12 1
    18   12   13 1
    19   13   14 am
    20   13   19 1
    21   14   15 2
@<TRIPOS>MOLECULE
ZINC09184191
   27    28     0     0     0
SMALL
USER_CHARGES

@<TRIPOS>ATOM
      1 C1         -0.0187    1.5258    0.0104 C.3       1 <0>        -0.1518
      2 C2          0.0021   -0.0041    0.0020 C.3       1 <0>        -0.0773
      3 C3         -1.4117   -0.5257    0.0127 C.ar      1 <0>        -0.0718
      4 C4         -2.0149   -0.8639    1.2086 C.ar      1 <0>        -0.1209
      5 C5         -3.3119   -1.3425    1.2192 C.ar      1 <0>        -0.1436
      6 C6         -4.0093   -1.4847    0.0334 C.ar      1 <0>        -0.1257
      7 C7         -3.4116   -1.1488   -1.1654 C.ar      1 <0>        -0.1104
      8 C8         -2.1113   -0.6615   -1.1787 C.ar      1 <0>         0.2081
      9 N1         -1.5044   -0.3134   -2.3927 N.am      1 <0>        -0.5411
     10 C9         -1.6150    0.9461   -2.8647 C.2       1 <0>         0.5360
     11 C10        -0.9990    1.2678   -4.0805 C.2       1 <0>        -0.5615
     12 C11        -0.2993    0.2811   -4.7528 C.2       1 <0>         0.4844
     13 O1          0.3074    0.5610   -5.9298 O.3       1 <0>        -0.7453
     14 N2         -0.2241   -0.9498   -4.2353 N.2       1 <0>        -0.6695
     15 C12        -0.7996   -1.2443   -3.0914 C.2       1 <0>         0.6136
     16 O2         -0.6940   -2.4969   -2.6021 O.3       1 <0>        -0.7207
     17 O3         -2.2413    1.7897   -2.2432 O.2       1 <0>        -0.6466
     18 H1          1.0039    1.9031    0.0027 H         1 <0>         0.0439
     19 H2         -0.5459    1.8868   -0.8726 H         1 <0>         0.0853
     20 H3         -0.5289    1.8773    0.9072 H         1 <0>         0.0420
     21 H4          0.5123   -0.3556   -0.8948 H         1 <0>         0.0750
     22 H5          0.5293   -0.3651    0.8851 H         1 <0>         0.0567
     23 H6         -1.4726   -0.7546    2.1361 H         1 <0>         0.1121
     24 H7         -3.7814   -1.6063    2.1554 H         1 <0>         0.1097
     25 H8         -5.0222   -1.8592    0.0448 H         1 <0>         0.1120
     26 H9         -3.9564   -1.2607   -2.0911 H         1 <0>         0.1139
     27 H10        -1.0689    2.2664   -4.4858 H         1 <0>         0.0933
@<TRIPOS>BOND
     1    1    2 1
     2    1   18 1
     3    1   19 1
     4    1   20 1
     5    2    3 1
     6    2   21 1
     7    2   22 1
     8    3    8 ar
     9    3    4 ar
    10    4    5 ar
    11    4   23 1
    12    5    6 ar
    13    5   24 1
    14    6    7 ar
    15    6   25 1
    16    7    8 ar
    17    7   26 1
    18    8    9 1
    19    9   10 am
    20    9   15 1
    21   10   11 1
    22   10   17 2
    23   11   12 2
    24   11   27 1
    25   12   13 1
    26   12   14 1
    27   14   15 2
    28   15   16 1
@<TRIPOS>MOLECULE
ZINC62136474
   30    31     0     0     0
SMALL
USER_CHARGES

@<TRIPOS>ATOM
      1 C1         -0.0187    1.5258    0.0104 C.3       1 <0>        -0.1469
      2 C2          0.0021   -0.0041    0.0020 C.3       1 <0>         0.2756
      3 H1         -1.0205   -0.3814    0.0098 H         1 <0>         0.0908
      4 C3          0.7309   -0.5033    1.2229 C.2       1 <0>         0.0506
      5 N1          0.1851   -1.0396    2.3047 N.2       1 <0>        -0.3796
      6 N2          1.1411   -1.3355    3.1177 N.2       1 <0>        -0.2001
      7 N3          2.2643   -1.0033    2.5830 N.2       1 <0>        -0.1994
      8 N4          2.0414   -0.4957    1.4189 N.2       1 <0>        -0.3802
      9 N5          0.6878   -0.4765   -1.2033 N.am      1 <0>        -0.7296
     10 C4          0.0062   -0.6081   -2.3585 C.2       1 <0>         0.7215
     11 O1         -1.1778   -0.3348   -2.4004 O.2       1 <0>        -0.6032
     12 N6          0.6370   -1.0428   -3.4674 N.am      1 <0>        -0.6353
     13 C5          2.0572   -1.4129   -3.5559 C.3       1 <0>         0.1022
     14 C6          2.3212   -1.8736   -5.0049 C.3       1 <0>        -0.1093
     15 C7          0.9082   -2.2744   -5.5050 C.3       1 <0>        -0.1675
     16 H2          0.6533   -3.2853   -5.1867 H         1 <0>         0.0715
     17 C8          0.0159   -1.2319   -4.7910 C.3       1 <0>         0.1494
     18 C9          0.8073   -2.1412   -7.0027 C.2       1 <0>         0.5071
     19 O2          0.2057   -2.9810   -7.6503 O.co2     1 <0>        -0.7005
     20 O3          1.3274   -1.1937   -7.5669 O.co2     1 <0>        -0.6935
     21 H3          1.0039    1.9031    0.0027 H         1 <0>         0.0553
     22 H4         -0.5459    1.8868   -0.8726 H         1 <0>         0.0585
     23 H5         -0.5289    1.8773    0.9072 H         1 <0>         0.0580
     24 H6          1.6324   -0.6946   -1.1699 H         1 <0>         0.4001
     25 H7          2.6804   -0.5499   -3.3219 H         1 <0>         0.0605
     26 H8          2.2720   -2.2267   -2.8632 H         1 <0>         0.0576
     27 H9          2.7240   -1.0556   -5.6022 H         1 <0>         0.0855
     28 H10         2.9935   -2.7314   -5.0204 H         1 <0>         0.0678
     29 H11        -0.9999   -1.6121   -4.6825 H         1 <0>         0.0680
     30 H12         0.0135   -0.2941   -5.3464 H         1 <0>         0.0651
@<TRIPOS>BOND
     1    1    2 1
     2    1   21 1
     3    1   22 1
     4    1   23 1
     5    2    3 1
     6    2    9 1
     7    2    4 1
     8    4    5 2
     9    4    8 1
    10    5    6 1
    11    6    7 2
    12    7    8 1
    13    9   10 am
    14    9   24 1
    15   10   11 2
    16   10   12 am
    17   12   17 1
    18   12   13 1
    19   13   14 1
    20   13   25 1
    21   13   26 1
    22   14   15 1
    23   14   27 1
    24   14   28 1
    25   15   16 1
    26   15   17 1
    27   15   18 1
    28   17   29 1
    29   17   30 1
    30   18   19 2
    31   18   20 1
@<TRIPOS>MOLECULE
ZINC39406862
   13    12     0     0     0
SMALL
USER_CHARGES

@<TRIPOS>ATOM
      1 C1         -0.0145    1.2150    0.0087 C.2       1 <0>         0.5161
      2 O1          0.0021   -0.0041    0.0020 O.co2     1 <0>        -0.6463
      3 C2          1.2802    1.9862    0.0005 C.3       1 <0>         0.3484
      4 O2          1.3559    2.8024    1.1710 O.3       1 <0>        -0.3540
      5 C3          2.5519    3.5794    1.2615 C.3       1 <0>         0.3479
      6 C4          2.5252    4.3969    2.5272 C.2       1 <0>         0.5169
      7 O3          2.0415    5.5161    2.5199 O.co2     1 <0>        -0.6411
      8 O4          2.9874    3.9392    3.5584 O.co2     1 <0>        -0.6427
      9 F1          3.6612    2.7273    1.2800 F         1 <0>        -0.2023
     10 F2          2.6380    4.4332    0.1566 F         1 <0>        -0.2019
     11 F3          2.3558    1.0917   -0.0146 F         1 <0>        -0.2003
     12 F4          1.3325    2.7976   -1.1380 F         1 <0>        -0.2043
     13 O5         -1.0785    1.8102    0.0170 O.co2     1 <0>        -0.6361
@<TRIPOS>BOND
     1    1    2 2
     2    1    3 1
     3    1   13 1
     4    3    4 1
     5    3   11 1
     6    3   12 1
     7    4    5 1
     8    5    6 1
     9    5    9 1
    10    5   10 1
    11    6    7 2
    12    6    8 1
@<TRIPOS>MOLECULE
ZINC32099067
   35    35     0     0     0
SMALL
USER_CHARGES
(1R,2S)-2-(tert-butoxycarbonylamino)cyclohex-3-ene-1-carboxylic acid
@<TRIPOS>ATOM
      1 C1          5.9658    1.8420    0.3627 C.3       1 <0>        -0.1838
      2 C2          5.6846    1.0814    1.6601 C.3       1 <0>         0.1371
      3 C3          6.3057    1.8349    2.8380 C.3       1 <0>        -0.1409
      4 C4          6.2940   -0.3193    1.5724 C.3       1 <0>        -0.1822
      5 O1          4.2500    0.9736    1.8567 O.3       1 <0>        -0.3672
      6 C5          3.5487    0.3331    0.9025 C.2       1 <0>         0.6587
      7 O2          4.1198   -0.1234   -0.0680 O.2       1 <0>        -0.5920
      8 N1          2.2132    0.1982    1.0238 N.am      1 <0>        -0.6745
      9 C6          1.4500   -0.4988   -0.0145 C.3       1 <0>         0.2174
     10 H1          1.9234   -0.2874   -0.9847 H         1 <0>         0.0879
     11 C7          1.4943   -1.9765    0.2431 C.2       1 <0>        -0.1619
     12 C8          0.5164   -2.6533    0.7541 C.2       1 <0>        -0.1418
     13 C9         -0.8023   -2.0566    1.1506 C.3       1 <0>        -0.0952
     14 C10        -0.6779   -0.5359    1.2699 C.3       1 <0>        -0.0980
     15 C11         0.0021   -0.0041    0.0020 C.3       1 <0>        -0.1409
     16 H2         -0.5312   -0.3469   -0.8969 H         1 <0>         0.0864
     17 C12        -0.0184    1.5028    0.0103 C.2       1 <0>         0.4632
     18 O3          1.0197    2.1211    0.0037 O.co2     1 <0>        -0.6247
     19 O4         -1.1898    2.1580    0.0194 O.co2     1 <0>        -0.7704
     20 H3          5.5192    1.3002   -0.4841 H         1 <0>         0.0906
     21 H4          7.0526    1.9236    0.2137 H         1 <0>         0.0620
     22 H5          5.5277    2.8490    0.4258 H         1 <0>         0.0602
     23 H6          6.1035    1.2880    3.7707 H         1 <0>         0.0633
     24 H7          5.8676    2.8419    2.9011 H         1 <0>         0.0666
     25 H8          7.3925    1.9165    2.6890 H         1 <0>         0.0751
     26 H9          6.0918   -0.8662    2.5052 H         1 <0>         0.0549
     27 H10         7.3808   -0.2376    1.4234 H         1 <0>         0.0635
     28 H11         5.8475   -0.8611    0.7256 H         1 <0>         0.0897
     29 H12         1.6962    0.6115    1.9024 H         1 <0>         0.4216
     30 H13         2.4307   -2.4845   -0.0310 H         1 <0>         0.1034
     31 H14         0.6247   -3.7350    0.9217 H         1 <0>         0.0996
     32 H15        -1.5579   -2.2979    0.3885 H         1 <0>         0.0736
     33 H16        -1.1150   -2.4701    2.1208 H         1 <0>         0.0673
     34 H17        -1.6795   -0.0931    1.3734 H         1 <0>         0.0769
     35 H18        -0.0732   -0.2857    2.1541 H         1 <0>         0.0548
@<TRIPOS>BOND
     1    1    2 1
     2    1   20 1
     3    1   21 1
     4    1   22 1
     5    2    3 1
     6    2    4 1
     7    2    5 1
     8    3   23 1
     9    3   24 1
    10    3   25 1
    11    4   26 1
    12    4   27 1
    13    4   28 1
    14    5    6 1
    15    6    7 2
    16    6    8 am
    17    8    9 1
    18    8   29 1
    19    9   10 1
    20    9   15 1
    21    9   11 1
    22   11   12 2
    23   11   30 1
    24   12   13 1
    25   12   31 1
    26   13   14 1
    27   13   32 1
    28   13   33 1
    29   14   15 1
    30   14   34 1
    31   14   35 1
    32   15   16 1
    33   15   17 1
    34   17   18 2
    35   17   19 1
@<TRIPOS>MOLECULE
ZINC40572870
   45    46     0     0     0
SMALL
USER_CHARGES

@<TRIPOS>ATOM
      1 C1         -0.1963    1.4480   -0.0654 C.3       1 <0>        -0.1196
      2 C2          1.2244    2.0155   -0.0869 C.3       1 <0>        -0.1175
      3 C3          1.9500    1.5264   -1.3419 C.3       1 <0>        -0.1125
      4 C4          2.0116   -0.0023   -1.3322 C.3       1 <0>        -0.0965
      5 C5          0.5910   -0.5698   -1.3108 C.3       1 <0>        -0.1131
      6 C6         -0.1347   -0.0807   -0.0558 C.3       1 <0>        -0.1188
      7 C7          2.7373   -0.4914   -2.5872 C.3       1 <0>         0.1457
      8 N1          2.9019   -1.9456   -2.5207 N.am      1 <0>        -0.7542
      9 C8          3.5184   -2.6007   -3.5243 C.2       1 <0>         0.7111
     10 O1          3.8575   -1.9991   -4.5250 O.2       1 <0>        -0.5421
     11 N2          3.7591   -3.9225   -3.4186 N.am      1 <0>        -0.6118
     12 C9          3.2269   -4.6921   -2.2858 C.3       1 <0>         0.1154
     13 C10         2.4412   -5.8898   -2.8290 C.3       1 <0>        -0.1319
     14 C11         3.3366   -6.6969   -3.7720 C.3       1 <0>        -0.1167
     15 C12         3.7581   -5.8198   -4.9531 C.3       1 <0>        -0.1344
     16 C13         4.5536   -4.6226   -4.4372 C.3       1 <0>         0.1879
     17 H1          5.4876   -4.9709   -3.9963 H         1 <0>         0.0679
     18 C14         4.8540   -3.6708   -5.5968 C.3       1 <0>        -0.1796
     19 C15         5.8700   -2.6483   -5.1572 C.2       1 <0>         0.5288
     20 O2          6.3129   -2.6781   -4.0216 O.co2     1 <0>        -0.7180
     21 O3          6.2492   -1.7913   -5.9371 O.co2     1 <0>        -0.7180
     22 H2         -0.7133    1.7965    0.8287 H         1 <0>         0.0573
     23 H3         -0.7353    1.7843   -0.9511 H         1 <0>         0.0607
     24 H4          1.1805    3.1046   -0.0937 H         1 <0>         0.0605
     25 H5          1.7634    1.6792    0.7988 H         1 <0>         0.0607
     26 H6          1.4110    1.8628   -2.2276 H         1 <0>         0.0651
     27 H7          2.9622    1.9308   -1.3571 H         1 <0>         0.0669
     28 H8          2.5507   -0.3386   -0.4465 H         1 <0>         0.0738
     29 H9          0.0520   -0.2335   -2.1965 H         1 <0>         0.0637
     30 H10         0.6348   -1.6589   -1.3039 H         1 <0>         0.0600
     31 H11         0.4043   -0.4170    0.8299 H         1 <0>         0.0601
     32 H12        -1.1469   -0.4850   -0.0405 H         1 <0>         0.0586
     33 H13         2.1523   -0.2319   -3.4696 H         1 <0>         0.0601
     34 H14         3.7169   -0.0173   -2.6485 H         1 <0>         0.0647
     35 H15         2.5671   -2.4370   -1.7543 H         1 <0>         0.3832
     36 H16         4.0504   -5.0463   -1.6656 H         1 <0>         0.0624
     37 H17         2.5659   -4.0599   -1.6930 H         1 <0>         0.0673
     38 H18         2.1224   -6.5219   -2.0003 H         1 <0>         0.0675
     39 H19         1.5664   -5.5342   -3.3735 H         1 <0>         0.0629
     40 H20         4.2232   -7.0312   -3.2333 H         1 <0>         0.0623
     41 H21         2.7877   -7.5634   -4.1407 H         1 <0>         0.0578
     42 H22         4.3765   -6.4021   -5.6362 H         1 <0>         0.0688
     43 H23         2.8709   -5.4649   -5.4776 H         1 <0>         0.0603
     44 H24         5.2503   -4.2380   -6.4391 H         1 <0>         0.0366
     45 H25         3.9368   -3.1651   -5.8987 H         1 <0>         0.0866
@<TRIPOS>BOND
     1    1    6 1
     2    1    2 1
     3    1   22 1
     4    1   23 1
     5    2    3 1
     6    2   24 1
     7    2   25 1
     8    3    4 1
     9    3   26 1
    10    3   27 1
    11    4    5 1
    12    4    7 1
    13    4   28 1
    14    5    6 1
    15    5   29 1
    16    5   30 1
    17    6   31 1
    18    6   32 1
    19    7    8 1
    20    7   33 1
    21    7   34 1
    22    8    9 am
    23    8   35 1
    24    9   10 2
    25    9   11 am
    26   11   16 1
    27   11   12 1
    28   12   13 1
    29   12   36 1
    30   12   37 1
    31   13   14 1
    32   13   38 1
    33   13   39 1
    34   14   15 1
    35   14   40 1
    36   14   41 1
    37   15   16 1
    38   15   42 1
    39   15   43 1
    40   16   17 1
    41   16   18 1
    42   18   19 1
    43   18   44 1
    44   18   45 1
    45   19   20 2
    46   19   21 1
@<TRIPOS>MOLECULE
ZINC52296239
   39    40     0     0     0
SMALL
USER_CHARGES

@<TRIPOS>ATOM
      1 C1         -0.0226    1.5246    0.0135 C.3       1 <0>        -0.1211
      2 C2         -0.0005   -0.0052    0.0042 C.3       1 <0>        -0.1661
      3 H1          0.0723   -0.4683   -0.9798 H         1 <0>         0.1041
      4 C3         -0.8291   -0.7301    1.0667 C.3       1 <0>        -0.1920
      5 C4          0.6980   -0.7087    1.1696 C.3       1 <0>         0.1052
      6 H2          1.1418   -0.0817    1.9428 H         1 <0>         0.1379
      7 N1          1.4130   -1.9536    0.8775 N.am      1 <0>        -0.7206
      8 C5          2.4285   -2.3493    1.6703 C.2       1 <0>         0.7117
      9 O1          2.8118   -1.6296    2.5722 O.2       1 <0>        -0.5918
     10 N2          3.0192   -3.5430    1.4635 N.am      1 <0>        -0.6244
     11 C6          2.6474   -4.3721    0.3090 C.3       1 <0>         0.1129
     12 C7          2.2637   -5.7687    0.8081 C.3       1 <0>        -0.1295
     13 C8          3.4091   -6.3384    1.6482 C.3       1 <0>        -0.0891
     14 C9          3.6483   -5.4398    2.8637 C.3       1 <0>        -0.1310
     15 C10         4.0517   -4.0370    2.3848 C.3       1 <0>         0.1295
     16 C11         3.0436   -7.7472    2.1198 C.3       1 <0>        -0.0862
     17 C12         4.2358   -8.3648    2.8533 C.3       1 <0>        -0.1833
     18 C13         3.8758   -9.7525    3.3179 C.2       1 <0>         0.4871
     19 O2          2.7683  -10.2055    3.0839 O.co2     1 <0>        -0.7007
     20 O3          4.6920  -10.4221    3.9276 O.co2     1 <0>        -0.7092
     21 H3          0.9997    1.9028    0.0056 H         1 <0>         0.0613
     22 H4         -0.5504    1.8858   -0.8691 H         1 <0>         0.0609
     23 H5         -0.5327    1.8752    0.9107 H         1 <0>         0.0586
     24 H6         -1.3900   -0.1172    1.7723 H         1 <0>         0.1022
     25 H7         -1.3012   -1.6704    0.7817 H         1 <0>         0.0959
     26 H8          1.1556   -2.4930    0.1135 H         1 <0>         0.3964
     27 H9          1.7985   -3.9221   -0.2059 H         1 <0>         0.0700
     28 H10         3.4934   -4.4479   -0.3742 H         1 <0>         0.0701
     29 H11         1.3630   -5.7022    1.4184 H         1 <0>         0.0668
     30 H12         2.0784   -6.4217   -0.0448 H         1 <0>         0.0757
     31 H13         4.3156   -6.3815    1.0445 H         1 <0>         0.0670
     32 H14         2.7346   -5.3764    3.4547 H         1 <0>         0.0655
     33 H15         4.4485   -5.8587    3.4739 H         1 <0>         0.0815
     34 H16         5.0098   -4.0860    1.8675 H         1 <0>         0.0649
     35 H17         4.1297   -3.3657    3.2400 H         1 <0>         0.0910
     36 H18         2.1894   -7.6942    2.7948 H         1 <0>         0.0582
     37 H19         2.7880   -8.3639    1.2581 H         1 <0>         0.0591
     38 H20         5.0900   -8.4178    2.1783 H         1 <0>         0.0541
     39 H21         4.4914   -7.7481    3.7150 H         1 <0>         0.0575
@<TRIPOS>BOND
     1    1    2 1
     2    1   21 1
     3    1   22 1
     4    1   23 1
     5    2    3 1
     6    2    5 1
     7    2    4 1
     8    4    5 1
     9    4   24 1
    10    4   25 1
    11    5    6 1
    12    5    7 1
    13    7    8 am
    14    7   26 1
    15    8    9 2
    16    8   10 am
    17   10   15 1
    18   10   11 1
    19   11   12 1
    20   11   27 1
    21   11   28 1
    22   12   13 1
    23   12   29 1
    24   12   30 1
    25   13   14 1
    26   13   16 1
    27   13   31 1
    28   14   15 1
    29   14   32 1
    30   14   33 1
    31   15   34 1
    32   15   35 1
    33   16   17 1
    34   16   36 1
    35   16   37 1
    36   17   18 1
    37   17   38 1
    38   17   39 1
    39   18   19 2
    40   18   20 1
@<TRIPOS>MOLECULE
ZINC62842683
   41    41     0     0     0
SMALL
USER_CHARGES

@<TRIPOS>ATOM
      1 C1         -0.0163    1.5260    0.0114 C.3       1 <0>        -0.1507
      2 C2          0.0042   -0.0039    0.0030 C.3       1 <0>        -0.1260
      3 C3          0.7193   -0.4974   -1.2563 C.3       1 <0>         0.1906
      4 C4         -0.0216    0.0095   -2.4953 C.3       1 <0>        -0.1646
      5 C5          2.1547    0.0320   -1.2683 C.3       1 <0>        -0.1643
      6 N1          0.7390   -1.9622   -1.2644 N.am      1 <0>        -0.7446
      7 C6          1.3211   -2.6228   -2.2848 C.2       1 <0>         0.7109
      8 O1          1.7489   -2.0072   -3.2421 O.2       1 <0>        -0.5945
      9 N2          1.4290   -3.9656   -2.2441 N.am      1 <0>        -0.6212
     10 C7          0.8150   -4.7332   -1.1521 C.3       1 <0>         0.1109
     11 C8          1.8852   -5.6235   -0.5128 C.3       1 <0>        -0.1015
     12 C9          2.5401   -6.4845   -1.5954 C.3       1 <0>        -0.1294
     13 C10         3.2175   -5.5806   -2.6280 C.3       1 <0>        -0.1064
     14 C11         2.1576   -4.6902   -3.2943 C.3       1 <0>         0.1314
     15 C12         1.4720   -7.3353   -2.2854 C.3       1 <0>        -0.1186
     16 C13         3.5699   -7.3862   -0.9650 C.2       1 <0>         0.5022
     17 O2          3.8120   -8.4741   -1.4593 O.co2     1 <0>        -0.6969
     18 O3          4.1611   -7.0278    0.0393 O.co2     1 <0>        -0.6983
     19 H1          1.0063    1.9031    0.0029 H         1 <0>         0.0605
     20 H2         -0.5442    1.8871   -0.8712 H         1 <0>         0.0597
     21 H3         -0.5258    1.8776    0.9086 H         1 <0>         0.0554
     22 H4          0.5321   -0.3650    0.8857 H         1 <0>         0.0677
     23 H5         -1.0184   -0.3810    0.0116 H         1 <0>         0.0660
     24 H6         -0.0363    1.0994   -2.4893 H         1 <0>         0.0598
     25 H7          0.4878   -0.3421   -3.3925 H         1 <0>         0.0833
     26 H8         -1.0442   -0.3676   -2.4867 H         1 <0>         0.0488
     27 H9          2.6826   -0.3291   -0.3857 H         1 <0>         0.0526
     28 H10         2.6642   -0.3196   -2.1655 H         1 <0>         0.0770
     29 H11         2.1401    1.1219   -1.2623 H         1 <0>         0.0619
     30 H12         0.3330   -2.4568   -0.5353 H         1 <0>         0.3933
     31 H13         0.4148   -4.0485   -0.4043 H         1 <0>         0.0656
     32 H14         0.0120   -5.3544   -1.5486 H         1 <0>         0.0673
     33 H15         2.6417   -4.9990   -0.0376 H         1 <0>         0.0690
     34 H16         1.4230   -6.2683    0.2347 H         1 <0>         0.0649
     35 H17         3.9614   -4.9565   -2.1329 H         1 <0>         0.0609
     36 H18         3.7036   -6.1948   -3.3860 H         1 <0>         0.0701
     37 H19         1.4618   -5.3081   -3.8619 H         1 <0>         0.0637
     38 H20         2.6436   -3.9773   -3.9603 H         1 <0>         0.0859
     39 H21         0.7266   -6.6835   -2.7410 H         1 <0>         0.0371
     40 H22         1.9382   -7.9486   -3.0565 H         1 <0>         0.0571
     41 H23         0.9902   -7.9801   -1.5503 H         1 <0>         0.0435
@<TRIPOS>BOND
     1    1    2 1
     2    1   19 1
     3    1   20 1
     4    1   21 1
     5    2    3 1
     6    2   22 1
     7    2   23 1
     8    3    4 1
     9    3    5 1
    10    3    6 1
    11    4   24 1
    12    4   25 1
    13    4   26 1
    14    5   27 1
    15    5   28 1
    16    5   29 1
    17    6    7 am
    18    6   30 1
    19    7    8 2
    20    7    9 am
    21    9   14 1
    22    9   10 1
    23   10   11 1
    24   10   31 1
    25   10   32 1
    26   11   12 1
    27   11   33 1
    28   11   34 1
    29   12   13 1
    30   12   15 1
    31   12   16 1
    32   13   14 1
    33   13   35 1
    34   13   36 1
    35   14   37 1
    36   14   38 1
    37   15   39 1
    38   15   40 1
    39   15   41 1
    40   16   17 2
    41   16   18 1
@<TRIPOS>MOLECULE
ZINC62934568
   39    40     0     0     0
SMALL
USER_CHARGES

@<TRIPOS>ATOM
      1 C1         -0.0615    1.5353    0.0111 C.3       1 <0>        -0.1602
      2 C2         -0.0427    0.0054    0.0061 C.3       1 <0>        -0.0806
      3 C3          0.6846   -0.4916   -1.2449 C.3       1 <0>        -0.1433
      4 C4          0.6514   -2.0361   -1.3075 C.3       1 <0>        -0.1103
      5 C5         -0.5455   -2.3168   -2.2505 C.3       1 <0>         0.1004
      6 N1         -0.4452   -1.2355   -3.2578 N.am      1 <0>        -0.6215
      7 C6         -0.0528   -0.0241   -2.5136 C.3       1 <0>         0.1513
      8 C7         -0.6663   -1.3378   -4.5833 C.2       1 <0>         0.7240
      9 O1         -0.5459   -0.3608   -5.2969 O.2       1 <0>        -0.5695
     10 N2         -1.0208   -2.5232   -5.1179 N.am      1 <0>        -0.6819
     11 C8         -1.3646   -2.6054   -6.4719 C.ar      1 <0>         0.2087
     12 C9         -1.8412   -1.4835   -7.1380 C.ar      1 <0>        -0.1398
     13 C10        -2.1800   -1.5664   -8.4742 C.ar      1 <0>        -0.0738
     14 C11        -2.0460   -2.7649   -9.1504 C.ar      1 <0>        -0.1786
     15 C12        -1.5712   -3.8859   -8.4902 C.ar      1 <0>         0.1162
     16 C13        -1.2245   -3.8066   -7.1531 C.ar      1 <0>        -0.1622
     17 C14        -0.7015   -5.0243   -6.4357 C.3       1 <0>        -0.1127
     18 F1         -1.4417   -5.0559   -9.1532 F         1 <0>        -0.1393
     19 C15         2.1076    0.0044   -1.2539 C.2       1 <0>         0.5075
     20 O2          2.5205    0.6886   -0.3330 O.co2     1 <0>        -0.6847
     21 O3          2.8460   -0.2784   -2.1819 O.co2     1 <0>        -0.6895
     22 H1          0.9616    1.9113    0.0122 H         1 <0>         0.0933
     23 H2         -0.5800    1.8952   -0.8776 H         1 <0>         0.0374
     24 H3         -0.5797    1.8893    0.9024 H         1 <0>         0.0359
     25 H4          0.4758   -0.3545    0.8948 H         1 <0>         0.0615
     26 H5         -1.0658   -0.3706    0.0050 H         1 <0>         0.0381
     27 H6          1.5769   -2.4252   -1.7321 H         1 <0>         0.0793
     28 H7          0.4714   -2.4587   -0.3190 H         1 <0>         0.0741
     29 H8         -0.4419   -3.2935   -2.7232 H         1 <0>         0.0660
     30 H9         -1.4877   -2.2496   -1.7066 H         1 <0>         0.0722
     31 H10        -0.9400    0.5462   -2.2384 H         1 <0>         0.0601
     32 H11         0.6107    0.5882   -3.1243 H         1 <0>         0.0791
     33 H12        -1.0376   -3.3194   -4.5640 H         1 <0>         0.4063
     34 H13        -1.9471   -0.5468   -6.6109 H         1 <0>         0.1557
     35 H14        -2.5505   -0.6938   -8.9917 H         1 <0>         0.1342
     36 H15        -2.3124   -2.8272  -10.1952 H         1 <0>         0.1323
     37 H16        -1.5352   -5.5772   -6.0029 H         1 <0>         0.0719
     38 H17        -0.1704   -5.6621   -7.1423 H         1 <0>         0.0738
     39 H18        -0.0204   -4.7145   -5.6430 H         1 <0>         0.0688
@<TRIPOS>BOND
     1    1    2 1
     2    1   22 1
     3    1   23 1
     4    1   24 1
     5    2    3 1
     6    2   25 1
     7    2   26 1
     8    3    7 1
     9    3    4 1
    10    3   19 1
    11    4    5 1
    12    4   27 1
    13    4   28 1
    14    5    6 1
    15    5   29 1
    16    5   30 1
    17    6    7 1
    18    6    8 am
    19    7   31 1
    20    7   32 1
    21    8    9 2
    22    8   10 am
    23   10   11 1
    24   10   33 1
    25   11   16 ar
    26   11   12 ar
    27   12   13 ar
    28   12   34 1
    29   13   14 ar
    30   13   35 1
    31   14   15 ar
    32   14   36 1
    33   15   16 ar
    34   15   18 1
    35   16   17 1
    36   17   37 1
    37   17   38 1
    38   17   39 1
    39   19   20 2
    40   19   21 1
@<TRIPOS>MOLECULE
ZINC35135616
   41    42     0     0     0
SMALL
USER_CHARGES

@<TRIPOS>ATOM
      1 C1          0.4473    1.3785    0.8061 C.3       1 <0>        -0.1134
      2 C2          1.7668    1.9780    0.3161 C.3       1 <0>        -0.1190
      3 C3          1.9670    1.6318   -1.1607 C.3       1 <0>        -0.0964
      4 C4          2.0045    0.1114   -1.3276 C.3       1 <0>        -0.1357
      5 H1          2.8287   -0.2980   -0.7435 H         1 <0>         0.0692
      6 C5          0.6849   -0.4882   -0.8375 C.3       1 <0>        -0.0766
      7 H2         -0.1393   -0.0788   -1.4216 H         1 <0>         0.0827
      8 C6          0.4848   -0.1419    0.6393 C.3       1 <0>        -0.1081
      9 C7          0.7219   -1.9857   -1.0019 C.2       1 <0>         0.5610
     10 O1          1.7847   -2.5556   -1.1309 O.2       1 <0>        -0.5173
     11 N1         -0.4261   -2.6918   -1.0054 N.am      1 <0>        -0.6135
     12 C8         -1.7259   -2.0076   -0.9683 C.3       1 <0>         0.1106
     13 C9         -2.5471   -2.5720    0.1953 C.3       1 <0>        -0.1341
     14 C10        -2.6413   -4.0932    0.0574 C.3       1 <0>        -0.1179
     15 C11        -1.2378   -4.7005    0.1175 C.3       1 <0>        -0.1256
     16 C12        -0.4018   -4.1601   -1.0526 C.3       1 <0>         0.1533
     17 H3         -0.8256   -4.5024   -1.9968 H         1 <0>         0.0734
     18 C13         1.0409   -4.6535   -0.9258 C.3       1 <0>         0.0729
     19 O2          1.5600   -4.2838    0.3533 O.3       1 <0>        -0.5592
     20 C14         2.2017   -0.2296   -2.7822 C.2       1 <0>         0.5054
     21 O3          3.1985    0.1557   -3.3690 O.co2     1 <0>        -0.7061
     22 O4          1.3644   -0.8909   -3.3722 O.co2     1 <0>        -0.6960
     23 H4          0.3047    1.6251    1.8582 H         1 <0>         0.0562
     24 H5         -0.3769    1.7879    0.2220 H         1 <0>         0.0593
     25 H6          1.7401    3.0612    0.4349 H         1 <0>         0.0543
     26 H7          2.5910    1.5686    0.9002 H         1 <0>         0.0579
     27 H8          1.1428    2.0412   -1.7449 H         1 <0>         0.0517
     28 H9          2.9071    2.0589   -1.5099 H         1 <0>         0.0656
     29 H10         1.3090   -0.5513    1.2234 H         1 <0>         0.0626
     30 H11        -0.4553   -0.5691    0.9884 H         1 <0>         0.0573
     31 H12        -1.5720   -0.9385   -0.8222 H         1 <0>         0.0864
     32 H13        -2.2554   -2.1780   -1.9056 H         1 <0>         0.0615
     33 H14        -2.0614   -2.3215    1.1385 H         1 <0>         0.0655
     34 H15        -3.5486   -2.1422    0.1759 H         1 <0>         0.0688
     35 H16        -3.2458   -4.4948    0.8706 H         1 <0>         0.0594
     36 H17        -3.1046   -4.3433   -0.8970 H         1 <0>         0.0602
     37 H18        -0.7645   -4.4300    1.0614 H         1 <0>         0.0751
     38 H19        -1.3074   -5.7857    0.0427 H         1 <0>         0.0633
     39 H20         1.0641   -5.7385   -1.0276 H         1 <0>         0.0211
     40 H21         1.6495   -4.2020   -1.7092 H         1 <0>         0.0950
     41 H22         2.4729   -4.5650    0.5034 H         1 <0>         0.3691
@<TRIPOS>BOND
     1    1    8 1
     2    1    2 1
     3    1   23 1
     4    1   24 1
     5    2    3 1
     6    2   25 1
     7    2   26 1
     8    3    4 1
     9    3   27 1
    10    3   28 1
    11    4    5 1
    12    4    6 1
    13    4   20 1
    14    6    7 1
    15    6    8 1
    16    6    9 1
    17    8   29 1
    18    8   30 1
    19    9   10 2
    20    9   11 am
    21   11   16 1
    22   11   12 1
    23   12   13 1
    24   12   31 1
    25   12   32 1
    26   13   14 1
    27   13   33 1
    28   13   34 1
    29   14   15 1
    30   14   35 1
    31   14   36 1
    32   15   16 1
    33   15   37 1
    34   15   38 1
    35   16   17 1
    36   16   18 1
    37   18   19 1
    38   18   39 1
    39   18   40 1
    40   19   41 1
    41   20   21 2
    42   20   22 1
@<TRIPOS>MOLECULE
ZINC41634365
   35    36     0     0     0
SMALL
USER_CHARGES

@<TRIPOS>ATOM
      1 C1         -0.0187    1.5258    0.0104 C.3       1 <0>        -0.1409
      2 C2          0.0021   -0.0041    0.0020 C.3       1 <0>         0.0052
      3 C3          0.7421   -0.5109    1.2415 C.3       1 <0>        -0.1391
      4 C4         -1.4117   -0.5257    0.0127 C.2       1 <0>         0.2116
      5 N1         -2.3013   -0.2899    0.9409 N.2       1 <0>        -0.3225
      6 H1         -4.3162   -0.9805    1.0401 H         1 <0>         0.4396
      7 N2         -3.4742   -0.9613    0.5588 N.pl3     1 <0>        -0.4309
      8 C5         -3.1984   -1.5714   -0.6069 C.2       1 <0>         0.3193
      9 N3         -1.9594   -1.2973   -0.9254 N.2       1 <0>        -0.5576
     10 C6         -4.1517   -2.4189   -1.4093 C.3       1 <0>        -0.0169
     11 C7         -5.0002   -1.5188   -2.3098 C.3       1 <0>        -0.1279
     12 C8         -4.0979   -0.7808   -3.3202 C.3       1 <0>        -0.0993
     13 C9         -4.1601   -1.6573   -4.5958 C.3       1 <0>        -0.1228
     14 C10        -5.6373   -2.1223   -4.6192 C.3       1 <0>        -0.1206
     15 C11        -5.9790   -2.3718   -3.1357 C.3       1 <0>        -0.1105
     16 C12        -5.7620   -0.5233   -1.4733 C.2       1 <0>         0.4976
     17 O1         -5.1601    0.2565   -0.7549 O.co2     1 <0>        -0.6897
     18 O2         -6.9802   -0.4977   -1.5150 O.co2     1 <0>        -0.6895
     19 H2          1.0039    1.9031    0.0027 H         1 <0>         0.0586
     20 H3         -0.5459    1.8868   -0.8726 H         1 <0>         0.0562
     21 H4         -0.5289    1.8773    0.9072 H         1 <0>         0.0609
     22 H5          0.5123   -0.3556   -0.8948 H         1 <0>         0.0896
     23 H6          0.7568   -1.6008    1.2356 H         1 <0>         0.0530
     24 H7          1.7647   -0.1336    1.2338 H         1 <0>         0.0593
     25 H8          0.2319   -0.1594    2.1383 H         1 <0>         0.0602
     26 H9         -3.5861   -3.1187   -2.0245 H         1 <0>         0.0877
     27 H10        -4.8024   -2.9734   -0.7331 H         1 <0>         0.0742
     28 H11        -4.4884    0.2164   -3.5231 H         1 <0>         0.0542
     29 H12        -3.0754   -0.7225   -2.9470 H         1 <0>         0.0752
     30 H13        -3.9269   -1.0669   -5.4819 H         1 <0>         0.0546
     31 H14        -3.4876   -2.5109   -4.5111 H         1 <0>         0.0614
     32 H15        -6.2765   -1.3418   -5.0319 H         1 <0>         0.0588
     33 H16        -5.7383   -3.0430   -5.1940 H         1 <0>         0.0540
     34 H17        -5.8495   -3.4270   -2.8951 H         1 <0>         0.0482
     35 H18        -7.0050   -2.0651   -2.9322 H         1 <0>         0.0887
@<TRIPOS>BOND
     1    1    2 1
     2    1   19 1
     3    1   20 1
     4    1   21 1
     5    2    3 1
     6    2   22 1
     7    2    4 1
     8    3   23 1
     9    3   24 1
    10    3   25 1
    11    4    9 1
    12    4    5 2
    13    5    7 1
    14    6    7 1
    15    7    8 1
    16    8   10 1
    17    8    9 2
    18   10   11 1
    19   10   26 1
    20   10   27 1
    21   11   15 1
    22   11   12 1
    23   11   16 1
    24   12   13 1
    25   12   28 1
    26   12   29 1
    27   13   14 1
    28   13   30 1
    29   13   31 1
    30   14   15 1
    31   14   32 1
    32   14   33 1
    33   15   34 1
    34   15   35 1
    35   16   17 2
    36   16   18 1
@<TRIPOS>MOLECULE
ZINC44627923
   41    41     0     0     0
SMALL
USER_CHARGES

@<TRIPOS>ATOM
      1 C1         -0.0187    1.5258    0.0104 C.3       1 <0>        -0.1399
      2 C2          0.0021   -0.0041    0.0020 C.3       1 <0>        -0.1169
      3 C3         -1.4333   -0.5336    0.0129 C.3       1 <0>         0.0877
      4 H1         -1.9862   -0.1019   -0.8214 H         1 <0>         0.0941
      5 C4         -1.4159   -2.0348   -0.1192 C.2       1 <0>         0.4929
      6 O1         -1.3670   -2.7340    0.8784 O.co2     1 <0>        -0.6878
      7 O2         -1.4508   -2.5500   -1.2236 O.co2     1 <0>        -0.6922
      8 N1         -2.0815   -0.1618    1.2729 N.am      1 <0>        -0.5941
      9 C5         -1.5245   -0.6227    2.5471 C.3       1 <0>         0.0709
     10 C6         -3.1902    0.6044    1.2600 C.2       1 <0>         0.7011
     11 O3         -3.6525    0.9870    0.2025 O.2       1 <0>        -0.6024
     12 N2         -3.7865    0.9466    2.4192 N.am      1 <0>        -0.7469
     13 C7         -4.9917    1.7794    2.4051 C.3       1 <0>         0.1716
     14 H2         -4.9258    2.5000    1.5899 H         1 <0>         0.0844
     15 C8         -6.2221    0.8926    2.2037 C.3       1 <0>        -0.1327
     16 C9         -7.4807    1.7624    2.1890 C.3       1 <0>        -0.1158
     17 C10        -7.6014    2.5075    3.5198 C.3       1 <0>        -0.1203
     18 C11        -6.3709    3.3943    3.7212 C.3       1 <0>        -0.1093
     19 C12        -5.1123    2.5245    3.7359 C.3       1 <0>        -0.0980
     20 H3         -5.1782    1.8039    4.5511 H         1 <0>         0.0724
     21 C13        -3.8819    3.4113    3.9373 C.3       1 <0>        -0.1452
     22 H4          1.0039    1.9031    0.0027 H         1 <0>         0.0440
     23 H5         -0.5459    1.8868   -0.8726 H         1 <0>         0.0507
     24 H6         -0.5289    1.8773    0.9072 H         1 <0>         0.0464
     25 H7          0.5123   -0.3556   -0.8948 H         1 <0>         0.0694
     26 H8          0.5293   -0.3651    0.8851 H         1 <0>         0.0598
     27 H9         -0.8033    0.1076    2.9138 H         1 <0>         0.0321
     28 H10        -2.3280   -0.7368    3.2748 H         1 <0>         0.0461
     29 H11        -1.0279   -1.5819    2.4008 H         1 <0>         0.1176
     30 H12        -3.4178    0.6413    3.2628 H         1 <0>         0.3919
     31 H13        -6.1362    0.3618    1.2556 H         1 <0>         0.0705
     32 H14        -6.2880    0.1720    3.0189 H         1 <0>         0.0601
     33 H15        -7.4149    2.4830    1.3738 H         1 <0>         0.0630
     34 H16        -8.3573    1.1307    2.0455 H         1 <0>         0.0615
     35 H17        -8.4980    3.1272    3.5093 H         1 <0>         0.0603
     36 H18        -7.6672    1.7869    4.3350 H         1 <0>         0.0609
     37 H19        -6.3051    4.1149    2.9060 H         1 <0>         0.0642
     38 H20        -6.4569    3.9251    4.6693 H         1 <0>         0.0635
     39 H21        -3.8160    4.1319    3.1221 H         1 <0>         0.0547
     40 H22        -3.9678    3.9421    4.8854 H         1 <0>         0.0527
     41 H23        -2.9852    2.7916    3.9478 H         1 <0>         0.0570
@<TRIPOS>BOND
     1    1    2 1
     2    1   22 1
     3    1   23 1
     4    1   24 1
     5    2    3 1
     6    2   25 1
     7    2   26 1
     8    3    4 1
     9    3    5 1
    10    3    8 1
    11    5    6 2
    12    5    7 1
    13    8    9 1
    14    8   10 am
    15    9   27 1
    16    9   28 1
    17    9   29 1
    18   10   11 2
    19   10   12 am
    20   12   13 1
    21   12   30 1
    22   13   14 1
    23   13   19 1
    24   13   15 1
    25   15   16 1
    26   15   31 1
    27   15   32 1
    28   16   17 1
    29   16   33 1
    30   16   34 1
    31   17   18 1
    32   17   35 1
    33   17   36 1
    34   18   19 1
    35   18   37 1
    36   18   38 1
    37   19   20 1
    38   19   21 1
    39   21   39 1
    40   21   40 1
    41   21   41 1
@<TRIPOS>MOLECULE
ZINC54068945
   41    41     0     0     0
SMALL
USER_CHARGES

@<TRIPOS>ATOM
      1 C1         -0.0187    1.5258    0.0104 C.3       1 <0>        -0.1629
      2 C2          0.0021   -0.0041    0.0020 C.3       1 <0>         0.1642
      3 H1          0.5293   -0.3651    0.8851 H         1 <0>         0.0846
      4 C3         -1.4333   -0.5336    0.0129 C.3       1 <0>        -0.0912
      5 C4         -1.4126   -2.0635    0.0045 C.3       1 <0>        -0.1157
      6 C5         -2.8479   -2.5931    0.0153 C.3       1 <0>        -0.1184
      7 C6         -3.5641   -2.0996    1.2741 C.3       1 <0>        -0.1204
      8 C7         -3.5848   -0.5698    1.2825 C.3       1 <0>        -0.1171
      9 C8         -2.1494   -0.0402    1.2717 C.3       1 <0>        -0.1128
     10 N1          0.6878   -0.4765   -1.2033 N.am      1 <0>        -0.7454
     11 C9          2.0310   -0.5870   -1.2149 C.2       1 <0>         0.7029
     12 O1          2.6736   -0.2945   -0.2251 O.2       1 <0>        -0.6050
     13 N2          2.6618   -1.0216   -2.3238 N.am      1 <0>        -0.5944
     14 C10         1.8875   -1.3740   -3.5165 C.3       1 <0>         0.0861
     15 C11         4.1218   -1.1417   -2.3364 C.3       1 <0>         0.0790
     16 H2          4.5198   -0.8374   -1.3684 H         1 <0>         0.0948
     17 C12         4.6982   -0.2410   -3.4307 C.3       1 <0>        -0.1360
     18 C13         4.5058   -2.5730   -2.6100 C.2       1 <0>         0.4919
     19 O2          3.6569   -3.3761   -2.9579 O.co2     1 <0>        -0.6877
     20 O3          5.6653   -2.9280   -2.4834 O.co2     1 <0>        -0.6946
     21 H3          1.0039    1.9031    0.0027 H         1 <0>         0.0606
     22 H4         -0.5459    1.8868   -0.8726 H         1 <0>         0.0516
     23 H5         -0.5289    1.8773    0.9072 H         1 <0>         0.0624
     24 H6         -1.9605   -0.1726   -0.8702 H         1 <0>         0.0720
     25 H7         -0.9024   -2.4150   -0.8923 H         1 <0>         0.0661
     26 H8         -0.8854   -2.4246    0.8875 H         1 <0>         0.0634
     27 H9         -3.3751   -2.2320   -0.8677 H         1 <0>         0.0595
     28 H10        -2.8332   -3.6829    0.0093 H         1 <0>         0.0606
     29 H11        -4.5867   -2.4769    1.2819 H         1 <0>         0.0574
     30 H12        -3.0369   -2.4607    2.1572 H         1 <0>         0.0610
     31 H13        -4.1120   -0.2087    0.3995 H         1 <0>         0.0600
     32 H14        -4.0950   -0.2183    2.1793 H         1 <0>         0.0595
     33 H15        -1.6223   -0.4013    2.1547 H         1 <0>         0.0645
     34 H16        -2.1642    1.0497    1.2777 H         1 <0>         0.0668
     35 H17         0.1751   -0.7099   -1.9930 H         1 <0>         0.3920
     36 H18         1.7722   -0.4932   -4.1482 H         1 <0>         0.0329
     37 H19         2.4097   -2.1533   -4.0715 H         1 <0>         0.1006
     38 H20         0.9045   -1.7377   -3.2172 H         1 <0>         0.0493
     39 H21         4.3002   -0.5453   -4.3988 H         1 <0>         0.0488
     40 H22         4.4204    0.7943   -3.2329 H         1 <0>         0.0424
     41 H23         5.7845   -0.3303   -3.4401 H         1 <0>         0.0670
@<TRIPOS>BOND
     1    1    2 1
     2    1   21 1
     3    1   22 1
     4    1   23 1
     5    2    3 1
     6    2    4 1
     7    2   10 1
     8    4    9 1
     9    4    5 1
    10    4   24 1
    11    5    6 1
    12    5   25 1
    13    5   26 1
    14    6    7 1
    15    6   27 1
    16    6   28 1
    17    7    8 1
    18    7   29 1
    19    7   30 1
    20    8    9 1
    21    8   31 1
    22    8   32 1
    23    9   33 1
    24    9   34 1
    25   10   11 am
    26   10   35 1
    27   11   12 2
    28   11   13 am
    29   13   14 1
    30   13   15 1
    31   14   36 1
    32   14   37 1
    33   14   38 1
    34   15   16 1
    35   15   17 1
    36   15   18 1
    37   17   39 1
    38   17   40 1
    39   17   41 1
    40   18   19 2
    41   18   20 1
@<TRIPOS>MOLECULE
ZINC63074375
   41    41     0     0     0
SMALL
USER_CHARGES

@<TRIPOS>ATOM
      1 C1         -0.0187    1.5258    0.0104 C.3       1 <0>        -0.1472
      2 C2          0.0021   -0.0041    0.0020 C.3       1 <0>        -0.1148
      3 C3          0.7182   -0.4975   -1.2568 C.3       1 <0>        -0.0800
      4 H1          1.7103   -0.0491   -1.3098 H         1 <0>         0.0576
      5 C4         -0.0892   -0.0968   -2.4931 C.3       1 <0>        -0.1413
      6 C5          0.8493   -2.0210   -1.2049 C.3       1 <0>         0.0941
      7 H2          1.3468   -2.3116   -0.2797 H         1 <0>         0.0770
      8 C6         -0.5215   -2.6451   -1.2556 C.2       1 <0>         0.4985
      9 O1         -1.0228   -2.9288   -2.3301 O.co2     1 <0>        -0.6917
     10 O2         -1.1292   -2.8663   -0.2220 O.co2     1 <0>        -0.6963
     11 N1          1.6385   -2.4825   -2.3496 N.am      1 <0>        -0.7106
     12 C7          2.3088   -3.6496   -2.2794 C.2       1 <0>         0.7238
     13 O3          2.2585   -4.3195   -1.2659 O.2       1 <0>        -0.5873
     14 N2          3.0349   -4.0742   -3.3324 N.am      1 <0>        -0.6343
     15 C8          3.1876   -3.3617   -4.6140 C.3       1 <0>         0.1009
     16 C9          4.5245   -3.8810   -5.1996 C.3       1 <0>        -0.1299
     17 C10         4.4919   -5.3729   -4.7750 C.3       1 <0>        -0.1231
     18 C11         3.8111   -5.3214   -3.3911 C.3       1 <0>         0.1802
     19 C12         2.8780   -6.5230   -3.2282 C.3       1 <0>        -0.1574
     20 C13         4.8700   -5.3278   -2.2868 C.3       1 <0>        -0.1546
     21 H3          1.0039    1.9031    0.0027 H         1 <0>         0.0459
     22 H4         -0.5459    1.8868   -0.8726 H         1 <0>         0.0529
     23 H5         -0.5289    1.8773    0.9072 H         1 <0>         0.0489
     24 H6          0.5293   -0.3651    0.8851 H         1 <0>         0.0591
     25 H7         -1.0205   -0.3814    0.0098 H         1 <0>         0.0776
     26 H8          0.4210   -0.4484   -3.3899 H         1 <0>         0.0438
     27 H9         -1.0813   -0.5452   -2.4401 H         1 <0>         0.0718
     28 H10        -0.1826    0.9885   -2.5300 H         1 <0>         0.0446
     29 H11         1.6787   -1.9480   -3.1581 H         1 <0>         0.3854
     30 H12         2.3614   -3.6028   -5.2829 H         1 <0>         0.0647
     31 H13         3.2394   -2.2859   -4.4462 H         1 <0>         0.0674
     32 H14         4.5393   -3.7840   -6.2852 H         1 <0>         0.0795
     33 H15         5.3738   -3.3656   -4.7512 H         1 <0>         0.0731
     34 H16         3.9015   -5.9611   -5.4776 H         1 <0>         0.0759
     35 H17         5.5027   -5.7720   -4.6903 H         1 <0>         0.0788
     36 H18         2.1238   -6.5066   -4.0149 H         1 <0>         0.0537
     37 H19         3.4564   -7.4443   -3.2985 H         1 <0>         0.0569
     38 H20         2.3892   -6.4742   -2.2552 H         1 <0>         0.0741
     39 H21         4.3807   -5.2792   -1.3139 H         1 <0>         0.0749
     40 H22         5.4580   -6.2432   -2.3525 H         1 <0>         0.0570
     41 H23         5.5256   -4.4654   -2.4071 H         1 <0>         0.0505
@<TRIPOS>BOND
     1    1    2 1
     2    1   21 1
     3    1   22 1
     4    1   23 1
     5    2    3 1
     6    2   24 1
     7    2   25 1
     8    3    4 1
     9    3    5 1
    10    3    6 1
    11    5   26 1
    12    5   27 1
    13    5   28 1
    14    6    7 1
    15    6    8 1
    16    6   11 1
    17    8    9 2
    18    8   10 1
    19   11   12 am
    20   11   29 1
    21   12   13 2
    22   12   14 am
    23   14   18 1
    24   14   15 1
    25   15   16 1
    26   15   30 1
    27   15   31 1
    28   16   17 1
    29   16   32 1
    30   16   33 1
    31   17   18 1
    32   17   34 1
    33   17   35 1
    34   18   19 1
    35   18   20 1
    36   19   36 1
    37   19   37 1
    38   19   38 1
    39   20   39 1
    40   20   40 1
    41   20   41 1
@<TRIPOS>MOLECULE
ZINC09226988
   49    51     0     0     0
SMALL
USER_CHARGES
5-amino-N-(5-chloro-2-methoxy-phenyl)-1-[(3-methylsulfanylphenyl)carbamoylmethyl]triazole-4-carboxamide
@<TRIPOS>ATOM
      1 C1          1.1906    0.0604    1.6965 C.3       1 <0>         0.0274
      2 O1         -0.0803   -0.2849    1.1419 O.3       1 <0>        -0.3149
      3 C2         -0.1776   -1.4941    0.5271 C.ar      1 <0>         0.1038
      4 C3          0.9256   -2.3292    0.4594 C.ar      1 <0>        -0.1751
      5 C4          0.8256   -3.5584   -0.1654 C.ar      1 <0>        -0.0897
      6 C5         -0.3754   -3.9588   -0.7242 C.ar      1 <0>        -0.0491
      7 C6         -1.4810   -3.1304   -0.6610 C.ar      1 <0>        -0.0949
      8 C7         -1.3885   -1.8980   -0.0309 C.ar      1 <0>         0.1387
      9 N1         -2.5084   -1.0595    0.0396 N.am      1 <0>        -0.6445
     10 C8         -3.7460   -1.5754   -0.0967 C.2       1 <0>         0.6216
     11 O2         -3.8971   -2.7798   -0.1838 O.2       1 <0>        -0.5356
     12 C9         -4.9118   -0.6845   -0.1400 C.2       1 <0>        -0.1832
     13 C10        -6.2367   -1.0798   -0.2762 C.2       1 <0>         0.4276
     14 N2         -6.9766    0.0541   -0.2678 N.pl3     1 <0>        -0.3950
     15 N3         -6.0821    1.1234   -0.1258 N.2       1 <0>        -0.0549
     16 N4         -4.8849    0.6584   -0.0489 N.2       1 <0>        -0.1660
     17 C11        -8.4341    0.1455   -0.3840 C.3       1 <0>         0.1119
     18 C12        -9.0521    0.0892    0.9893 C.2       1 <0>         0.4916
     19 O3         -8.3447   -0.0169    1.9688 O.2       1 <0>        -0.4875
     20 N5        -10.3909    0.1567    1.1291 N.am      1 <0>        -0.6669
     21 C13       -10.9588    0.2162    2.4065 C.ar      1 <0>         0.1608
     22 C14       -12.1900   -0.3809    2.6488 C.ar      1 <0>        -0.1477
     23 C15       -12.7499   -0.3266    3.9107 C.ar      1 <0>        -0.0783
     24 C16       -12.0928    0.3294    4.9336 C.ar      1 <0>        -0.1464
     25 C17       -10.8634    0.9334    4.6970 C.ar      1 <0>        -0.0637
     26 C18       -10.2961    0.8762    3.4307 C.ar      1 <0>        -0.1005
     27 S1        -10.0262    1.7710    6.0017 S.3       1 <0>        -0.1065
     28 C19       -11.1320    1.5794    7.4268 C.3       1 <0>        -0.1469
     29 N6         -6.7055   -2.3718   -0.3966 N.pl3     1 <0>        -0.8112
     30 Cl1        -0.4942   -5.5038   -1.5068 Cl        1 <0>        -0.0650
     31 H1          1.1306    1.0472    2.1557 H         1 <0>         0.1042
     32 H2          1.4697   -0.6750    2.4510 H         1 <0>         0.0582
     33 H3          1.9408    0.0726    0.9059 H         1 <0>         0.0586
     34 H4          1.8641   -2.0200    0.8952 H         1 <0>         0.1426
     35 H5          1.6868   -4.2080   -0.2171 H         1 <0>         0.1375
     36 H6         -2.4171   -3.4446   -1.0985 H         1 <0>         0.1702
     37 H7         -2.3931   -0.1077    0.1864 H         1 <0>         0.4265
     38 H8         -8.7020    1.0864   -0.8647 H         1 <0>         0.1463
     39 H9         -8.8037   -0.6867   -0.9831 H         1 <0>         0.1276
     40 H10       -10.9608    0.1640    0.3442 H         1 <0>         0.4157
     41 H11       -12.7082   -0.8914    1.8504 H         1 <0>         0.1305
     42 H12       -13.7053   -0.7945    4.0968 H         1 <0>         0.1328
     43 H13       -12.5349    0.3733    5.9181 H         1 <0>         0.1265
     44 H14        -9.3409    1.3442    3.2439 H         1 <0>         0.1398
     45 H15       -10.6941    2.0716    8.2952 H         1 <0>         0.1115
     46 H16       -12.0975    2.0322    7.2010 H         1 <0>         0.0852
     47 H17       -11.2690    0.5194    7.6406 H         1 <0>         0.0850
     48 H18        -6.0834   -3.1161   -0.3906 H         1 <0>         0.4372
     49 H19        -7.6572   -2.5360   -0.4873 H         1 <0>         0.4043
@<TRIPOS>BOND
     1    1    2 1
     2    1   31 1
     3    1   32 1
     4    1   33 1
     5    2    3 1
     6    3    8 ar
     7    3    4 ar
     8    4    5 ar
     9    4   34 1
    10    5    6 ar
    11    5   35 1
    12    6    7 ar
    13    6   30 1
    14    7    8 ar
    15    7   36 1
    16    8    9 1
    17    9   10 am
    18    9   37 1
    19   10   11 2
    20   10   12 1
    21   12   16 1
    22   12   13 2
    23   13   14 1
    24   13   29 1
    25   14   15 1
    26   14   17 1
    27   15   16 2
    28   17   18 1
    29   17   38 1
    30   17   39 1
    31   18   19 2
    32   18   20 am
    33   20   21 1
    34   20   40 1
    35   21   26 ar
    36   21   22 ar
    37   22   23 ar
    38   22   41 1
    39   23   24 ar
    40   23   42 1
    41   24   25 ar
    42   24   43 1
    43   25   26 ar
    44   25   27 1
    45   26   44 1
    46   27   28 1
    47   28   45 1
    48   28   46 1
    49   28   47 1
    50   29   48 1
    51   29   49 1
@<TRIPOS>MOLECULE
ZINC20528013
   56    58     0     0     0
SMALL
USER_CHARGES
2-[[4-amino-5-[(N'E)-N'-[(4-ethoxyphenyl)methylene]hydrazino]-1,2,4-triazol-3-yl]sulfanyl]-N-[(1R)-1-phenylethyl]acetamide
@<TRIPOS>ATOM
      1 C1         -8.4080   -5.0739    0.0577 C.3       1 <0>        -0.1554
      2 C2         -7.2075   -4.1255    0.0503 C.3       1 <0>         0.0504
      3 O1         -5.9986   -4.8874    0.0343 O.3       1 <0>        -0.3143
      4 C3         -4.8313   -4.1920    0.0260 C.ar      1 <0>         0.1479
      5 C4         -3.6205   -4.8722    0.0104 C.ar      1 <0>        -0.1574
      6 C5         -2.4340   -4.1712    0.0029 C.ar      1 <0>        -0.0491
      7 C6         -2.4504   -2.7739    0.0106 C.ar      1 <0>        -0.0925
      8 C7         -3.6711   -2.0939    0.0316 C.ar      1 <0>        -0.0365
      9 C8         -4.8526   -2.8034    0.0337 C.ar      1 <0>        -0.2138
     10 C9         -1.1839   -2.0195    0.0025 C.2       1 <0>         0.1023
     11 N1         -1.2016   -0.7210    0.0097 N.2       1 <0>        -0.1996
     12 N2          0.0021   -0.0041    0.0020 N.pl3     1 <0>        -0.5624
     13 C10        -0.0167    1.3831    0.0096 C.2       1 <0>         0.4881
     14 N3         -1.0877    2.1393    0.0182 N.2       1 <0>        -0.3155
     15 N4         -0.6728    3.4774    0.0258 N.2       1 <0>        -0.3057
     16 C11         0.6387    3.4951    0.0139 C.2       1 <0>         0.1735
     17 N5          1.0784    2.2018    0.0036 N.pl3     1 <0>        -0.2630
     18 N6          2.3830    1.7974   -0.0097 N.3       1 <0>        -0.7779
     19 S1          1.6551    4.9344    0.0125 S.3       1 <0>         0.0713
     20 C12         0.4705    6.3081    0.0296 C.3       1 <0>        -0.1449
     21 C13         1.2184    7.6164    0.0298 C.2       1 <0>         0.5398
     22 O2          2.4312    7.6216    0.0194 O.2       1 <0>        -0.5268
     23 N7          0.5396    8.7807    0.0415 N.am      1 <0>        -0.7298
     24 C14         1.2667   10.0525    0.0417 C.3       1 <0>         0.1881
     25 H1          2.1650    9.9210   -0.5794 H         1 <0>         0.0983
     26 C15         1.6413   10.4256    1.4774 C.3       1 <0>        -0.1593
     27 C16         0.3930   11.1307   -0.5459 C.ar      1 <0>        -0.0925
     28 C17        -0.9559   11.1673   -0.2457 C.ar      1 <0>        -0.1157
     29 C18        -1.7565   12.1589   -0.7812 C.ar      1 <0>        -0.1144
     30 C19        -1.2099   13.1085   -1.6240 C.ar      1 <0>        -0.1180
     31 C20         0.1379   13.0689   -1.9283 C.ar      1 <0>        -0.1143
     32 C21         0.9393   12.0798   -1.3894 C.ar      1 <0>        -0.1078
     33 H2         -9.3385   -4.4874    0.0700 H         1 <0>         0.0808
     34 H3         -8.3652   -5.7125    0.9523 H         1 <0>         0.0676
     35 H4         -8.3834   -5.7036   -0.8439 H         1 <0>         0.0676
     36 H5         -7.2503   -3.4869   -0.8443 H         1 <0>         0.0654
     37 H6         -7.2321   -3.4958    0.9519 H         1 <0>         0.0654
     38 H7         -3.6088   -5.9521    0.0045 H         1 <0>         0.1359
     39 H8         -1.4929   -4.7010   -0.0085 H         1 <0>         0.1355
     40 H9         -3.6886   -1.0141    0.0425 H         1 <0>         0.1389
     41 H10        -5.7966   -2.2788    0.0455 H         1 <0>         0.1322
     42 H11        -0.2239   -2.5564   -0.0096 H         1 <0>         0.1237
     43 H12         0.9620   -0.5411   -0.0101 H         1 <0>         0.4085
     44 H13         3.1904    2.5445   -0.0135 H         1 <0>         0.4494
     45 H14         2.6262    0.7247   -0.0166 H         1 <0>         0.4364
     46 H15        -0.1693    6.2516   -0.8634 H         1 <0>         0.1288
     47 H16        -0.1540    6.2426    0.9328 H         1 <0>         0.1289
     48 H17        -0.5604    8.7760    0.0509 H         1 <0>         0.4236
     49 H18         2.1873   11.3806    1.4775 H         1 <0>         0.0700
     50 H19         2.2790    9.6386    1.9062 H         1 <0>         0.0668
     51 H20         0.7269   10.5259    2.0806 H         1 <0>         0.0616
     52 H21        -1.3836   10.4231    0.4098 H         1 <0>         0.1216
     53 H22        -2.8095   12.1900   -0.5432 H         1 <0>         0.1248
     54 H23        -1.8359   13.8817   -2.0445 H         1 <0>         0.1236
     55 H24         0.5649   13.8108   -2.5868 H         1 <0>         0.1250
     56 H25         1.9924   12.0489   -1.6271 H         1 <0>         0.1247
@<TRIPOS>BOND
     1    1    2 1
     2    1   33 1
     3    1   34 1
     4    1   35 1
     5    2    3 1
     6    2   36 1
     7    2   37 1
     8    3    4 1
     9    4    9 ar
    10    4    5 ar
    11    5    6 ar
    12    5   38 1
    13    6    7 ar
    14    6   39 1
    15    7    8 ar
    16    7   10 1
    17    8    9 ar
    18    8   40 1
    19    9   41 1
    20   10   11 2
    21   10   42 1
    22   11   12 1
    23   12   13 1
    24   12   43 1
    25   13   17 1
    26   13   14 2
    27   14   15 1
    28   15   16 2
    29   16   17 1
    30   16   19 1
    31   17   18 1
    32   18   44 1
    33   18   45 1
    34   19   20 1
    35   20   21 1
    36   20   46 1
    37   20   47 1
    38   21   22 2
    39   21   23 am
    40   23   24 1
    41   23   48 1
    42   24   25 1
    43   24   26 1
    44   24   27 1
    45   26   49 1
    46   26   50 1
    47   26   51 1
    48   27   32 ar
    49   27   28 ar
    50   28   29 ar
    51   28   52 1
    52   29   30 ar
    53   29   53 1
    54   30   31 ar
    55   30   54 1
    56   31   32 ar
    57   31   55 1
    58   32   56 1
@<TRIPOS>MOLECULE
ZINC35682772
   60    63     0     0     0
SMALL
USER_CHARGES

@<TRIPOS>ATOM
      1 C1         -0.0173    1.4248    0.0099 C.3       1 <0>         0.0286
      2 O1          0.0021   -0.0041    0.0020 O.3       1 <0>        -0.3214
      3 C2          0.6263   -0.6188    1.0423 C.ar      1 <0>         0.0723
      4 C3          1.2021    0.1393    2.0509 C.ar      1 <0>        -0.1571
      5 C4          1.8362   -0.4841    3.1076 C.ar      1 <0>        -0.1497
      6 C5          1.8971   -1.8704    3.1601 C.ar      1 <0>         0.1827
      7 C6          1.3203   -2.6287    2.1498 C.ar      1 <0>        -0.1597
      8 C7          0.6817   -2.0036    1.0968 C.ar      1 <0>        -0.1024
      9 N1          2.5398   -2.5030    4.2302 N.pl3     1 <0>        -0.7391
     10 C8          2.6038   -3.9655    4.2852 C.3       1 <0>         0.1143
     11 C9          3.3434   -4.3897    5.5278 C.2       1 <0>         0.5152
     12 O2          3.7745   -3.5526    6.2923 O.2       1 <0>        -0.5152
     13 N2          3.5256   -5.6991    5.7896 N.am      1 <0>        -0.5806
     14 N3          4.1960   -6.0836    6.9160 N.3       1 <0>        -0.4334
     15 C10         4.2800   -7.5475    7.0048 C.3       1 <0>         0.1068
     16 H1          4.8273   -7.8411    7.9006 H         1 <0>         0.1433
     17 C11         2.8652   -8.1664    7.0136 C.3       1 <0>        -0.1521
     18 C12         3.0838   -9.4723    6.2185 C.3       1 <0>        -0.0453
     19 C13         4.2746   -9.1939    5.3282 C.2       1 <0>        -0.2664
     20 C14         4.9502   -8.1115    5.7706 C.2       1 <0>         0.1806
     21 N4          6.0695   -7.6914    5.0986 N.am      1 <0>        -0.6165
     22 H2          6.5544   -6.9133    5.4152 H         1 <0>         0.4377
     23 C15         6.5025   -8.3444    4.0063 C.2       1 <0>         0.6989
     24 O3          7.4974   -7.9516    3.4281 O.2       1 <0>        -0.5244
     25 N5          5.8503   -9.4273    3.5443 N.am      1 <0>        -0.5485
     26 C16         4.7405   -9.8734    4.1745 C.2       1 <0>         0.5616
     27 O4          4.1482  -10.8528    3.7586 O.2       1 <0>        -0.5053
     28 C17         6.3415  -10.1225    2.3519 C.3       1 <0>         0.1439
     29 C18         7.7638  -10.6263    2.6049 C.3       1 <0>        -0.1352
     30 C19         8.2767  -11.3524    1.3597 C.3       1 <0>        -0.1135
     31 C20         8.2811  -10.3875    0.1723 C.3       1 <0>        -0.1228
     32 C21         6.8587   -9.8838   -0.0807 C.3       1 <0>        -0.1135
     33 C22         6.3458   -9.1577    1.1645 C.3       1 <0>        -0.1347
     34 H3          1.0053    1.8021    0.0021 H         1 <0>         0.0533
     35 H4         -0.5445    1.7859   -0.8732 H         1 <0>         0.0983
     36 H5         -0.5275    1.7763    0.9067 H         1 <0>         0.0532
     37 H6          1.1550    1.2175    2.0098 H         1 <0>         0.1286
     38 H7          2.2848    0.1064    3.8928 H         1 <0>         0.1249
     39 H8          1.3672   -3.7069    2.1899 H         1 <0>         0.1262
     40 H9          0.2289   -2.5933    0.3134 H         1 <0>         0.1306
     41 H10         2.9429   -1.9730    4.9356 H         1 <0>         0.4112
     42 H11         1.5930   -4.3729    4.3071 H         1 <0>         0.0912
     43 H12         3.1273   -4.3396    3.4053 H         1 <0>         0.0909
     44 H13         3.1808   -6.3686    5.1782 H         1 <0>         0.4038
     45 H14         3.7669   -5.6952    7.7425 H         1 <0>         0.3613
     46 H15         2.5397   -8.3801    8.0317 H         1 <0>         0.1021
     47 H16         2.1523   -7.5162    6.5065 H         1 <0>         0.0828
     48 H17         3.3027  -10.2968    6.8970 H         1 <0>         0.0900
     49 H18         2.2049   -9.7001    5.6154 H         1 <0>         0.0874
     50 H19         5.6905  -10.9683    2.1305 H         1 <0>         0.1140
     51 H20         8.4148   -9.7806    2.8264 H         1 <0>         0.0883
     52 H21         7.7607  -11.3137    3.4509 H         1 <0>         0.0625
     53 H22         9.2901  -11.7113    1.5399 H         1 <0>         0.0692
     54 H23         7.6258  -12.1981    1.1383 H         1 <0>         0.0646
     55 H24         8.9321   -9.5418    0.3937 H         1 <0>         0.0662
     56 H25         8.6465  -10.9048   -0.7149 H         1 <0>         0.0658
     57 H26         6.8618   -9.1964   -0.9266 H         1 <0>         0.0693
     58 H27         6.2078  -10.7295   -0.3022 H         1 <0>         0.0646
     59 H28         5.3325   -8.7988    0.9843 H         1 <0>         0.0623
     60 H29         6.9968   -8.3120    1.3860 H         1 <0>         0.0883
@<TRIPOS>BOND
     1    1    2 1
     2    1   34 1
     3    1   35 1
     4    1   36 1
     5    2    3 1
     6    3    8 ar
     7    3    4 ar
     8    4    5 ar
     9    4   37 1
    10    5    6 ar
    11    5   38 1
    12    6    7 ar
    13    6    9 1
    14    7    8 ar
    15    7   39 1
    16    8   40 1
    17    9   10 1
    18    9   41 1
    19   10   11 1
    20   10   42 1
    21   10   43 1
    22   11   12 2
    23   11   13 am
    24   13   14 1
    25   13   44 1
    26   14   15 1
    27   14   45 1
    28   15   16 1
    29   15   20 1
    30   15   17 1
    31   17   18 1
    32   17   46 1
    33   17   47 1
    34   18   19 1
    35   18   48 1
    36   18   49 1
    37   19   26 1
    38   19   20 2
    39   20   21 1
    40   21   22 1
    41   21   23 am
    42   23   24 2
    43   23   25 am
    44   25   26 am
    45   25   28 1
    46   26   27 2
    47   28   33 1
    48   28   29 1
    49   28   50 1
    50   29   30 1
    51   29   51 1
    52   29   52 1
    53   30   31 1
    54   30   53 1
    55   30   54 1
    56   31   32 1
    57   31   55 1
    58   31   56 1
    59   32   33 1
    60   32   57 1
    61   32   58 1
    62   33   59 1
    63   33   60 1
@<TRIPOS>MOLECULE
ZINC15289310
   61    63     0     0     0
SMALL
USER_CHARGES

@<TRIPOS>ATOM
      1 C1          1.0299   -5.5972    3.4080 C.3       1 <0>        -0.1469
      2 C2         -0.1197   -5.2302    2.4674 C.3       1 <0>        -0.1130
      3 C3         -1.3860   -4.9720    3.2863 C.3       1 <0>        -0.1443
      4 C4          0.2463   -3.9688    1.6827 C.3       1 <0>         0.1068
      5 N1         -0.8008   -3.6852    0.6981 N.am      1 <0>        -0.5360
      6 C5         -0.7166   -4.2250   -0.5642 C.2       1 <0>         0.4844
      7 C6         -1.7095   -3.9500   -1.4822 C.2       1 <0>        -0.1455
      8 C7         -2.7810   -3.1229   -1.0965 C.2       1 <0>         0.5656
      9 O1         -3.6722   -2.8640   -1.8877 O.2       1 <0>        -0.5030
     10 N2         -2.8158   -2.6194    0.1528 N.am      1 <0>        -0.6608
     11 H1         -3.5540   -2.0495    0.4197 H         1 <0>         0.4325
     12 C8         -1.8418   -2.9028    1.0357 C.2       1 <0>         0.7114
     13 O2         -1.9006   -2.4391    2.1584 O.2       1 <0>        -0.5280
     14 N3         -1.6514   -4.4884   -2.7851 N.am      1 <0>        -0.5221
     15 C9         -1.7859   -5.9331   -2.9874 C.3       1 <0>         0.1021
     16 C10        -3.2678   -6.2962   -3.1018 C.3       1 <0>         0.0434
     17 O3         -3.8156   -5.6972   -4.2779 O.3       1 <0>        -0.3851
     18 C11        -5.2025   -5.9756   -4.4799 C.3       1 <0>         0.0361
     19 C12        -1.4718   -3.6726   -3.8448 C.2       1 <0>         0.5265
     20 O4         -1.4354   -2.4703   -3.6855 O.2       1 <0>        -0.5115
     21 C13        -1.3166   -4.2547   -5.2261 C.3       1 <0>         0.1064
     22 N4         -1.1362   -3.1710   -6.1953 N.pl3     1 <0>        -0.7272
     23 C14        -0.9711   -3.4656   -7.5469 C.ar      1 <0>         0.2376
     24 C15        -0.9822   -4.7746   -7.9801 C.ar      1 <0>        -0.2240
     25 C16        -0.8186   -5.0794   -9.3278 C.ar      1 <0>        -0.0581
     26 C17        -0.6431   -4.0972  -10.2545 C.ar      1 <0>        -0.1746
     27 C18        -0.6256   -2.7502   -9.8548 C.ar      1 <0>        -0.0080
     28 C19        -0.7969   -2.4266   -8.4862 C.ar      1 <0>        -0.0972
     29 C20        -0.7841   -1.0804   -8.0892 C.ar      1 <0>        -0.0929
     30 C21        -0.6132   -0.1040   -9.0228 C.ar      1 <0>        -0.1322
     31 C22        -0.4507   -0.4208  -10.3700 C.ar      1 <0>        -0.1047
     32 C23        -0.4459   -1.7157  -10.7894 C.ar      1 <0>        -0.1191
     33 N5          0.3443   -5.0285   -0.9074 N.pl3     1 <0>        -0.8325
     34 H2          0.7692   -6.4959    3.9670 H         1 <0>         0.0657
     35 H3          1.9321   -5.7812    2.8246 H         1 <0>         0.0583
     36 H4          1.2075   -4.7761    4.1024 H         1 <0>         0.0632
     37 H5         -0.2972   -6.0514    1.7730 H         1 <0>         0.0744
     38 H6         -1.6468   -5.8706    3.8454 H         1 <0>         0.0570
     39 H7         -1.2085   -4.1508    3.9807 H         1 <0>         0.0675
     40 H8         -2.2050   -4.7105    2.6162 H         1 <0>         0.0496
     41 H9          0.3369   -3.1272    2.3694 H         1 <0>         0.1143
     42 H10         1.1955   -4.1228    1.1694 H         1 <0>         0.0917
     43 H11        -1.2694   -6.2214   -3.9029 H         1 <0>         0.0980
     44 H12        -1.3468   -6.4610   -2.1408 H         1 <0>         0.0931
     45 H13        -3.3728   -7.3794   -3.1632 H         1 <0>         0.0621
     46 H14        -3.8007   -5.9286   -2.2249 H         1 <0>         0.0558
     47 H15        -5.5423   -5.4857   -5.3924 H         1 <0>         0.0866
     48 H16        -5.3477   -7.0521   -4.5699 H         1 <0>         0.0412
     49 H17        -5.7756   -5.6014   -3.6316 H         1 <0>         0.0420
     50 H18        -0.4462   -4.9105   -5.2483 H         1 <0>         0.0867
     51 H19        -2.2088   -4.8262   -5.4819 H         1 <0>         0.1142
     52 H20        -1.1317   -2.2484   -5.8959 H         1 <0>         0.4096
     53 H21        -1.1189   -5.5724   -7.2651 H         1 <0>         0.1198
     54 H22        -0.8307   -6.1120   -9.6441 H         1 <0>         0.1198
     55 H23        -0.5171   -4.3534  -11.2961 H         1 <0>         0.1214
     56 H24        -0.9095   -0.8202   -7.0486 H         1 <0>         0.1200
     57 H25        -0.6037    0.9310   -8.7146 H         1 <0>         0.1213
     58 H26        -0.3176    0.3724  -11.0907 H         1 <0>         0.1216
     59 H27        -0.3178   -1.9465  -11.8367 H         1 <0>         0.1267
     60 H28         1.0703   -5.1677   -0.2794 H         1 <0>         0.4093
     61 H29         0.3671   -5.4564   -1.7776 H         1 <0>         0.4232
@<TRIPOS>BOND
     1    1    2 1
     2    1   34 1
     3    1   35 1
     4    1   36 1
     5    2    3 1
     6    2    4 1
     7    2   37 1
     8    3   38 1
     9    3   39 1
    10    3   40 1
    11    4    5 1
    12    4   41 1
    13    4   42 1
    14    5   12 am
    15    5    6 1
    16    6    7 2
    17    6   33 1
    18    7    8 1
    19    7   14 1
    20    8    9 2
    21    8   10 am
    22   10   11 1
    23   10   12 am
    24   12   13 2
    25   14   15 1
    26   14   19 am
    27   15   16 1
    28   15   43 1
    29   15   44 1
    30   16   17 1
    31   16   45 1
    32   16   46 1
    33   17   18 1
    34   18   47 1
    35   18   48 1
    36   18   49 1
    37   19   20 2
    38   19   21 1
    39   21   22 1
    40   21   50 1
    41   21   51 1
    42   22   23 1
    43   22   52 1
    44   23   28 ar
    45   23   24 ar
    46   24   25 ar
    47   24   53 1
    48   25   26 ar
    49   25   54 1
    50   26   27 ar
    51   26   55 1
    52   27   32 ar
    53   27   28 ar
    54   28   29 ar
    55   29   30 ar
    56   29   56 1
    57   30   31 ar
    58   30   57 1
    59   31   32 ar
    60   31   58 1
    61   32   59 1
    62   33   60 1
    63   33   61 1
@<TRIPOS>MOLECULE
ZINC59913304
   54    55     0     0     0
SMALL
USER_CHARGES

@<TRIPOS>ATOM
      1 C1         -0.3606    1.1902   -0.3142 C.3       1 <0>        -0.1558
      2 C2         -0.2533   -0.3324   -0.4187 C.3       1 <0>        -0.1293
      3 C3          0.6322   -0.7006   -1.6108 C.3       1 <0>         0.1497
      4 H1          0.2416   -0.2295   -2.5128 H         1 <0>         0.0837
      5 C4          0.6390   -2.2200   -1.7910 C.3       1 <0>        -0.1751
      6 N1          1.9986   -0.2316   -1.3674 N.pl3     1 <0>        -1.1105
      7 S1          2.9219    0.3185   -2.6272 S.o2      1 <0>         2.6937
      8 O1          4.1670    0.7207   -2.0729 O.2       1 <0>        -0.9596
      9 O2          2.8257   -0.6558   -3.6571 O.2       1 <0>        -0.9532
     10 C5          2.1490    1.7782   -3.2410 C.ar      1 <0>        -0.6920
     11 C6          1.1969    1.6869   -4.2397 C.ar      1 <0>        -0.0002
     12 C7          0.5892    2.8291   -4.7230 C.ar      1 <0>        -0.1418
     13 C8          0.9350    4.0702   -4.2046 C.ar      1 <0>         0.2049
     14 C9          1.8913    4.1584   -3.2015 C.ar      1 <0>        -0.1637
     15 C10         2.4918    3.0120   -2.7191 C.ar      1 <0>         0.0045
     16 N2          0.3216    5.2293   -4.6924 N.am      1 <0>        -0.6696
     17 C11        -0.9618    5.1911   -5.1023 C.2       1 <0>         0.5399
     18 O3         -1.6139    4.1785   -4.9600 O.2       1 <0>        -0.4938
     19 C12        -1.5864    6.4067   -5.7374 C.3       1 <0>        -0.1590
     20 S2         -3.3082    6.0420   -6.1767 S.3       1 <0>         0.1099
     21 C13        -3.8907    7.5404   -6.8977 C.2       1 <0>         0.1658
     22 N3         -3.2015    8.6450   -7.0666 N.2       1 <0>        -0.2926
     23 N4         -3.9387    9.5388   -7.6230 N.2       1 <0>        -0.2631
     24 C14        -5.1318    9.0625   -7.8406 C.2       1 <0>         0.1616
     25 N5         -5.1425    7.7707   -7.3919 N.pl3     1 <0>        -0.3050
     26 N6         -6.1893    6.8937   -7.4277 N.3       1 <0>        -0.5846
     27 C15        -6.2845    9.7970   -8.4752 C.3       1 <0>        -0.0050
     28 C16        -6.6252   11.0317   -7.6383 C.3       1 <0>        -0.1435
     29 C17        -5.8959   10.2312   -9.8899 C.3       1 <0>        -0.1441
     30 H2          0.6330    1.6157   -0.1738 H         1 <0>         0.0558
     31 H3         -0.7998    1.5872   -1.2294 H         1 <0>         0.0553
     32 H4         -0.9915    1.4525    0.5351 H         1 <0>         0.0566
     33 H5          0.1859   -0.7294    0.4965 H         1 <0>         0.0713
     34 H6         -1.2470   -0.7579   -0.5591 H         1 <0>         0.0779
     35 H7          1.0296   -2.6911   -0.8891 H         1 <0>         0.0625
     36 H8         -0.3776   -2.5689   -1.9721 H         1 <0>         0.0687
     37 H9          1.2699   -2.4823   -2.6403 H         1 <0>         0.0720
     38 H10         2.3625   -0.2434   -0.4683 H         1 <0>         0.4191
     39 H11         0.9284    0.7214   -4.6423 H         1 <0>         0.1447
     40 H12        -0.1539    2.7572   -5.5034 H         1 <0>         0.1458
     41 H13         2.1627    5.1222   -2.7966 H         1 <0>         0.1385
     42 H14         3.2326    3.0796   -1.9362 H         1 <0>         0.1456
     43 H15         0.8200    6.0604   -4.7356 H         1 <0>         0.4201
     44 H16        -1.5594    7.2387   -5.0337 H         1 <0>         0.1310
     45 H17        -1.0307    6.6730   -6.6364 H         1 <0>         0.1329
     46 H18        -6.7464    6.9613   -6.5892 H         1 <0>         0.3687
     47 H19        -6.7550    7.0393   -8.2504 H         1 <0>         0.3782
     48 H20        -7.1525    9.1394   -8.5226 H         1 <0>         0.0802
     49 H21        -6.9021   10.7225   -6.6305 H         1 <0>         0.0550
     50 H22        -5.7572   11.6894   -7.5910 H         1 <0>         0.0730
     51 H23        -7.4590   11.5630   -8.0973 H         1 <0>         0.0727
     52 H24        -5.6532    9.3516  -10.4861 H         1 <0>         0.0572
     53 H25        -6.7296   10.7625  -10.3489 H         1 <0>         0.0724
     54 H26        -5.0279   10.8888   -9.8426 H         1 <0>         0.0726
@<TRIPOS>BOND
     1    1    2 1
     2    1   30 1
     3    1   31 1
     4    1   32 1
     5    2    3 1
     6    2   33 1
     7    2   34 1
     8    3    4 1
     9    3    5 1
    10    3    6 1
    11    5   35 1
    12    5   36 1
    13    5   37 1
    14    6    7 1
    15    6   38 1
    16    7    8 2
    17    7    9 2
    18    7   10 1
    19   10   15 ar
    20   10   11 ar
    21   11   12 ar
    22   11   39 1
    23   12   13 ar
    24   12   40 1
    25   13   14 ar
    26   13   16 1
    27   14   15 ar
    28   14   41 1
    29   15   42 1
    30   16   17 am
    31   16   43 1
    32   17   18 2
    33   17   19 1
    34   19   20 1
    35   19   44 1
    36   19   45 1
    37   20   21 1
    38   21   25 1
    39   21   22 2
    40   22   23 1
    41   23   24 2
    42   24   25 1
    43   24   27 1
    44   25   26 1
    45   26   46 1
    46   26   47 1
    47   27   28 1
    48   27   29 1
    49   27   48 1
    50   28   49 1
    51   28   50 1
    52   28   51 1
    53   29   52 1
    54   29   53 1
    55   29   54 1
@<TRIPOS>MOLECULE
ZINC02437089
   43    45     0     0     0
SMALL
USER_CHARGES
N'-(ethyl-methyl-methylsulfanyl-BLAHyl)acetohydrazide
@<TRIPOS>ATOM
      1 C1          3.1802   -3.9377    9.6404 C.3       1 <0>        -0.1516
      2 C2          2.6711   -2.5971    9.1071 C.3       1 <0>        -0.1113
      3 C3          2.5975   -2.6506    7.5798 C.3       1 <0>         0.1206
      4 C4          2.0877   -1.3077    7.0486 C.3       1 <0>        -0.0973
      5 C5          2.2477   -1.3081    5.5301 C.2       1 <0>        -0.0646
      6 C6          3.0737   -2.2030    4.9475 C.2       1 <0>        -0.2021
      7 S1          2.9665   -1.8688    3.2124 S.3       1 <0>         0.1540
      8 C7          1.8099   -0.5242    3.2706 C.ar      1 <0>         0.1659
      9 C8          1.5440   -0.3788    4.6479 C.ar      1 <0>        -0.2440
     10 C9          0.6262    0.6538    4.9890 C.ar      1 <0>         0.5002
     11 N1          0.0984    1.3935    4.0284 N.ar      1 <0>        -0.5755
     12 C10         0.3890    1.1992    2.7475 C.ar      1 <0>         0.3634
     13 N2          1.2380    0.2520    2.3710 N.ar      1 <0>        -0.5221
     14 S2         -0.3614    2.2232    1.5257 S.3       1 <0>         0.0298
     15 C11         0.3865    1.5285    0.0309 C.3       1 <0>        -0.1488
     16 N3          0.2941    0.8849    6.3115 N.pl3     1 <0>        -0.4996
     17 N4         -0.7673    1.7431    6.6275 N.am      1 <0>        -0.5199
     18 C12        -1.0910    1.9682    7.9163 C.2       1 <0>         0.5111
     19 O1         -0.4635    1.4280    8.8025 O.2       1 <0>        -0.5444
     20 C13        -2.2326    2.8914    8.2563 C.3       1 <0>        -0.1631
     21 C14         3.8913   -3.2422    5.6504 C.3       1 <0>         0.1434
     22 O2          3.8976   -2.9267    7.0517 O.3       1 <0>        -0.3523
     23 C15         1.6346   -3.7619    7.1570 C.3       1 <0>        -0.1855
     24 H1          2.4981   -4.7320    9.3372 H         1 <0>         0.0561
     25 H2          4.1724   -4.1367    9.2356 H         1 <0>         0.0644
     26 H3          3.2326   -3.8996   10.7285 H         1 <0>         0.0561
     27 H4          3.3532   -1.8028    9.4103 H         1 <0>         0.0736
     28 H5          1.6788   -2.3982    9.5119 H         1 <0>         0.0792
     29 H6          2.6721   -0.4951    7.4802 H         1 <0>         0.0935
     30 H7          1.0363   -1.1842    7.3080 H         1 <0>         0.0870
     31 H8          0.1221    0.4743   -0.0514 H         1 <0>         0.0939
     32 H9          1.4705    1.6279    0.0872 H         1 <0>         0.0939
     33 H10         0.0173    2.0651   -0.8431 H         1 <0>         0.1109
     34 H11         0.7959    0.4528    7.0202 H         1 <0>         0.4451
     35 H12        -1.2691    2.1752    5.9188 H         1 <0>         0.4356
     36 H13        -3.1533    2.5078    7.8167 H         1 <0>         0.0963
     37 H14        -2.3433    2.9487    9.3391 H         1 <0>         0.1046
     38 H15        -2.0268    3.8853    7.8589 H         1 <0>         0.0970
     39 H16         3.4487   -4.2262    5.4959 H         1 <0>         0.0828
     40 H17         4.9111   -3.2313    5.2657 H         1 <0>         0.1162
     41 H18         1.5773   -3.7986    6.0691 H         1 <0>         0.0638
     42 H19         1.9958   -4.7187    7.5342 H         1 <0>         0.0749
     43 H20         0.6447   -3.5603    7.5664 H         1 <0>         0.0690
@<TRIPOS>BOND
     1    1    2 1
     2    1   24 1
     3    1   25 1
     4    1   26 1
     5    2    3 1
     6    2   27 1
     7    2   28 1
     8    3   22 1
     9    3    4 1
    10    3   23 1
    11    4    5 1
    12    4   29 1
    13    4   30 1
    14    5    9 1
    15    5    6 2
    16    6    7 1
    17    6   21 1
    18    7    8 1
    19    8   13 ar
    20    8    9 ar
    21    9   10 ar
    22   10   11 ar
    23   10   16 1
    24   11   12 ar
    25   12   13 ar
    26   12   14 1
    27   14   15 1
    28   15   31 1
    29   15   32 1
    30   15   33 1
    31   16   17 1
    32   16   34 1
    33   17   18 am
    34   17   35 1
    35   18   19 2
    36   18   20 1
    37   20   36 1
    38   20   37 1
    39   20   38 1
    40   21   22 1
    41   21   39 1
    42   21   40 1
    43   23   41 1
    44   23   42 1
    45   23   43 1
@<TRIPOS>MOLECULE
ZINC16650939
   48    50     0     0     0
SMALL
USER_CHARGES
6-methyl-5-propyl-2-[(4,6,8-trimethylquinazolin-2-yl)amino]-3H-pyrimidin-4-one
@<TRIPOS>ATOM
      1 C1         -3.0257    3.2232    1.4710 C.3       1 <0>        -0.1520
      2 C2         -1.6977    2.4633    1.4606 C.3       1 <0>        -0.1181
      3 C3         -1.3244    2.1087    0.0198 C.3       1 <0>        -0.0474
      4 C4         -0.0164    1.3603    0.0095 C.2       1 <0>        -0.2941
      5 C5          0.0021   -0.0041    0.0020 C.2       1 <0>         0.2105
      6 N1          1.1627   -0.6560   -0.0121 N.2       1 <0>        -0.5074
      7 C6          2.3115   -0.0111   -0.0196 C.2       1 <0>         0.6155
      8 N2          2.3554    1.3485   -0.0132 N.am      1 <0>        -0.6457
      9 H1          3.2097    1.8079   -0.0185 H         1 <0>         0.4119
     10 C7          1.2057    2.0564    0.0016 C.2       1 <0>         0.5451
     11 O1          1.2266    3.2762    0.0075 O.2       1 <0>        -0.5333
     12 N3          3.4846   -0.7235   -0.0337 N.pl3     1 <0>        -0.6090
     13 C8          3.4539   -2.1104   -0.0400 C.ar      1 <0>         0.5554
     14 N4          2.2719   -2.7232   -0.0320 N.ar      1 <0>        -0.4833
     15 C9          2.1762   -4.0361   -0.0378 C.ar      1 <0>         0.2492
     16 C10         3.3615   -4.7950   -0.0526 C.ar      1 <0>        -0.1772
     17 C11         3.3472   -6.1973   -0.0591 C.ar      1 <0>        -0.0775
     18 C12         4.5262   -6.8802   -0.0731 C.ar      1 <0>        -0.0897
     19 C13         5.7451   -6.2055   -0.0811 C.ar      1 <0>        -0.0764
     20 C14         5.7954   -4.8441   -0.0751 C.ar      1 <0>        -0.0727
     21 C15         4.6021   -4.1070   -0.0608 C.ar      1 <0>         0.1924
     22 N5          4.5959   -2.7682   -0.0590 N.ar      1 <0>        -0.5437
     23 C16         7.1248   -4.1345   -0.0845 C.3       1 <0>        -0.1068
     24 C17         4.5114   -8.3871   -0.0806 C.3       1 <0>        -0.1171
     25 C18         0.8288   -4.7110   -0.0281 C.3       1 <0>        -0.1096
     26 C19        -1.2933   -0.7741    0.0103 C.3       1 <0>        -0.1066
     27 H2         -3.2916    3.4758    2.4975 H         1 <0>         0.0533
     28 H3         -2.9257    4.1375    0.8861 H         1 <0>         0.0548
     29 H4         -3.8057    2.5976    1.0370 H         1 <0>         0.0540
     30 H5         -1.7977    1.5490    2.0455 H         1 <0>         0.0586
     31 H6         -0.9177    3.0889    1.8946 H         1 <0>         0.0614
     32 H7         -1.2244    3.0230   -0.5651 H         1 <0>         0.0739
     33 H8         -2.1044    1.4832   -0.4142 H         1 <0>         0.0743
     34 H9          4.3352   -0.2573   -0.0393 H         1 <0>         0.4351
     35 H10         2.4089   -6.7319   -0.0534 H         1 <0>         0.1371
     36 H11         6.6652   -6.7710   -0.0918 H         1 <0>         0.1340
     37 H12         7.4549   -3.9679    0.9409 H         1 <0>         0.0722
     38 H13         7.8596   -4.7462   -0.6079 H         1 <0>         0.0676
     39 H14         7.0215   -3.1760   -0.5932 H         1 <0>         0.0765
     40 H15         4.5174   -8.7556    0.9452 H         1 <0>         0.0744
     41 H16         3.6132   -8.7391   -0.5878 H         1 <0>         0.0701
     42 H17         5.3930   -8.7565   -0.6045 H         1 <0>         0.0698
     43 H18         0.4940   -4.8685   -1.0534 H         1 <0>         0.0928
     44 H19         0.9074   -5.6720    0.4801 H         1 <0>         0.0843
     45 H20         0.1104   -4.0805    0.4959 H         1 <0>         0.0918
     46 H21        -1.6155   -0.9542   -1.0154 H         1 <0>         0.0856
     47 H22        -1.1460   -1.7275    0.5176 H         1 <0>         0.0829
     48 H23        -2.0554   -0.1975    0.5345 H         1 <0>         0.0830
@<TRIPOS>BOND
     1    1    2 1
     2    1   27 1
     3    1   28 1
     4    1   29 1
     5    2    3 1
     6    2   30 1
     7    2   31 1
     8    3    4 1
     9    3   32 1
    10    3   33 1
    11    4   10 1
    12    4    5 2
    13    5    6 1
    14    5   26 1
    15    6    7 2
    16    7    8 1
    17    7   12 1
    18    8    9 1
    19    8   10 am
    20   10   11 2
    21   12   13 1
    22   12   34 1
    23   13   22 ar
    24   13   14 ar
    25   14   15 ar
    26   15   16 ar
    27   15   25 1
    28   16   21 ar
    29   16   17 ar
    30   17   18 ar
    31   17   35 1
    32   18   19 ar
    33   18   24 1
    34   19   20 ar
    35   19   36 1
    36   20   21 ar
    37   20   23 1
    38   21   22 ar
    39   23   37 1
    40   23   38 1
    41   23   39 1
    42   24   40 1
    43   24   41 1
    44   24   42 1
    45   25   43 1
    46   25   44 1
    47   25   45 1
    48   26   46 1
    49   26   47 1
    50   26   48 1
@<TRIPOS>MOLECULE
ZINC35578254
   49    52     0     0     0
SMALL
USER_CHARGES

@<TRIPOS>ATOM
      1 C1         -0.3746    2.2137   -0.4030 C.3       1 <0>        -0.1660
      2 C2          0.0257    0.7443   -0.2561 C.3       1 <0>         0.1263
      3 N1          0.7169    0.3028   -1.4700 N.pl3     1 <0>        -0.5808
      4 C3          2.1723    0.4348   -1.5733 C.3       1 <0>         0.1008
      5 C4         -0.0047   -0.2386   -2.5186 C.ar      1 <0>         0.6161
      6 N2          0.6593   -0.6326   -3.6011 N.ar      1 <0>        -0.5850
      7 C5          0.0458   -1.1626   -4.6515 C.ar      1 <0>         0.3778
      8 C6         -1.3588   -1.3068   -4.6037 C.ar      1 <0>        -0.3897
      9 C7         -2.3390   -1.7950   -5.4592 C.2       1 <0>         0.4599
     10 N3         -3.5253   -1.6620   -4.8343 N.pl3     1 <0>        -0.3157
     11 N4         -3.3367   -1.0892   -3.5714 N.2       1 <0>        -0.3109
     12 C8         -2.0558   -0.8573   -3.3846 C.ar      1 <0>         0.3720
     13 N5         -1.3115   -0.3407   -2.3880 N.ar      1 <0>        -0.5800
     14 C9         -4.7627   -2.0401   -5.3691 C.ar      1 <0>         0.1830
     15 C10        -5.0009   -1.9102   -6.7316 C.ar      1 <0>        -0.1604
     16 C11        -6.2218   -2.2841   -7.2573 C.ar      1 <0>        -0.0600
     17 C12        -7.2084   -2.7874   -6.4296 C.ar      1 <0>        -0.1540
     18 C13        -6.9754   -2.9182   -5.0706 C.ar      1 <0>         0.1290
     19 C14        -5.7518   -2.5509   -4.5396 C.ar      1 <0>        -0.1401
     20 F1         -7.9415   -3.4095   -4.2641 F         1 <0>        -0.1273
     21 N6         -2.1344   -2.3204   -6.7211 N.pl3     1 <0>        -0.8310
     22 C15         0.8132   -1.5913   -5.8428 C.ar      1 <0>        -0.0563
     23 C16         0.3771   -1.2398   -7.1207 C.ar      1 <0>        -0.1181
     24 C17         1.0966   -1.6423   -8.2268 C.ar      1 <0>        -0.1146
     25 C18         2.2484   -2.3931   -8.0709 C.ar      1 <0>        -0.1028
     26 C19         2.6857   -2.7451   -6.8066 C.ar      1 <0>        -0.0820
     27 C20         1.9783   -2.3433   -5.6920 C.ar      1 <0>        -0.0703
     28 C21         3.9407   -3.5638   -6.6459 C.3       1 <0>        -0.1184
     29 H1          0.5184    2.8203   -0.5536 H         1 <0>         0.0519
     30 H2         -1.0385    2.3255   -1.2602 H         1 <0>         0.0594
     31 H3         -0.8888    2.5422    0.5002 H         1 <0>         0.0664
     32 H4          0.6897    0.6326    0.6011 H         1 <0>         0.0759
     33 H5         -0.8673    0.1378   -0.1055 H         1 <0>         0.0912
     34 H6          2.6470   -0.4698   -1.1932 H         1 <0>         0.0524
     35 H7          2.4507    0.5801   -2.6171 H         1 <0>         0.0810
     36 H8          2.5020    1.2921   -0.9865 H         1 <0>         0.0687
     37 H9         -4.2315   -1.5165   -7.3793 H         1 <0>         0.1361
     38 H10        -6.4065   -2.1828   -8.3166 H         1 <0>         0.1487
     39 H11        -8.1625   -3.0787   -6.8434 H         1 <0>         0.1467
     40 H12        -5.5680   -2.6573   -3.4807 H         1 <0>         0.1526
     41 H13        -1.2342   -2.5154   -7.0252 H         1 <0>         0.4231
     42 H14        -2.8911   -2.4941   -7.3026 H         1 <0>         0.4073
     43 H15        -0.5219   -0.6542   -7.2437 H         1 <0>         0.1299
     44 H16         0.7599   -1.3712   -9.2165 H         1 <0>         0.1320
     45 H17         2.8082   -2.7058   -8.9399 H         1 <0>         0.1288
     46 H18         2.3235   -2.6144   -4.7052 H         1 <0>         0.1319
     47 H19         4.7999   -2.8986   -6.5595 H         1 <0>         0.0754
     48 H20         3.8629   -4.1754   -5.7471 H         1 <0>         0.0693
     49 H21         4.0671   -4.2095   -7.5150 H         1 <0>         0.0698
@<TRIPOS>BOND
     1    1    2 1
     2    1   29 1
     3    1   30 1
     4    1   31 1
     5    2    3 1
     6    2   32 1
     7    2   33 1
     8    3    4 1
     9    3    5 1
    10    4   34 1
    11    4   35 1
    12    4   36 1
    13    5   13 ar
    14    5    6 ar
    15    6    7 ar
    16    7    8 ar
    17    7   22 1
    18    8   12 ar
    19    8    9 2
    20    9   10 1
    21    9   21 1
    22   10   11 1
    23   10   14 1
    24   11   12 2
    25   12   13 ar
    26   14   19 ar
    27   14   15 ar
    28   15   16 ar
    29   15   37 1
    30   16   17 ar
    31   16   38 1
    32   17   18 ar
    33   17   39 1
    34   18   19 ar
    35   18   20 1
    36   19   40 1
    37   21   41 1
    38   21   42 1
    39   22   27 ar
    40   22   23 ar
    41   23   24 ar
    42   23   43 1
    43   24   25 ar
    44   24   44 1
    45   25   26 ar
    46   25   45 1
    47   26   27 ar
    48   26   28 1
    49   27   46 1
    50   28   47 1
    51   28   48 1
    52   28   49 1
@<TRIPOS>MOLECULE
ZINC56647752
   45    47     0     0     0
SMALL
USER_CHARGES

@<TRIPOS>ATOM
      1 C1          1.9674   -5.4014   -0.8182 C.3       1 <0>        -0.0764
      2 C2          1.0198   -4.2835   -0.4669 C.2       1 <0>         0.1107
      3 C3          0.4352   -3.3258   -1.3991 C.ar      1 <0>        -0.2029
      4 C4          0.5328   -3.1260   -2.7814 C.ar      1 <0>         0.0076
      5 C5         -0.1875   -2.0829   -3.3404 C.ar      1 <0>         0.0675
      6 C6         -0.9746   -1.2781   -2.5182 C.ar      1 <0>         0.1555
      7 N1         -1.0497   -1.4862   -1.2225 N.ar      1 <0>        -0.4845
      8 C7         -0.3815   -2.4703   -0.6338 C.ar      1 <0>         0.3013
      9 N2         -0.2840   -2.8969    0.6646 N.pl3     1 <0>        -0.3959
     10 N3          0.5708   -4.0019    0.7228 N.2       1 <0>        -0.2376
     11 C8         -0.9704   -2.2938    1.8097 C.3       1 <0>         0.1132
     12 N4         -0.1249   -1.8387   -4.7196 N.am      1 <0>        -0.6761
     13 C9          0.0126   -2.8666   -5.5804 C.2       1 <0>         0.7102
     14 O1         -0.0118   -4.0109   -5.1698 O.2       1 <0>        -0.5696
     15 N5          0.1773   -2.6262   -6.8963 N.am      1 <0>        -0.7301
     16 C10         0.3268   -3.7435   -7.8319 C.3       1 <0>         0.1847
     17 H1          0.8711   -4.5536   -7.3465 H         1 <0>         0.1096
     18 C11        -1.0561   -4.2413   -8.2570 C.3       1 <0>        -0.1646
     19 C12         1.0901   -3.2827   -9.0469 C.ar      1 <0>        -0.0566
     20 C13         0.4174   -3.0100  -10.2236 C.ar      1 <0>        -0.1057
     21 C14         1.1174   -2.5873  -11.3378 C.ar      1 <0>        -0.0872
     22 C15         2.4904   -2.4367  -11.2755 C.ar      1 <0>        -0.1120
     23 C16         3.1628   -2.7084  -10.0990 C.ar      1 <0>        -0.0737
     24 C17         2.4620   -3.1271   -8.9831 C.ar      1 <0>        -0.1662
     25 C18         3.1945   -3.4183   -7.6987 C.3       1 <0>         0.5056
     26 F1          4.5603   -3.1721   -7.8747 F         1 <0>        -0.1771
     27 F2          2.6993   -2.5942   -6.6824 F         1 <0>        -0.1711
     28 F3          3.0037   -4.7587   -7.3467 F         1 <0>        -0.1719
     29 H2          1.3975   -6.2999   -1.0549 H         1 <0>         0.0866
     30 H3          2.5657   -5.1125   -1.6823 H         1 <0>         0.0831
     31 H4          2.6243   -5.6004    0.0285 H         1 <0>         0.0820
     32 H5          1.1513   -3.7657   -3.3935 H         1 <0>         0.1521
     33 H6         -1.5352   -0.4651   -2.9556 H         1 <0>         0.1678
     34 H7         -1.9392   -2.7742    1.9468 H         1 <0>         0.0703
     35 H8         -0.3674   -2.4295    2.7075 H         1 <0>         0.0879
     36 H9         -1.1154   -1.2291    1.6269 H         1 <0>         0.0897
     37 H10        -0.1807   -0.9300   -5.0543 H         1 <0>         0.4092
     38 H11         0.1968   -1.7134   -7.2238 H         1 <0>         0.3995
     39 H12        -1.6396   -3.4062   -8.6445 H         1 <0>         0.0639
     40 H13        -0.9469   -4.9991   -9.0329 H         1 <0>         0.0727
     41 H14        -1.5671   -4.6733   -7.3966 H         1 <0>         0.0716
     42 H15        -0.6551   -3.1277  -10.2722 H         1 <0>         0.1423
     43 H16         0.5920   -2.3751  -12.2572 H         1 <0>         0.1363
     44 H17         3.0375   -2.1071  -12.1464 H         1 <0>         0.1376
     45 H18         4.2353   -2.5910  -10.0504 H         1 <0>         0.1408
@<TRIPOS>BOND
     1    1    2 1
     2    1   29 1
     3    1   30 1
     4    1   31 1
     5    2   10 2
     6    2    3 1
     7    3    8 ar
     8    3    4 ar
     9    4    5 ar
    10    4   32 1
    11    5    6 ar
    12    5   12 1
    13    6    7 ar
    14    6   33 1
    15    7    8 ar
    16    8    9 1
    17    9   10 1
    18    9   11 1
    19   11   34 1
    20   11   35 1
    21   11   36 1
    22   12   13 am
    23   12   37 1
    24   13   14 2
    25   13   15 am
    26   15   16 1
    27   15   38 1
    28   16   17 1
    29   16   18 1
    30   16   19 1
    31   18   39 1
    32   18   40 1
    33   18   41 1
    34   19   24 ar
    35   19   20 ar
    36   20   21 ar
    37   20   42 1
    38   21   22 ar
    39   21   43 1
    40   22   23 ar
    41   22   44 1
    42   23   24 ar
    43   23   45 1
    44   24   25 1
    45   25   26 1
    46   25   27 1
    47   25   28 1
@<TRIPOS>MOLECULE
ZINC05164185
   48    51     0     0     0
SMALL
USER_CHARGES

@<TRIPOS>ATOM
      1 C1         -1.1080    1.7426    0.8824 C.3       1 <0>        -0.1541
      2 C2         -1.2485    0.2362    1.1105 C.3       1 <0>         0.0528
      3 O1         -1.4068   -0.4233   -0.1473 O.3       1 <0>        -0.3123
      4 C3         -1.5456   -1.7747   -0.1221 C.ar      1 <0>         0.1506
      5 C4         -1.5352   -2.4494    1.0914 C.ar      1 <0>        -0.2071
      6 C5         -1.6758   -3.8206    1.1209 C.ar      1 <0>        -0.0523
      7 C6         -1.8292   -4.5303   -0.0707 C.ar      1 <0>        -0.0835
      8 C7         -1.8397   -3.8487   -1.2882 C.ar      1 <0>        -0.0430
      9 C8         -1.7034   -2.4769   -1.3095 C.ar      1 <0>        -0.1490
     10 C9         -1.9799   -6.0018   -0.0432 C.2       1 <0>         0.1869
     11 C10        -2.9024   -6.7282   -0.7194 C.2       1 <0>        -0.2520
     12 C11        -2.6970   -8.0881   -0.4147 C.2       1 <0>         0.2703
     13 N1         -1.6934   -8.1760    0.4113 N.2       1 <0>        -0.2522
     14 N2         -1.2110   -6.8825    0.6641 N.pl3     1 <0>        -0.4594
     15 H1         -0.4651   -6.6539    1.2406 H         1 <0>         0.4507
     16 O2         -3.4720   -9.0710   -0.9484 O.3       1 <0>        -0.2113
     17 C12        -4.2674   -8.7410   -1.9851 C.2       1 <0>         0.4412
     18 C13        -4.5465   -7.4757   -2.3623 C.2       1 <0>        -0.2651
     19 C14        -3.9931   -6.2664   -1.6515 C.3       1 <0>         0.1226
     20 H2         -3.5828   -5.5670   -2.3800 H         1 <0>         0.0938
     21 C15        -5.0872   -5.5957   -0.8615 C.ar      1 <0>        -0.0744
     22 C16        -5.7145   -6.2758    0.1656 C.ar      1 <0>        -0.0950
     23 C17        -6.7181   -5.6606    0.8903 C.ar      1 <0>        -0.1209
     24 C18        -7.0941   -4.3652    0.5882 C.ar      1 <0>        -0.0871
     25 C19        -6.4662   -3.6847   -0.4383 C.ar      1 <0>        -0.1185
     26 C20        -5.4596   -4.2984   -1.1601 C.ar      1 <0>        -0.1029
     27 C21        -8.1890   -3.6948    1.3776 C.3       1 <0>        -0.1155
     28 C22        -5.4069   -7.2722   -3.4888 C.1       1 <0>         0.2718
     29 N3         -6.0894   -7.1108   -4.3824 N.1       1 <0>        -0.4418
     30 N4         -4.8331   -9.7623   -2.7068 N.pl3     1 <0>        -0.8313
     31 H3         -0.9872    2.2456    1.8418 H         1 <0>         0.0802
     32 H4         -0.2353    1.9358    0.2585 H         1 <0>         0.0675
     33 H5         -2.0013    2.1195    0.3844 H         1 <0>         0.0677
     34 H6         -0.3552   -0.1407    1.6085 H         1 <0>         0.0640
     35 H7         -2.1211    0.0430    1.7344 H         1 <0>         0.0644
     36 H8         -1.4164   -1.8994    2.0133 H         1 <0>         0.1332
     37 H9         -1.6669   -4.3448    2.0651 H         1 <0>         0.1270
     38 H10        -1.9582   -4.3947   -2.2125 H         1 <0>         0.1372
     39 H11        -1.7151   -1.9483   -2.2513 H         1 <0>         0.1386
     40 H12        -5.4207   -7.2879    0.4016 H         1 <0>         0.1131
     41 H13        -7.2087   -6.1923    1.6922 H         1 <0>         0.1185
     42 H14        -6.7602   -2.6727   -0.6745 H         1 <0>         0.1194
     43 H15        -4.9665   -3.7655   -1.9596 H         1 <0>         0.1195
     44 H16        -7.7551   -3.1758    2.2322 H         1 <0>         0.0687
     45 H17        -8.7081   -2.9774    0.7420 H         1 <0>         0.0653
     46 H18        -8.8956   -4.4465    1.7294 H         1 <0>         0.0650
     47 H19        -4.6549  -10.6844   -2.4640 H         1 <0>         0.4119
     48 H20        -5.4111   -9.5621   -3.4595 H         1 <0>         0.4267
@<TRIPOS>BOND
     1    1    2 1
     2    1   31 1
     3    1   32 1
     4    1   33 1
     5    2    3 1
     6    2   34 1
     7    2   35 1
     8    3    4 1
     9    4    9 ar
    10    4    5 ar
    11    5    6 ar
    12    5   36 1
    13    6    7 ar
    14    6   37 1
    15    7    8 ar
    16    7   10 1
    17    8    9 ar
    18    8   38 1
    19    9   39 1
    20   10   14 1
    21   10   11 2
    22   11   19 1
    23   11   12 1
    24   12   13 2
    25   12   16 1
    26   13   14 1
    27   14   15 1
    28   16   17 1
    29   17   18 2
    30   17   30 1
    31   18   19 1
    32   18   28 1
    33   19   20 1
    34   19   21 1
    35   21   26 ar
    36   21   22 ar
    37   22   23 ar
    38   22   40 1
    39   23   24 ar
    40   23   41 1
    41   24   25 ar
    42   24   27 1
    43   25   26 ar
    44   25   42 1
    45   26   43 1
    46   27   44 1
    47   27   45 1
    48   27   46 1
    49   28   29 3
    50   30   47 1
    51   30   48 1
@<TRIPOS>MOLECULE
ZINC09239839
   45    48     0     0     0
SMALL
USER_CHARGES
N-benzo[1,3]dioxol-5-yl-2-(2,4-dimethoxyphenyl)amino-thiazole-4-carboxamide
@<TRIPOS>ATOM
      1 C1         -4.2125    5.0654   -2.3601 C.3       1 <0>         0.0242
      2 O1         -4.3494    4.2011   -1.2304 O.3       1 <0>        -0.3128
      3 C2         -3.2623    3.4614   -0.8837 C.ar      1 <0>         0.1553
      4 C3         -2.0896    3.5676   -1.6169 C.ar      1 <0>        -0.2045
      5 C4         -0.9815    2.8208   -1.2643 C.ar      1 <0>        -0.0851
      6 C5         -1.0431    1.9561   -0.1815 C.ar      1 <0>         0.0933
      7 C6         -2.2199    1.8487    0.5561 C.ar      1 <0>         0.1482
      8 C7         -3.3271    2.6021    0.2029 C.ar      1 <0>        -0.2114
      9 O2         -2.2816    1.0052    1.6210 O.3       1 <0>        -0.3123
     10 C8         -3.5203    0.9463    2.3310 C.3       1 <0>         0.0255
     11 N1          0.0800    1.1949    0.1738 N.pl3     1 <0>        -0.5952
     12 C9          1.3509    1.6506   -0.1344 C.2       1 <0>         0.3704
     13 N2          2.5084    1.0315   -0.0152 N.2       1 <0>        -0.5540
     14 C10         3.6503    1.6275   -0.3651 C.2       1 <0>         0.0360
     15 C11         3.6093    2.9083   -0.8568 C.2       1 <0>        -0.1609
     16 S1          1.8514    3.2294   -0.8054 S.3       1 <0>         0.0426
     17 C12         4.9340    0.9218   -0.2260 C.2       1 <0>         0.5938
     18 O3          5.9695    1.4734   -0.5480 O.2       1 <0>        -0.5102
     19 N3          4.9627   -0.3357    0.2581 N.am      1 <0>        -0.6540
     20 C13         6.1900   -0.9691    0.4895 C.ar      1 <0>         0.1597
     21 C14         6.3234   -2.3313    0.2557 C.ar      1 <0>        -0.1315
     22 C15         7.5352   -2.9566    0.4788 C.ar      1 <0>        -0.0786
     23 C16         8.6177   -2.2286    0.9457 C.ar      1 <0>         0.0165
     24 C17         8.4854   -0.8631    1.1867 C.ar      1 <0>         0.0543
     25 C18         7.2719   -0.2362    0.9581 C.ar      1 <0>        -0.1029
     26 O4          9.6808   -0.3816    1.6368 O.3       1 <0>        -0.3059
     27 C19        10.4278   -1.5384    2.0574 C.3       1 <0>         0.2130
     28 O5          9.8970   -2.6022    1.2451 O.3       1 <0>        -0.3079
     29 H1         -3.4161    5.7855   -2.1723 H         1 <0>         0.0597
     30 H2         -3.9671    4.4741   -3.2423 H         1 <0>         0.0594
     31 H3         -5.1499    5.5958   -2.5275 H         1 <0>         0.1039
     32 H4         -2.0413    4.2377   -2.4625 H         1 <0>         0.1405
     33 H5         -0.0683    2.9078   -1.8343 H         1 <0>         0.1422
     34 H6         -4.2403    2.5207    0.7736 H         1 <0>         0.1470
     35 H7         -3.4337    0.2375    3.1545 H         1 <0>         0.1057
     36 H8         -3.7604    1.9338    2.7253 H         1 <0>         0.0611
     37 H9         -4.3117    0.6228    1.6549 H         1 <0>         0.0611
     38 H10        -0.0336    0.3474    0.6318 H         1 <0>         0.4318
     39 H11         4.4164    3.5452   -1.1875 H         1 <0>         0.2096
     40 H12         4.1332   -0.8021    0.4462 H         1 <0>         0.4239
     41 H13         5.4801   -2.9020   -0.1043 H         1 <0>         0.1432
     42 H14         7.6378   -4.0154    0.2923 H         1 <0>         0.1419
     43 H15         7.1671    0.8224    1.1447 H         1 <0>         0.1449
     44 H16        10.2561   -1.7416    3.1145 H         1 <0>         0.0855
     45 H17        11.4909   -1.4002    1.8607 H         1 <0>         0.1330
@<TRIPOS>BOND
     1    1    2 1
     2    1   29 1
     3    1   30 1
     4    1   31 1
     5    2    3 1
     6    3    8 ar
     7    3    4 ar
     8    4    5 ar
     9    4   32 1
    10    5    6 ar
    11    5   33 1
    12    6    7 ar
    13    6   11 1
    14    7    8 ar
    15    7    9 1
    16    8   34 1
    17    9   10 1
    18   10   35 1
    19   10   36 1
    20   10   37 1
    21   11   12 1
    22   11   38 1
    23   12   16 1
    24   12   13 2
    25   13   14 1
    26   14   15 2
    27   14   17 1
    28   15   16 1
    29   15   39 1
    30   17   18 2
    31   17   19 am
    32   19   20 1
    33   19   40 1
    34   20   25 ar
    35   20   21 ar
    36   21   22 ar
    37   21   41 1
    38   22   23 ar
    39   22   42 1
    40   23   28 1
    41   23   24 ar
    42   24   25 ar
    43   24   26 1
    44   25   43 1
    45   26   27 1
    46   27   28 1
    47   27   44 1
    48   27   45 1
@<TRIPOS>MOLECULE
ZINC15732572
   46    49     0     0     0
SMALL
USER_CHARGES
N-(2-fluorophenyl)-2-[[2-(2-methoxyphenyl)-7-oxo-6H-pyrazolo[5,1-f][1,3,5]triazin-4-yl]sulfanyl]acetamide
@<TRIPOS>ATOM
      1 C1          1.2464    2.0182    0.0279 C.3       1 <0>         0.0152
      2 O1         -0.0181    1.3527    0.0454 O.3       1 <0>        -0.2846
      3 C2         -0.0002   -0.0043    0.0486 C.ar      1 <0>         0.1856
      4 C3          1.2079   -0.6847    0.0295 C.ar      1 <0>        -0.2234
      5 C4          1.2247   -2.0656    0.0382 C.ar      1 <0>        -0.0417
      6 C5          0.0382   -2.7800    0.0553 C.ar      1 <0>        -0.1675
      7 C6         -1.1712   -2.1187    0.0687 C.ar      1 <0>        -0.0167
      8 C7         -1.2017   -0.7233    0.0655 C.ar      1 <0>        -0.1005
      9 C8         -2.4958   -0.0081    0.0793 C.2       1 <0>         0.4496
     10 N1         -3.6261   -0.7043    0.0897 N.2       1 <0>        -0.5201
     11 C9         -4.8026   -0.0715    0.1078 C.2       1 <0>         0.3671
     12 C10        -6.1193   -0.5142    0.1253 C.2       1 <0>        -0.3300
     13 C11        -6.9458    0.6102    0.1321 C.2       1 <0>         0.5541
     14 O2         -8.1659    0.5984    0.1472 O.2       1 <0>        -0.5265
     15 N2         -6.1689    1.7109    0.1194 N.am      1 <0>        -0.5058
     16 H1         -6.4850    2.6280    0.1209 H         1 <0>         0.4400
     17 N3         -4.8300    1.3081    0.1041 N.pl3     1 <0>        -0.3303
     18 C12        -3.6505    1.9955    0.0877 C.2       1 <0>         0.3877
     19 N4         -2.5078    1.3279    0.0756 N.2       1 <0>        -0.5324
     20 S1         -3.6496    3.7575    0.0820 S.3       1 <0>         0.1179
     21 C13        -1.8671    4.0708    0.0587 C.3       1 <0>        -0.1489
     22 C14        -1.6183    5.5571    0.0508 C.2       1 <0>         0.5360
     23 O3         -2.5541    6.3287    0.0600 O.2       1 <0>        -0.5008
     24 N5         -0.3560    6.0290    0.0336 N.am      1 <0>        -0.6600
     25 C15        -0.1247    7.4065   -0.0679 C.ar      1 <0>         0.1070
     26 C16        -0.9946    8.3043    0.5356 C.ar      1 <0>        -0.0926
     27 C17        -0.7608    9.6624    0.4387 C.ar      1 <0>        -0.1092
     28 C18         0.3320   10.1295   -0.2681 C.ar      1 <0>        -0.0988
     29 C19         1.1983    9.2396   -0.8758 C.ar      1 <0>        -0.1351
     30 C20         0.9736    7.8783   -0.7782 C.ar      1 <0>         0.0766
     31 F1          1.8196    7.0086   -1.3723 F         1 <0>        -0.1364
     32 H2          1.8183    1.7349    0.9116 H         1 <0>         0.0613
     33 H3          1.7961    1.7304   -0.8682 H         1 <0>         0.0616
     34 H4          1.0894    3.0968    0.0272 H         1 <0>         0.0953
     35 H5          2.1369   -0.1341    0.0117 H         1 <0>         0.1373
     36 H6          2.1680   -2.5913    0.0274 H         1 <0>         0.1331
     37 H7          0.0608   -3.8598    0.0577 H         1 <0>         0.1357
     38 H8         -2.0940   -2.6797    0.0812 H         1 <0>         0.1490
     39 H9         -6.4449   -1.5440    0.1326 H         1 <0>         0.1802
     40 H10        -1.4092    3.6305    0.9445 H         1 <0>         0.1441
     41 H11        -1.4314    3.6248   -0.8353 H         1 <0>         0.1443
     42 H12         0.3923    5.4146    0.0915 H         1 <0>         0.4161
     43 H13        -1.8511    7.9412    1.0842 H         1 <0>         0.1501
     44 H14        -1.4355   10.3606    0.9117 H         1 <0>         0.1366
     45 H15         0.5092   11.1920   -0.3460 H         1 <0>         0.1374
     46 H16         2.0507    9.6076   -1.4275 H         1 <0>         0.1422
@<TRIPOS>BOND
     1    1    2 1
     2    1   32 1
     3    1   33 1
     4    1   34 1
     5    2    3 1
     6    3    8 ar
     7    3    4 ar
     8    4    5 ar
     9    4   35 1
    10    5    6 ar
    11    5   36 1
    12    6    7 ar
    13    6   37 1
    14    7    8 ar
    15    7   38 1
    16    8    9 1
    17    9   19 1
    18    9   10 2
    19   10   11 1
    20   11   17 1
    21   11   12 2
    22   12   13 1
    23   12   39 1
    24   13   14 2
    25   13   15 am
    26   15   16 1
    27   15   17 1
    28   17   18 1
    29   18   19 2
    30   18   20 1
    31   20   21 1
    32   21   22 1
    33   21   40 1
    34   21   41 1
    35   22   23 2
    36   22   24 am
    37   24   25 1
    38   24   42 1
    39   25   30 ar
    40   25   26 ar
    41   26   27 ar
    42   26   43 1
    43   27   28 ar
    44   27   44 1
    45   28   29 ar
    46   28   45 1
    47   29   30 ar
    48   29   46 1
    49   30   31 1
@<TRIPOS>MOLECULE
ZINC17207159
   48    51     0     0     0
SMALL
USER_CHARGES

@<TRIPOS>ATOM
      1 C1         -0.0184    1.5028    0.0103 C.3       1 <0>        -0.1233
      2 C2          0.0021   -0.0041    0.0020 C.ar      1 <0>        -0.0346
      3 C3          0.0056   -0.6827   -1.2148 C.ar      1 <0>        -0.1283
      4 C4          0.0239   -2.0444   -1.2578 C.ar      1 <0>        -0.0616
      5 C5          0.0400   -2.7731   -0.0597 C.ar      1 <0>        -0.1907
      6 C6          0.0598   -4.1803   -0.0414 C.ar      1 <0>         0.2544
      7 N1          0.0744   -4.7925    1.1239 N.ar      1 <0>        -0.4877
      8 C7          0.0708   -4.1125    2.2686 C.ar      1 <0>         0.5577
      9 N2          0.0526   -2.7954    2.3133 N.ar      1 <0>        -0.5477
     10 C8          0.0368   -2.0830    1.1799 C.ar      1 <0>         0.2008
     11 C9          0.0225   -0.6805    1.1844 C.ar      1 <0>        -0.1175
     12 N3          0.0864   -4.8189    3.4624 N.pl3     1 <0>        -0.6059
     13 C10         0.1051   -6.1913    3.4476 C.2       1 <0>         0.6339
     14 N4          0.1146   -6.8721    4.6252 N.am      1 <0>        -0.6448
     15 H1          0.1082   -6.3894    5.4666 H         1 <0>         0.4160
     16 C11         0.1325   -8.2222    4.6190 C.2       1 <0>         0.5503
     17 O1          0.1408   -8.8489    5.6658 O.2       1 <0>        -0.5176
     18 C12         0.1409   -8.8922    3.3823 C.2       1 <0>        -0.3084
     19 C13         0.1306   -8.1558    2.2336 C.2       1 <0>         0.2522
     20 N5          0.1080   -6.8261    2.2932 N.2       1 <0>        -0.5095
     21 C14         0.1398   -8.8490    0.8955 C.3       1 <0>        -0.1159
     22 C15         0.1613  -10.3981    3.3269 C.3       1 <0>        -0.0306
     23 S1          1.8218  -10.9961    3.7460 S.3       1 <0>         0.0566
     24 C16         1.6833  -12.7493    3.6382 C.2       1 <0>         0.0352
     25 N6          0.6395  -13.5057    3.3228 N.2       1 <0>        -0.2898
     26 N7          0.7157  -14.7643    3.2934 N.2       1 <0>        -0.2741
     27 C17         1.8315  -15.4070    3.5725 C.2       1 <0>         0.0702
     28 S2          2.9126  -14.0215    3.9150 S.3       1 <0>         0.0050
     29 C18         2.1178  -16.8865    3.5917 C.3       1 <0>        -0.0601
     30 C19         0.0637   -4.9679   -1.3262 C.3       1 <0>        -0.1114
     31 H2          1.0042    1.8801    0.0026 H         1 <0>         0.0793
     32 H3         -0.5455    1.8639   -0.8728 H         1 <0>         0.0738
     33 H4         -0.5286    1.8543    0.9071 H         1 <0>         0.0727
     34 H5         -0.0068   -0.1212   -2.1373 H         1 <0>         0.1331
     35 H6          0.0257   -2.5588   -2.2075 H         1 <0>         0.1394
     36 H7          0.0240   -0.1401    2.1195 H         1 <0>         0.1394
     37 H8          0.0841   -4.3429    4.3076 H         1 <0>         0.4374
     38 H9         -0.8855   -9.0301    0.5731 H         1 <0>         0.0937
     39 H10         0.6450   -8.2189    0.1634 H         1 <0>         0.0913
     40 H11         0.6666   -9.7993    0.9822 H         1 <0>         0.0849
     41 H12        -0.5596  -10.7977    4.0401 H         1 <0>         0.1079
     42 H13        -0.1008  -10.7282    2.3217 H         1 <0>         0.1119
     43 H14         2.4578  -17.2035    2.6058 H         1 <0>         0.0970
     44 H15         2.8929  -17.0970    4.3285 H         1 <0>         0.0914
     45 H16         1.2096  -17.4289    3.8546 H         1 <0>         0.1014
     46 H17         1.0921   -5.1434   -1.6416 H         1 <0>         0.0940
     47 H18        -0.4360   -5.9237   -1.1679 H         1 <0>         0.0932
     48 H19        -0.4624   -4.4064   -2.0982 H         1 <0>         0.0852
@<TRIPOS>BOND
     1    1    2 1
     2    1   31 1
     3    1   32 1
     4    1   33 1
     5    2   11 ar
     6    2    3 ar
     7    3    4 ar
     8    3   34 1
     9    4    5 ar
    10    4   35 1
    11    5   10 ar
    12    5    6 ar
    13    6    7 ar
    14    6   30 1
    15    7    8 ar
    16    8    9 ar
    17    8   12 1
    18    9   10 ar
    19   10   11 ar
    20   11   36 1
    21   12   13 1
    22   12   37 1
    23   13   20 2
    24   13   14 1
    25   14   15 1
    26   14   16 am
    27   16   17 2
    28   16   18 1
    29   18   19 2
    30   18   22 1
    31   19   20 1
    32   19   21 1
    33   21   38 1
    34   21   39 1
    35   21   40 1
    36   22   23 1
    37   22   41 1
    38   22   42 1
    39   23   24 1
    40   24   28 1
    41   24   25 2
    42   25   26 1
    43   26   27 2
    44   27   28 1
    45   27   29 1
    46   29   43 1
    47   29   44 1
    48   29   45 1
    49   30   46 1
    50   30   47 1
    51   30   48 1
@<TRIPOS>MOLECULE
ZINC41021734
   48    51     0     0     0
SMALL
USER_CHARGES

@<TRIPOS>ATOM
      1 C1          6.9778   -6.0219    2.6329 C.3       1 <0>        -0.1531
      2 C2          5.5905   -5.9172    1.9962 C.3       1 <0>         0.0568
      3 O1          4.8967   -4.7962    2.5476 O.3       1 <0>        -0.3211
      4 C3          3.6397   -4.5601    2.0857 C.ar      1 <0>         0.1023
      5 C4          3.0843   -5.3922    1.1274 C.ar      1 <0>        -0.1890
      6 C5          1.8064   -5.1506    0.6584 C.ar      1 <0>        -0.0952
      7 C6          1.0789   -4.0793    1.1432 C.ar      1 <0>        -0.1338
      8 C7          1.6255   -3.2447    2.0996 C.ar      1 <0>        -0.0929
      9 C8          2.9051   -3.4842    2.5792 C.ar      1 <0>         0.1180
     10 N1          3.4591   -2.6430    3.5524 N.am      1 <0>        -0.6554
     11 C9          2.6538   -1.9428    4.3756 C.2       1 <0>         0.5885
     12 O2          1.4491   -2.1186    4.3434 O.2       1 <0>        -0.4975
     13 C10         3.2079   -1.0036    5.2771 C.2       1 <0>        -0.2999
     14 C11         3.9149   -1.4605    6.3208 C.2       1 <0>         0.2281
     15 N2          4.4966   -0.6190    7.2380 N.pl3     1 <0>        -0.5968
     16 C12         4.5529    0.7300    6.9194 C.2       1 <0>         0.4734
     17 N3          5.2116    1.7101    7.4688 N.2       1 <0>        -0.3355
     18 N4          4.9764    2.8127    6.8436 N.2       1 <0>        -0.0190
     19 N5          4.1570    2.6090    5.8629 N.2       1 <0>        -0.0531
     20 N6          3.8502    1.2498    5.8794 N.pl3     1 <0>        -0.3933
     21 C13         2.9807    0.4620    5.0155 C.3       1 <0>         0.2782
     22 H1          3.2034    0.6838    3.9718 H         1 <0>         0.1270
     23 C14         1.5433    0.8078    5.3076 C.ar      1 <0>        -0.1332
     24 C15         1.0294    0.6166    6.5790 C.ar      1 <0>         0.1406
     25 C16        -0.2913    0.9346    6.8460 C.ar      1 <0>        -0.1481
     26 C17        -1.0961    1.4427    5.8436 C.ar      1 <0>        -0.0617
     27 C18        -0.5833    1.6335    4.5746 C.ar      1 <0>        -0.1169
     28 C19         0.7383    1.3215    4.3073 C.ar      1 <0>         0.0184
     29 Cl1         1.3835    1.5684    2.7147 Cl        1 <0>        -0.0435
     30 F1          1.8162    0.1195    7.5583 F         1 <0>        -0.1299
     31 C20         4.0768   -2.9487    6.4940 C.3       1 <0>        -0.1347
     32 H2          6.8743   -6.1526    3.7101 H         1 <0>         0.0661
     33 H3          7.5071   -6.8769    2.2123 H         1 <0>         0.0801
     34 H4          7.5404   -5.1106    2.4299 H         1 <0>         0.0663
     35 H5          5.6940   -5.7865    0.9190 H         1 <0>         0.0632
     36 H6          5.0279   -6.8285    2.1992 H         1 <0>         0.0634
     37 H7          3.6499   -6.2297    0.7463 H         1 <0>         0.1314
     38 H8          1.3752   -5.8002   -0.0890 H         1 <0>         0.1267
     39 H9          0.0813   -3.8940    0.7733 H         1 <0>         0.1286
     40 H10         1.0550   -2.4086    2.4765 H         1 <0>         0.1523
     41 H11         4.4225   -2.5643    3.6339 H         1 <0>         0.4140
     42 H12         4.8534   -0.9547    8.0752 H         1 <0>         0.4459
     43 H13        -0.6929    0.7853    7.8374 H         1 <0>         0.1457
     44 H14        -2.1265    1.6903    6.0522 H         1 <0>         0.1490
     45 H15        -1.2130    2.0302    3.7920 H         1 <0>         0.1477
     46 H16         4.9192   -3.2947    5.8950 H         1 <0>         0.1025
     47 H17         4.2608   -3.1744    7.5444 H         1 <0>         0.0924
     48 H18         3.1675   -3.4535    6.1678 H         1 <0>         0.0972
@<TRIPOS>BOND
     1    1    2 1
     2    1   32 1
     3    1   33 1
     4    1   34 1
     5    2    3 1
     6    2   35 1
     7    2   36 1
     8    3    4 1
     9    4    9 ar
    10    4    5 ar
    11    5    6 ar
    12    5   37 1
    13    6    7 ar
    14    6   38 1
    15    7    8 ar
    16    7   39 1
    17    8    9 ar
    18    8   40 1
    19    9   10 1
    20   10   11 am
    21   10   41 1
    22   11   12 2
    23   11   13 1
    24   13   21 1
    25   13   14 2
    26   14   15 1
    27   14   31 1
    28   15   16 1
    29   15   42 1
    30   16   20 1
    31   16   17 2
    32   17   18 1
    33   18   19 2
    34   19   20 1
    35   20   21 1
    36   21   22 1
    37   21   23 1
    38   23   28 ar
    39   23   24 ar
    40   24   25 ar
    41   24   30 1
    42   25   26 ar
    43   25   43 1
    44   26   27 ar
    45   26   44 1
    46   27   28 ar
    47   27   45 1
    48   28   29 1
    49   31   46 1
    50   31   47 1
    51   31   48 1
@<TRIPOS>MOLECULE
ZINC47544891
   57    59     0     0     0
SMALL
USER_CHARGES

@<TRIPOS>ATOM
      1 C1         -0.0133    1.5377    0.0164 C.3       1 <0>        -0.1863
      2 C2          0.0022    0.0078    0.0045 C.3       1 <0>         0.1350
      3 C3          0.7413   -0.5043    1.2424 C.3       1 <0>        -0.1860
      4 C4         -1.4349   -0.5168    0.0152 C.3       1 <0>        -0.1413
      5 O1          0.6687   -0.4526   -1.1727 O.3       1 <0>        -0.3595
      6 C5          1.9512   -0.0765   -1.3357 C.2       1 <0>         0.6510
      7 O2          2.4898    0.6235   -0.5012 O.2       1 <0>        -0.5633
      8 N1          2.6376   -0.4765   -2.4244 N.am      1 <0>        -0.7086
      9 C6          4.0330   -0.0673   -2.6018 C.3       1 <0>         0.1647
     10 C7          4.0797    1.3141   -3.2588 C.3       1 <0>        -0.1475
     11 C8          5.5393    1.7536   -3.4111 C.3       1 <0>         0.1327
     12 N2          6.2729    0.7121   -4.1432 N.am      1 <0>        -0.6295
     13 C9          6.2199   -0.6700   -3.6477 C.3       1 <0>         0.1168
     14 C10         4.7527   -1.0824   -3.4928 C.3       1 <0>        -0.1438
     15 C11         6.9805    1.0188   -5.2484 C.2       1 <0>         0.7113
     16 O3          6.9399    2.1457   -5.7031 O.2       1 <0>        -0.5845
     17 N3          7.7333    0.0763   -5.8496 N.am      1 <0>        -0.7435
     18 C12         8.5871    0.4349   -6.9849 C.3       1 <0>         0.1496
     19 C13         9.3293   -0.8090   -7.4777 C.3       1 <0>         0.0393
     20 C14        10.2962   -0.4219   -8.6049 C.3       1 <0>         0.0306
     21 O4         10.9621   -1.6082   -9.0513 O.3       1 <0>        -0.3028
     22 C15        10.1820   -2.7020   -9.2695 C.ar      1 <0>         0.0474
     23 C16        10.6773   -3.7504  -10.0306 C.ar      1 <0>        -0.1126
     24 C17         9.8985   -4.8691  -10.2582 C.ar      1 <0>        -0.1142
     25 C18         8.6238   -4.9463   -9.7283 C.ar      1 <0>        -0.1145
     26 C19         8.1238   -3.9045   -8.9703 C.ar      1 <0>        -0.1131
     27 C20         8.8998   -2.7784   -8.7391 C.ar      1 <0>         0.0503
     28 O5          8.3907   -1.7569   -7.9977 O.3       1 <0>        -0.3020
     29 H1          1.0106    1.9115    0.0088 H         1 <0>         0.0876
     30 H2         -0.5398    1.9026   -0.8654 H         1 <0>         0.0592
     31 H3         -0.5216    1.8889    0.9144 H         1 <0>         0.0706
     32 H4          0.2330   -0.1531    2.1403 H         1 <0>         0.0706
     33 H5          0.7524   -1.5942    1.2339 H         1 <0>         0.0589
     34 H6          1.7652   -0.1305    1.2348 H         1 <0>         0.0875
     35 H7         -1.9615   -0.1520   -0.8667 H         1 <0>         0.0667
     36 H8         -1.4239   -1.6068    0.0067 H         1 <0>         0.0666
     37 H9         -1.9433   -0.1656    0.9131 H         1 <0>         0.0813
     38 H10         2.2076   -1.0353   -3.0906 H         1 <0>         0.4060
     39 H11         4.5250   -0.0239   -1.6301 H         1 <0>         0.0960
     40 H12         3.6099    1.2658   -4.2412 H         1 <0>         0.0719
     41 H13         3.5468    2.0318   -2.6351 H         1 <0>         0.0845
     42 H14         5.5827    2.6903   -3.9668 H         1 <0>         0.1004
     43 H15         5.9845    1.8900   -2.4256 H         1 <0>         0.0721
     44 H16         6.7124   -1.3325   -4.3595 H         1 <0>         0.0834
     45 H17         6.7207   -0.7313   -2.6815 H         1 <0>         0.0777
     46 H18         4.6988   -2.0704   -3.0355 H         1 <0>         0.0874
     47 H19         4.2766   -1.1081   -4.4729 H         1 <0>         0.0779
     48 H20         7.7098   -0.8395   -5.5307 H         1 <0>         0.3996
     49 H21         7.9712    0.8337   -7.7909 H         1 <0>         0.0833
     50 H22         9.3094    1.1890   -6.6723 H         1 <0>         0.0938
     51 H23         9.8849   -1.2561   -6.6534 H         1 <0>         0.0932
     52 H24         9.7394    0.0201   -9.4312 H         1 <0>         0.0838
     53 H25        11.0294    0.2927   -8.2311 H         1 <0>         0.1278
     54 H26        11.6725   -3.6923  -10.4461 H         1 <0>         0.1356
     55 H27        10.2860   -5.6842  -10.8512 H         1 <0>         0.1336
     56 H28         8.0178   -5.8221   -9.9073 H         1 <0>         0.1333
     57 H29         7.1278   -3.9674   -8.5575 H         1 <0>         0.1342
@<TRIPOS>BOND
     1    1    2 1
     2    1   29 1
     3    1   30 1
     4    1   31 1
     5    2    3 1
     6    2    4 1
     7    2    5 1
     8    3   32 1
     9    3   33 1
    10    3   34 1
    11    4   35 1
    12    4   36 1
    13    4   37 1
    14    5    6 1
    15    6    7 2
    16    6    8 am
    17    8    9 1
    18    8   38 1
    19    9   14 1
    20    9   10 1
    21    9   39 1
    22   10   11 1
    23   10   40 1
    24   10   41 1
    25   11   12 1
    26   11   42 1
    27   11   43 1
    28   12   13 1
    29   12   15 am
    30   13   14 1
    31   13   44 1
    32   13   45 1
    33   14   46 1
    34   14   47 1
    35   15   16 2
    36   15   17 am
    37   17   18 1
    38   17   48 1
    39   18   19 1
    40   18   49 1
    41   18   50 1
    42   19   28 1
    43   19   20 1
    44   19   51 1
    45   20   21 1
    46   20   52 1
    47   20   53 1
    48   21   22 1
    49   22   27 ar
    50   22   23 ar
    51   23   24 ar
    52   23   54 1
    53   24   25 ar
    54   24   55 1
    55   25   26 ar
    56   25   56 1
    57   26   27 ar
    58   26   57 1
    59   27   28 1
@<TRIPOS>MOLECULE
ZINC04593808
   49    51     0     0     0
SMALL
USER_CHARGES
N-[2-(5-methoxy-2-methyl-1H-indol-3-yl)ethyl]-2-methyl-5-nitro-benzenesulfonamide
@<TRIPOS>ATOM
      1 C1         -1.1524   -0.8914    4.8325 C.3       1 <0>        -0.1556
      2 C2         -2.2020    0.1898    4.8493 C.ar      1 <0>         0.0694
      3 C3         -3.4900   -0.1033    5.2578 C.ar      1 <0>        -0.1383
      4 C4         -4.4525    0.8885    5.2736 C.ar      1 <0>         0.0010
      5 C5         -4.1274    2.1737    4.8810 C.ar      1 <0>        -0.0710
      6 C6         -2.8389    2.4675    4.4764 C.ar      1 <0>         0.0491
      7 C7         -1.8773    1.4744    4.4560 C.ar      1 <0>        -0.6871
      8 S1         -0.2359    1.8479    3.9353 S.o2      1 <0>         2.6978
      9 O1          0.6351    1.3096    4.9206 O.2       1 <0>        -0.9433
     10 O2         -0.2259    3.2236    3.5795 O.2       1 <0>        -0.9415
     11 N1          0.0416    0.9967    2.5423 N.pl3     1 <0>        -1.1139
     12 C8         -0.7416    1.2863    1.3385 C.3       1 <0>         0.1167
     13 C9         -0.0528    0.6671    0.1207 C.3       1 <0>        -0.0452
     14 C10        -0.8584    0.9650   -1.1175 C.2       1 <0>        -0.1826
     15 C11        -1.8420    0.2094   -1.6309 C.2       1 <0>         0.1003
     16 N2         -2.3446    0.8002   -2.7578 N.pl3     1 <0>        -0.5918
     17 H1         -3.0641    0.4424   -3.3012 H         1 <0>         0.4152
     18 C12        -1.6718    1.9775   -3.0092 C.ar      1 <0>         0.0659
     19 C13        -0.7121    2.1310   -1.9924 C.ar      1 <0>        -0.0572
     20 C14         0.1276    3.2465   -1.9879 C.ar      1 <0>        -0.1138
     21 C15         0.0088    4.1938   -2.9854 C.ar      1 <0>         0.1049
     22 C16        -0.9421    4.0390   -3.9905 C.ar      1 <0>        -0.1776
     23 C17        -1.7753    2.9424   -4.0051 C.ar      1 <0>        -0.0889
     24 O3          0.8237    5.2825   -2.9860 O.3       1 <0>        -0.3177
     25 C18         0.6480    6.2238   -4.0467 C.3       1 <0>         0.0279
     26 C19        -2.3238   -1.0950   -1.0499 C.3       1 <0>        -0.0987
     27 N3         -5.1581    3.2359    4.8984 N.pl3     1 <0>         0.0266
     28 O4         -6.2926    2.9777    5.2586 O.2       1 <0>        -0.1529
     29 O5         -4.8717    4.3681    4.5525 O.3       1 <0>        -0.1486
     30 H2         -0.5799   -0.8564    5.7594 H         1 <0>         0.1129
     31 H3         -1.6347   -1.8645    4.7399 H         1 <0>         0.0950
     32 H4         -0.4835   -0.7353    3.9861 H         1 <0>         0.0790
     33 H5         -3.7438   -1.1071    5.5648 H         1 <0>         0.1591
     34 H6         -5.4585    0.6596    5.5930 H         1 <0>         0.1633
     35 H7         -2.5840    3.4723    4.1732 H         1 <0>         0.1739
     36 H8          0.7226    0.3062    2.5233 H         1 <0>         0.4221
     37 H9         -0.8159    2.3654    1.2043 H         1 <0>         0.0864
     38 H10        -1.7407    0.8637    1.4447 H         1 <0>         0.0650
     39 H11         0.0215   -0.4120    0.2549 H         1 <0>         0.0787
     40 H12         0.9463    1.0897    0.0145 H         1 <0>         0.0832
     41 H13         0.8659    3.3675   -1.2090 H         1 <0>         0.1318
     42 H14        -1.0269    4.7856   -4.7662 H         1 <0>         0.1324
     43 H15        -2.5094    2.8324   -4.7895 H         1 <0>         0.1239
     44 H16        -0.3678    6.6182   -4.0180 H         1 <0>         0.0545
     45 H17         1.3588    7.0416   -3.9282 H         1 <0>         0.0999
     46 H18         0.8189    5.7296   -5.0031 H         1 <0>         0.0539
     47 H19        -3.1277   -0.9015   -0.3397 H         1 <0>         0.0781
     48 H20        -2.6930   -1.7353   -1.8510 H         1 <0>         0.0708
     49 H21        -1.4991   -1.5916   -0.5386 H         1 <0>         0.0873
@<TRIPOS>BOND
     1    1    2 1
     2    1   30 1
     3    1   31 1
     4    1   32 1
     5    2    7 ar
     6    2    3 ar
     7    3    4 ar
     8    3   33 1
     9    4    5 ar
    10    4   34 1
    11    5    6 ar
    12    5   27 1
    13    6    7 ar
    14    6   35 1
    15    7    8 1
    16    8    9 2
    17    8   10 2
    18    8   11 1
    19   11   12 1
    20   11   36 1
    21   12   13 1
    22   12   37 1
    23   12   38 1
    24   13   14 1
    25   13   39 1
    26   13   40 1
    27   14   19 1
    28   14   15 2
    29   15   16 1
    30   15   26 1
    31   16   17 1
    32   16   18 1
    33   18   23 ar
    34   18   19 ar
    35   19   20 ar
    36   20   21 ar
    37   20   41 1
    38   21   22 ar
    39   21   24 1
    40   22   23 ar
    41   22   42 1
    42   23   43 1
    43   24   25 1
    44   25   44 1
    45   25   45 1
    46   25   46 1
    47   26   47 1
    48   26   48 1
    49   26   49 1
    50   27   28 2
    51   27   29 1
@<TRIPOS>MOLECULE
ZINC15583101
   51    53     0     0     0
SMALL
USER_CHARGES
(2S)-2-[[(2S)-5-ethoxy-2-methyl-2,3-dihydrobenzofuran-6-yl]amino]-N-(3-nitrophenyl)propanamide
@<TRIPOS>ATOM
      1 C1         -6.3352    6.5864    0.0539 C.3       1 <0>        -0.1528
      2 C2         -5.3400    7.5667   -0.5702 C.3       1 <0>         0.0592
      3 O1         -4.0159    7.0431   -0.4491 O.3       1 <0>        -0.3168
      4 C3         -3.0041    7.7979   -0.9577 C.ar      1 <0>         0.0377
      5 C4         -3.2772    9.0176   -1.5559 C.ar      1 <0>        -0.1106
      6 C5         -2.2498    9.7772   -2.0741 C.ar      1 <0>        -0.1923
      7 C6         -0.9337    9.3382   -2.0082 C.ar      1 <0>         0.1233
      8 C7         -0.6591    8.1159   -1.4014 C.ar      1 <0>        -0.1900
      9 C8         -1.6873    7.3512   -0.8757 C.ar      1 <0>         0.2308
     10 N1         -1.4031    6.1241   -0.2659 N.pl3     1 <0>        -0.7221
     11 C9         -0.0194    5.6498   -0.1841 C.3       1 <0>         0.1373
     12 H1          0.5227    5.9547   -1.0792 H         1 <0>         0.1135
     13 C10         0.6543    6.2526    1.0503 C.3       1 <0>        -0.1713
     14 C11        -0.0091    4.1465   -0.0782 C.2       1 <0>         0.5159
     15 O2         -1.0547    3.5318   -0.0717 O.2       1 <0>        -0.5037
     16 N2          1.1620    3.4851    0.0092 N.am      1 <0>        -0.6686
     17 C12         1.1779    2.0860   -0.0036 C.ar      1 <0>         0.1533
     18 C13         0.2368    1.3861   -0.7475 C.ar      1 <0>        -0.0711
     19 C14         0.2555    0.0054   -0.7585 C.ar      1 <0>        -0.0938
     20 C15         1.2104   -0.6805   -0.0301 C.ar      1 <0>        -0.0681
     21 C16         2.1486    0.0133    0.7114 C.ar      1 <0>        -0.0230
     22 C17         2.1350    1.3944    0.7269 C.ar      1 <0>        -0.0856
     23 N3          3.1691   -0.7248    1.4891 N.pl3     1 <0>         0.0269
     24 O3          3.1820   -1.9426    1.4756 O.2       1 <0>        -0.1520
     25 O4          3.9960   -0.1142    2.1426 O.3       1 <0>        -0.1569
     26 O5         -0.0862   10.2314   -2.5914 O.3       1 <0>        -0.3018
     27 C18        -0.7375   11.5093   -2.6877 C.3       1 <0>         0.0780
     28 H2         -0.5400   12.1111   -1.8006 H         1 <0>         0.0868
     29 C19        -2.2340   11.1259   -2.7678 C.3       1 <0>        -0.1004
     30 C20        -0.2985   12.2474   -3.9539 C.3       1 <0>        -0.1508
     31 H3         -6.2745    5.6286   -0.4630 H         1 <0>         0.0662
     32 H4         -6.0948    6.4463    1.1078 H         1 <0>         0.0658
     33 H5         -7.3451    6.9857   -0.0385 H         1 <0>         0.0782
     34 H6         -5.4007    8.5244   -0.0533 H         1 <0>         0.0595
     35 H7         -5.5803    7.7068   -1.6241 H         1 <0>         0.0595
     36 H8         -4.2955    9.3716   -1.6195 H         1 <0>         0.1309
     37 H9          0.3596    7.7626   -1.3400 H         1 <0>         0.1339
     38 H10        -2.1223    5.5876    0.1027 H         1 <0>         0.4184
     39 H11         0.1121    5.9477    1.9454 H         1 <0>         0.0696
     40 H12         1.6837    5.8997    1.1111 H         1 <0>         0.0712
     41 H13         0.6468    7.3399    0.9737 H         1 <0>         0.0813
     42 H14         1.9937    3.9790    0.0811 H         1 <0>         0.4193
     43 H15        -0.5062    1.9212   -1.3204 H         1 <0>         0.1538
     44 H16        -0.4761   -0.5395   -1.3368 H         1 <0>         0.1543
     45 H17         1.2234   -1.7604   -0.0409 H         1 <0>         0.1572
     46 H18         2.8680    1.9358    1.3066 H         1 <0>         0.1578
     47 H19        -2.8502   11.8472   -2.2310 H         1 <0>         0.0879
     48 H20        -2.5579   11.0351   -3.8046 H         1 <0>         0.0887
     49 H21        -0.5356   11.6415   -4.8284 H         1 <0>         0.0669
     50 H22        -0.8232   13.2006   -4.0193 H         1 <0>         0.0793
     51 H23         0.7761   12.4261   -3.9162 H         1 <0>         0.0693
@<TRIPOS>BOND
     1    1    2 1
     2    1   31 1
     3    1   32 1
     4    1   33 1
     5    2    3 1
     6    2   34 1
     7    2   35 1
     8    3    4 1
     9    4    9 ar
    10    4    5 ar
    11    5    6 ar
    12    5   36 1
    13    6   29 1
    14    6    7 ar
    15    7    8 ar
    16    7   26 1
    17    8    9 ar
    18    8   37 1
    19    9   10 1
    20   10   11 1
    21   10   38 1
    22   11   12 1
    23   11   13 1
    24   11   14 1
    25   13   39 1
    26   13   40 1
    27   13   41 1
    28   14   15 2
    29   14   16 am
    30   16   17 1
    31   16   42 1
    32   17   22 ar
    33   17   18 ar
    34   18   19 ar
    35   18   43 1
    36   19   20 ar
    37   19   44 1
    38   20   21 ar
    39   20   45 1
    40   21   22 ar
    41   21   23 1
    42   22   46 1
    43   23   24 2
    44   23   25 1
    45   26   27 1
    46   27   28 1
    47   27   29 1
    48   27   30 1
    49   29   47 1
    50   29   48 1
    51   30   49 1
    52   30   50 1
    53   30   51 1
@<TRIPOS>MOLECULE
ZINC33276182
   54    56     0     0     0
SMALL
USER_CHARGES
(2S)-N-(2,3-dimethylphenyl)-2-[[2-methyl-5-(5-methyl-1,2,4-oxadiazol-3-yl)phenyl]sulfonylamino]propanamide
@<TRIPOS>ATOM
      1 C1         -6.4781    7.6975   -4.2825 C.3       1 <0>        -0.1157
      2 C2         -5.7813    6.3628   -4.3461 C.ar      1 <0>        -0.0660
      3 C3         -6.3600    5.3137   -5.0370 C.ar      1 <0>        -0.1363
      4 C4         -5.7241    4.0875   -5.0973 C.ar      1 <0>        -0.0996
      5 C5         -4.5079    3.9067   -4.4677 C.ar      1 <0>        -0.1432
      6 C6         -3.9243    4.9580   -3.7734 C.ar      1 <0>         0.1546
      7 C7         -4.5686    6.1868   -3.7094 C.ar      1 <0>        -0.1214
      8 C8         -3.9418    7.3286   -2.9516 C.3       1 <0>        -0.1107
      9 N1         -2.6924    4.7782   -3.1346 N.am      1 <0>        -0.6749
     10 C9         -2.2572    3.5353   -2.8476 C.2       1 <0>         0.5146
     11 O1         -2.9746    2.5791   -3.0528 O.2       1 <0>        -0.5100
     12 C10        -0.8792    3.3338   -2.2718 C.3       1 <0>         0.1411
     13 H1         -0.8057    3.8368   -1.2963 H         1 <0>         0.1048
     14 C11         0.1661    3.8750   -3.2491 C.3       1 <0>        -0.1680
     15 N2         -0.6468    1.9044   -2.0503 N.pl3     1 <0>        -1.1076
     16 S1          0.2515    1.4029   -0.7527 S.o2      1 <0>         2.6973
     17 O2          0.2461   -0.0179   -0.7797 O.2       1 <0>        -0.9457
     18 O3          1.4534    2.1606   -0.7735 O.2       1 <0>        -0.9484
     19 C12        -0.6209    1.8822    0.7013 C.ar      1 <0>        -0.6960
     20 C13        -0.0803    2.8284    1.5486 C.ar      1 <0>         0.0163
     21 C14        -0.7733    3.2099    2.6953 C.ar      1 <0>        -0.0502
     22 C15        -2.0043    2.6253    2.9861 C.ar      1 <0>        -0.0147
     23 C16        -2.5331    1.6766    2.1348 C.ar      1 <0>        -0.1426
     24 C17        -1.8432    1.3055    0.9945 C.ar      1 <0>         0.0457
     25 C18        -2.4257    0.2689    0.0686 C.3       1 <0>        -0.1728
     26 C19        -0.1996    4.2309    3.6071 C.2       1 <0>         0.2118
     27 N3         -0.7568    4.6896    4.7506 N.2       1 <0>        -0.4796
     28 C20         0.0880    5.5711    5.2246 C.2       1 <0>         0.1887
     29 O4          1.1180    5.6258    4.3745 O.3       1 <0>         0.0848
     30 N4          0.9418    4.8511    3.4580 N.2       1 <0>        -0.3723
     31 C21        -0.0710    6.3724    6.4910 C.3       1 <0>        -0.0681
     32 H2         -7.4224    7.6452   -4.8442 H         1 <0>         0.0667
     33 H3         -5.8313    8.4702   -4.7237 H         1 <0>         0.0707
     34 H4         -6.6892    7.9513   -3.2332 H         1 <0>         0.0700
     35 H5         -7.3108    5.4525   -5.5300 H         1 <0>         0.1220
     36 H6         -6.1786    3.2702   -5.6376 H         1 <0>         0.1247
     37 H7         -4.0114    2.9488   -4.5159 H         1 <0>         0.1534
     38 H8         -2.9867    6.9994   -2.5164 H         1 <0>         0.0556
     39 H9         -4.6195    7.6507   -2.1473 H         1 <0>         0.0742
     40 H10        -3.7617    8.1691   -3.6379 H         1 <0>         0.0744
     41 H11        -2.0792    5.6512   -2.8667 H         1 <0>         0.4347
     42 H12         1.1719    3.7279   -2.8287 H         1 <0>         0.0906
     43 H13        -0.0084    4.9483   -3.4154 H         1 <0>         0.0732
     44 H14         0.0863    3.3380   -4.2058 H         1 <0>         0.0752
     45 H15        -1.1986    1.1593   -2.6422 H         1 <0>         0.4537
     46 H16         0.8765    3.2748    1.3211 H         1 <0>         0.1521
     47 H17        -2.5435    2.9140    3.8762 H         1 <0>         0.1448
     48 H18        -3.4869    1.2226    2.3594 H         1 <0>         0.1429
     49 H19        -3.3942   -0.0722    0.4630 H         1 <0>         0.0872
     50 H20        -1.7376   -0.5862   -0.0037 H         1 <0>         0.1118
     51 H21        -2.5705    0.7085   -0.9293 H         1 <0>         0.0896
     52 H22         0.8026    7.0279    6.6223 H         1 <0>         0.1016
     53 H23        -0.1492    5.6894    7.3497 H         1 <0>         0.1077
     54 H24        -0.9824    6.9848    6.4254 H         1 <0>         0.1074
@<TRIPOS>BOND
     1    1    2 1
     2    1   32 1
     3    1   33 1
     4    1   34 1
     5    2    7 ar
     6    2    3 ar
     7    3    4 ar
     8    3   35 1
     9    4    5 ar
    10    4   36 1
    11    5    6 ar
    12    5   37 1
    13    6    7 ar
    14    6    9 1
    15    7    8 1
    16    8   38 1
    17    8   39 1
    18    8   40 1
    19    9   10 am
    20    9   41 1
    21   10   11 2
    22   10   12 1
    23   12   13 1
    24   12   14 1
    25   12   15 1
    26   14   42 1
    27   14   43 1
    28   14   44 1
    29   15   16 1
    30   15   45 1
    31   16   17 2
    32   16   18 2
    33   16   19 1
    34   19   24 ar
    35   19   20 ar
    36   20   21 ar
    37   20   46 1
    38   21   22 ar
    39   21   26 1
    40   22   23 ar
    41   22   47 1
    42   23   24 ar
    43   23   48 1
    44   24   25 1
    45   25   49 1
    46   25   50 1
    47   25   51 1
    48   26   30 2
    49   26   27 1
    50   27   28 2
    51   28   29 1
    52   28   31 1
    53   29   30 1
    54   31   52 1
    55   31   53 1
    56   31   54 1
@<TRIPOS>MOLECULE
ZINC45523283
   63    64     0     0     0
SMALL
USER_CHARGES

@<TRIPOS>ATOM
      1 C1          4.0146   -8.3579   -0.2827 C.3       1 <0>        -0.1456
      2 C2          2.9612   -7.2486   -0.3060 C.3       1 <0>         0.0902
      3 H1          3.0326   -6.6597    0.6085 H         1 <0>         0.0683
      4 C3          1.5659   -7.8705   -0.4059 C.3       1 <0>         0.0249
      5 N1          0.5636   -6.7996   -0.5056 N.3       1 <0>        -0.5336
      6 C4          0.8225   -5.9514   -1.6781 C.3       1 <0>         0.0183
      7 C5          2.2254   -5.3486   -1.5654 C.3       1 <0>         0.0903
      8 H2          2.2750   -4.7038   -0.6880 H         1 <0>         0.0686
      9 O1          3.1836   -6.4025   -1.4374 O.3       1 <0>        -0.3793
     10 C6          2.5313   -4.5283   -2.8202 C.3       1 <0>        -0.1458
     11 C7         -0.7964   -7.3535   -0.5466 C.3       1 <0>         0.0450
     12 C8         -1.8133   -6.2200   -0.3989 C.3       1 <0>         0.1402
     13 N2         -3.1696   -6.7723   -0.4397 N.am      1 <0>        -0.7471
     14 C9         -4.2343   -5.9536   -0.3274 C.2       1 <0>         0.7111
     15 O2         -4.0702   -4.7705   -0.1002 O.2       1 <0>        -0.5837
     16 N3         -5.4810   -6.4464   -0.4672 N.am      1 <0>        -0.6310
     17 C10        -6.6450   -5.5499   -0.4634 C.3       1 <0>         0.1345
     18 C11        -7.4725   -5.8109   -1.7259 C.3       1 <0>        -0.1438
     19 C12        -7.8249   -7.2983   -1.8016 C.3       1 <0>         0.1646
     20 C13        -6.5398   -8.1250   -1.8868 C.3       1 <0>        -0.1481
     21 C14        -5.7013   -7.8896   -0.6322 C.3       1 <0>         0.1163
     22 N4         -8.6442   -7.5459   -2.9905 N.am      1 <0>        -0.7085
     23 C15        -9.4787   -8.6037   -3.0255 C.2       1 <0>         0.6508
     24 O3         -9.5514   -9.3520   -2.0710 O.2       1 <0>        -0.5640
     25 O4        -10.2317   -8.8312   -4.1182 O.3       1 <0>        -0.3594
     26 C16       -11.0937   -9.9705   -4.0863 C.3       1 <0>         0.1349
     27 C17       -12.0827   -9.8295   -2.9275 C.3       1 <0>        -0.1862
     28 C18       -11.8635  -10.0647   -5.4052 C.3       1 <0>        -0.1414
     29 C19       -10.2577  -11.2372   -3.8921 C.3       1 <0>        -0.1858
     30 H3          5.0079   -7.9144   -0.2131 H         1 <0>         0.0681
     31 H4          3.8436   -9.0033    0.5790 H         1 <0>         0.0733
     32 H5          3.9428   -8.9465   -1.1973 H         1 <0>         0.0626
     33 H6          1.5120   -8.5031   -1.2919 H         1 <0>         0.0449
     34 H7          1.3703   -8.4705    0.4829 H         1 <0>         0.0878
     35 H8          0.7567   -6.5533   -2.5845 H         1 <0>         0.0451
     36 H9          0.0844   -5.1504   -1.7180 H         1 <0>         0.0904
     37 H10         1.7987   -3.7271   -2.9180 H         1 <0>         0.0739
     38 H11         3.5301   -4.0995   -2.7393 H         1 <0>         0.0680
     39 H12         2.4830   -5.1739   -3.6970 H         1 <0>         0.0624
     40 H13        -0.9535   -7.8609   -1.4984 H         1 <0>         0.0420
     41 H14        -0.9238   -8.0646    0.2697 H         1 <0>         0.0837
     42 H15        -1.6562   -5.7126    0.5530 H         1 <0>         0.0785
     43 H16        -1.6859   -5.5089   -1.2151 H         1 <0>         0.0665
     44 H17        -3.3013   -7.7273   -0.5475 H         1 <0>         0.3947
     45 H18        -7.2538   -5.7453    0.4194 H         1 <0>         0.0723
     46 H19        -6.3079   -4.5134   -0.4552 H         1 <0>         0.1025
     47 H20        -8.3886   -5.2214   -1.6888 H         1 <0>         0.0878
     48 H21        -6.8933   -5.5291   -2.6052 H         1 <0>         0.0763
     49 H22        -8.3827   -7.5851   -0.9102 H         1 <0>         0.0963
     50 H23        -6.7921   -9.1826   -1.9642 H         1 <0>         0.0844
     51 H24        -5.9694   -7.8214   -2.7646 H         1 <0>         0.0716
     52 H25        -4.7418   -8.3963   -0.7355 H         1 <0>         0.0798
     53 H26        -6.2314   -8.2800    0.2365 H         1 <0>         0.0769
     54 H27        -8.5862   -6.9485   -3.7525 H         1 <0>         0.4065
     55 H28       -12.6782   -8.9271   -3.0658 H         1 <0>         0.0593
     56 H29       -12.7402  -10.6985   -2.9031 H         1 <0>         0.0706
     57 H30       -11.5343   -9.7624   -1.9879 H         1 <0>         0.0875
     58 H31       -11.1589  -10.1652   -6.2307 H         1 <0>         0.0665
     59 H32       -12.5209  -10.9337   -5.3808 H         1 <0>         0.0813
     60 H33       -12.4590   -9.1623   -5.5435 H         1 <0>         0.0669
     61 H34        -9.7093  -11.1700   -2.9525 H         1 <0>         0.0873
     62 H35       -10.9152  -12.1062   -3.8677 H         1 <0>         0.0707
     63 H36        -9.5531  -11.3376   -4.7176 H         1 <0>         0.0587
@<TRIPOS>BOND
     1    1    2 1
     2    1   30 1
     3    1   31 1
     4    1   32 1
     5    2    3 1
     6    2    9 1
     7    2    4 1
     8    4    5 1
     9    4   33 1
    10    4   34 1
    11    5    6 1
    12    5   11 1
    13    6    7 1
    14    6   35 1
    15    6   36 1
    16    7    8 1
    17    7    9 1
    18    7   10 1
    19   10   37 1
    20   10   38 1
    21   10   39 1
    22   11   12 1
    23   11   40 1
    24   11   41 1
    25   12   13 1
    26   12   42 1
    27   12   43 1
    28   13   14 am
    29   13   44 1
    30   14   15 2
    31   14   16 am
    32   16   21 1
    33   16   17 1
    34   17   18 1
    35   17   45 1
    36   17   46 1
    37   18   19 1
    38   18   47 1
    39   18   48 1
    40   19   20 1
    41   19   22 1
    42   19   49 1
    43   20   21 1
    44   20   50 1
    45   20   51 1
    46   21   52 1
    47   21   53 1
    48   22   23 am
    49   22   54 1
    50   23   24 2
    51   23   25 1
    52   25   26 1
    53   26   27 1
    54   26   28 1
    55   26   29 1
    56   27   55 1
    57   27   56 1
    58   27   57 1
    59   28   58 1
    60   28   59 1
    61   28   60 1
    62   29   61 1
    63   29   62 1
    64   29   63 1
@<TRIPOS>MOLECULE
ZINC59844084
   48    50     0     0     0
SMALL
USER_CHARGES

@<TRIPOS>ATOM
      1 C1         -0.0473    1.4950   -0.5072 C.3       1 <0>        -0.1185
      2 C2         -0.0241   -0.0113   -0.4681 C.ar      1 <0>        -0.0639
      3 C3         -0.0026   -0.7330   -1.6470 C.ar      1 <0>        -0.1295
      4 C4          0.0186   -2.1147   -1.6112 C.ar      1 <0>        -0.0509
      5 C5          0.0188   -2.7747   -0.3966 C.ar      1 <0>        -0.0959
      6 C6         -0.0018   -2.0530    0.7823 C.ar      1 <0>        -0.0510
      7 C7         -0.0187   -0.6712    0.7465 C.ar      1 <0>        -0.1296
      8 C8         -0.0020   -2.7726    2.1064 C.3       1 <0>        -0.1239
      9 C9          0.0410   -4.2811   -0.3575 C.3       1 <0>        -0.0630
     10 S1          1.7599   -4.8599   -0.3283 S.3       1 <0>         0.0599
     11 C10         1.6260   -6.5140   -0.2868 C.2       1 <0>         0.0980
     12 N1          2.6585   -7.4089   -0.2496 N.pl3     1 <0>        -0.5665
     13 H1          3.6068   -7.2046   -0.2428 H         1 <0>         0.4357
     14 C11         2.0832   -8.6548   -0.2238 C.2       1 <0>         0.4183
     15 N2          0.7459   -8.4804   -0.2457 N.2       1 <0>        -0.2673
     16 N3          0.4765   -7.2232   -0.2776 N.2       1 <0>        -0.2690
     17 N4          2.7286   -9.8241   -0.1847 N.pl3     1 <0>        -0.4594
     18 N5          2.0620  -10.9283   -0.1638 N.2       1 <0>        -0.1787
     19 C12         2.6969  -12.0788   -0.1253 C.2       1 <0>        -0.0063
     20 C13         1.9401  -13.3325   -0.1016 C.ar      1 <0>         0.0472
     21 C14         0.5403  -13.3108    0.0064 C.ar      1 <0>        -0.0947
     22 C15        -0.1623  -14.4947    0.0279 C.ar      1 <0>        -0.0573
     23 C16         0.5078  -15.7051   -0.0562 C.ar      1 <0>        -0.1157
     24 C17         1.8889  -15.7369   -0.1630 C.ar      1 <0>        -0.0475
     25 C18         2.6090  -14.5632   -0.1925 C.ar      1 <0>         0.0013
     26 N6          4.0838  -14.5997   -0.3133 N.pl3     1 <0>        -0.0069
     27 O1          4.6992  -15.7450   -0.5228 O.2       1 <0>        -0.1552
     28 O2          4.7805  -13.4867   -0.2114 O.3       1 <0>        -0.1924
     29 C19         0.0411   -2.9015   -2.8963 C.3       1 <0>        -0.1240
     30 H2          0.9747    1.8741   -0.5125 H         1 <0>         0.0731
     31 H3         -0.5628    1.8273   -1.4083 H         1 <0>         0.0682
     32 H4         -0.5705    1.8732    0.3711 H         1 <0>         0.0681
     33 H5         -0.0028   -0.2173   -2.5959 H         1 <0>         0.1250
     34 H6         -0.0310   -0.1073    1.6675 H         1 <0>         0.1250
     35 H7          1.0254   -2.9307    2.4342 H         1 <0>         0.0775
     36 H8         -0.5311   -2.1718    2.8462 H         1 <0>         0.0700
     37 H9         -0.5006   -3.7356    1.9965 H         1 <0>         0.0703
     38 H10        -0.4748   -4.6290    0.5374 H         1 <0>         0.1093
     39 H11        -0.4600   -4.6748   -1.2419 H         1 <0>         0.1094
     40 H12         3.6983   -9.8427   -0.1720 H         1 <0>         0.3964
     41 H13         3.7766  -12.0995   -0.1112 H         1 <0>         0.1752
     42 H14         0.0165  -12.3687    0.0727 H         1 <0>         0.1603
     43 H15        -1.2390  -14.4802    0.1109 H         1 <0>         0.1495
     44 H16        -0.0503  -16.6296   -0.0379 H         1 <0>         0.1520
     45 H17         2.4021  -16.6850   -0.2276 H         1 <0>         0.1594
     46 H18         1.0740   -3.0752   -3.1980 H         1 <0>         0.0776
     47 H19        -0.4591   -3.8581   -2.7454 H         1 <0>         0.0703
     48 H20        -0.4754   -2.3402   -3.6750 H         1 <0>         0.0700
@<TRIPOS>BOND
     1    1    2 1
     2    1   30 1
     3    1   31 1
     4    1   32 1
     5    2    7 ar
     6    2    3 ar
     7    3    4 ar
     8    3   33 1
     9    4    5 ar
    10    4   29 1
    11    5    6 ar
    12    5    9 1
    13    6    7 ar
    14    6    8 1
    15    7   34 1
    16    8   35 1
    17    8   36 1
    18    8   37 1
    19    9   10 1
    20    9   38 1
    21    9   39 1
    22   10   11 1
    23   11   16 2
    24   11   12 1
    25   12   13 1
    26   12   14 1
    27   14   15 2
    28   14   17 1
    29   15   16 1
    30   17   18 1
    31   17   40 1
    32   18   19 2
    33   19   20 1
    34   19   41 1
    35   20   25 ar
    36   20   21 ar
    37   21   22 ar
    38   21   42 1
    39   22   23 ar
    40   22   43 1
    41   23   24 ar
    42   23   44 1
    43   24   25 ar
    44   24   45 1
    45   25   26 1
    46   26   27 2
    47   26   28 1
    48   29   46 1
    49   29   47 1
    50   29   48 1
@<TRIPOS>MOLECULE
ZINC08868462
   51    53     0     0     0
SMALL
USER_CHARGES
3-[[3-(3,4-dimethoxyphenyl)-2-oxo-oxazolidin-5-yl]methyl]-1-(o-tolyl)urea
@<TRIPOS>ATOM
      1 C1         -3.4377    3.4017   -1.0277 C.3       1 <0>        -0.1153
      2 C2         -2.2897    4.1186   -0.3650 C.ar      1 <0>        -0.1197
      3 C3         -2.3099    5.4947   -0.2464 C.ar      1 <0>        -0.0995
      4 C4         -1.2542    6.1537    0.3560 C.ar      1 <0>        -0.1358
      5 C5         -0.1777    5.4374    0.8468 C.ar      1 <0>        -0.1039
      6 C6         -0.1542    4.0611    0.7365 C.ar      1 <0>        -0.1276
      7 C7         -1.2132    3.3962    0.1319 C.ar      1 <0>         0.1637
      8 N1         -1.1924    2.0015    0.0186 N.am      1 <0>        -0.6795
      9 C8         -0.0163    1.3433    0.0129 C.2       1 <0>         0.7066
     10 O1          1.0284    1.9652    0.0005 O.2       1 <0>        -0.5666
     11 N2          0.0017   -0.0044    0.0154 N.am      1 <0>        -0.7397
     12 C9          1.2800   -0.7199    0.0032 C.3       1 <0>         0.1319
     13 C10         1.0206   -2.2277    0.0090 C.3       1 <0>         0.0572
     14 H1          0.3776   -2.5006    0.8457 H         1 <0>         0.1325
     15 C11         2.3499   -3.0043    0.0736 C.3       1 <0>         0.0691
     16 N3          2.3599   -3.7860   -1.1724 N.am      1 <0>        -0.5649
     17 C12         1.2388   -3.5237   -1.8579 C.2       1 <0>         0.6456
     18 O2          0.9827   -4.0340   -2.9306 O.2       1 <0>        -0.4985
     19 O3          0.4238   -2.6482   -1.2520 O.3       1 <0>        -0.3116
     20 C13         3.3761   -4.6624   -1.5765 C.ar      1 <0>         0.1817
     21 C14         4.4925   -4.8486   -0.7725 C.ar      1 <0>        -0.1500
     22 C15         5.4955   -5.7124   -1.1693 C.ar      1 <0>        -0.1437
     23 C16         5.3890   -6.3946   -2.3706 C.ar      1 <0>         0.0815
     24 C17         4.2713   -6.2101   -3.1786 C.ar      1 <0>         0.1317
     25 C18         3.2636   -5.3485   -2.7778 C.ar      1 <0>        -0.2086
     26 O4          4.1659   -6.8792   -4.3578 O.3       1 <0>        -0.3013
     27 C19         2.9913   -6.6412   -5.1360 C.3       1 <0>         0.0246
     28 O5          6.3772   -7.2452   -2.7599 O.3       1 <0>        -0.3050
     29 C20         7.4952   -7.3864   -1.8811 C.3       1 <0>         0.0252
     30 H2         -4.1882    3.1477   -0.2792 H         1 <0>         0.0709
     31 H3         -3.8828    4.0492   -1.7833 H         1 <0>         0.0727
     32 H4         -3.0725    2.4898   -1.5001 H         1 <0>         0.0614
     33 H5         -3.1489    6.0569   -0.6291 H         1 <0>         0.1257
     34 H6         -1.2700    7.2300    0.4432 H         1 <0>         0.1229
     35 H7          0.6452    5.9550    1.3172 H         1 <0>         0.1249
     36 H8          0.6865    3.5023    1.1203 H         1 <0>         0.1465
     37 H9         -2.0245    1.5085   -0.0559 H         1 <0>         0.4080
     38 H10        -0.8318   -0.5005    0.0254 H         1 <0>         0.4035
     39 H11         1.8384   -0.4507   -0.8934 H         1 <0>         0.0837
     40 H12         1.8575   -0.4472    0.8864 H         1 <0>         0.1005
     41 H13         3.1946   -2.3159    0.1005 H         1 <0>         0.1091
     42 H14         2.3666   -3.6632    0.9417 H         1 <0>         0.1114
     43 H15         4.5770   -4.3179    0.1644 H         1 <0>         0.1325
     44 H16         6.3633   -5.8556   -0.5427 H         1 <0>         0.1434
     45 H17         2.3932   -5.2074   -3.4015 H         1 <0>         0.1716
     46 H18         3.0336   -7.2354   -6.0488 H         1 <0>         0.1032
     47 H19         2.1102   -6.9231   -4.5595 H         1 <0>         0.0580
     48 H20         2.9340   -5.5836   -5.3933 H         1 <0>         0.0581
     49 H21         8.2073   -8.0916   -2.3097 H         1 <0>         0.1015
     50 H22         7.9777   -6.4181   -1.7485 H         1 <0>         0.0552
     51 H23         7.1532   -7.7573   -0.9149 H         1 <0>         0.0551
@<TRIPOS>BOND
     1    1    2 1
     2    1   30 1
     3    1   31 1
     4    1   32 1
     5    2    7 ar
     6    2    3 ar
     7    3    4 ar
     8    3   33 1
     9    4    5 ar
    10    4   34 1
    11    5    6 ar
    12    5   35 1
    13    6    7 ar
    14    6   36 1
    15    7    8 1
    16    8    9 am
    17    8   37 1
    18    9   10 2
    19    9   11 am
    20   11   12 1
    21   11   38 1
    22   12   13 1
    23   12   39 1
    24   12   40 1
    25   13   14 1
    26   13   19 1
    27   13   15 1
    28   15   16 1
    29   15   41 1
    30   15   42 1
    31   16   17 am
    32   16   20 1
    33   17   18 2
    34   17   19 1
    35   20   25 ar
    36   20   21 ar
    37   21   22 ar
    38   21   43 1
    39   22   23 ar
    40   22   44 1
    41   23   24 ar
    42   23   28 1
    43   24   25 ar
    44   24   26 1
    45   25   45 1
    46   26   27 1
    47   27   46 1
    48   27   47 1
    49   27   48 1
    50   28   29 1
    51   29   49 1
    52   29   50 1
    53   29   51 1
@<TRIPOS>MOLECULE
ZINC29680281
   50    52     0     0     0
SMALL
USER_CHARGES
(2R)-N-(2-methyl-4-nitro-phenyl)-2-[3-(2-oxopyrrolidin-1-yl)anilino]propanamide
@<TRIPOS>ATOM
      1 C1          0.1153   -2.5306   -1.0419 C.3       1 <0>        -0.1185
      2 C2         -1.0675   -1.8842   -0.3682 C.ar      1 <0>        -0.1186
      3 C3         -2.2596   -2.5727   -0.2539 C.ar      1 <0>        -0.0317
      4 C4         -3.3469   -1.9784    0.3595 C.ar      1 <0>        -0.0639
      5 C5         -3.2433   -0.6953    0.8652 C.ar      1 <0>        -0.0342
      6 C6         -2.0528   -0.0037    0.7588 C.ar      1 <0>        -0.1337
      7 C7         -0.9587   -0.5979    0.1432 C.ar      1 <0>         0.2100
      8 N1          0.2488    0.1004    0.0334 N.am      1 <0>        -0.6777
      9 C8          0.2511    1.4481    0.0429 C.2       1 <0>         0.5163
     10 O1         -0.7982    2.0564    0.0428 O.2       1 <0>        -0.5020
     11 C9          1.5575    2.1994    0.0474 C.3       1 <0>         0.1405
     12 H1          2.1221    1.9597    0.9605 H         1 <0>         0.1121
     13 C10         2.3584    1.8372   -1.2049 C.3       1 <0>        -0.1693
     14 N2          1.2923    3.6401    0.0577 N.pl3     1 <0>        -0.7433
     15 C11         2.2444    4.5218    0.5746 C.ar      1 <0>         0.2508
     16 C12         3.4436    4.0331    1.0793 C.ar      1 <0>        -0.2299
     17 C13         4.3855    4.9045    1.5906 C.ar      1 <0>        -0.0434
     18 C14         4.1392    6.2642    1.6016 C.ar      1 <0>        -0.2164
     19 C15         2.9431    6.7592    1.0979 C.ar      1 <0>         0.2119
     20 C16         1.9964    5.8871    0.5795 C.ar      1 <0>        -0.2310
     21 N3          2.6949    8.1361    1.1091 N.am      1 <0>        -0.5608
     22 C17         3.6699    9.1499    1.5280 C.3       1 <0>         0.0899
     23 C18         2.8461   10.4299    1.7915 C.3       1 <0>        -0.1332
     24 C19         1.6137   10.2038    0.8855 C.3       1 <0>        -0.1530
     25 C20         1.5347    8.7008    0.7322 C.2       1 <0>         0.5185
     26 O2          0.5648    8.0934    0.3303 O.2       1 <0>        -0.5066
     27 N4         -4.6246   -2.7168    0.4748 N.pl3     1 <0>         0.0312
     28 O3         -5.5833   -2.1943    1.0145 O.2       1 <0>        -0.1613
     29 O4         -4.7172   -3.8468    0.0298 O.3       1 <0>        -0.1629
     30 H2         -0.1615   -3.5404   -1.3790 H         1 <0>         0.0821
     31 H3          0.9511   -2.5979   -0.3300 H         1 <0>         0.0769
     32 H4          0.4196   -1.9253   -1.9085 H         1 <0>         0.0786
     33 H5         -2.3438   -3.5747   -0.6481 H         1 <0>         0.1575
     34 H6         -4.0945   -0.2337    1.3435 H         1 <0>         0.1568
     35 H7         -1.9727    0.9984    1.1536 H         1 <0>         0.1664
     36 H8          1.1962   -0.4506   -0.0607 H         1 <0>         0.4435
     37 H9          3.3120    2.3856   -1.2016 H         1 <0>         0.0809
     38 H10         1.7815    2.1102   -2.1008 H         1 <0>         0.0696
     39 H11         2.5576    0.7554   -1.2126 H         1 <0>         0.0690
     40 H12         0.3434    4.0275   -0.3416 H         1 <0>         0.4333
     41 H13         3.6391    2.9710    1.0721 H         1 <0>         0.1193
     42 H14         5.3166    4.5224    1.9822 H         1 <0>         0.1253
     43 H15         4.8778    6.9429    2.0021 H         1 <0>         0.1212
     44 H16         1.0672    6.2698    0.1838 H         1 <0>         0.1543
     45 H17         4.1852    8.8091    2.4381 H         1 <0>         0.0880
     46 H18         4.4064    9.3040    0.7256 H         1 <0>         0.0815
     47 H19         2.5926   10.4893    2.8603 H         1 <0>         0.0867
     48 H20         3.4377   11.3121    1.5054 H         1 <0>         0.0975
     49 H21         0.7187   10.6160    1.3744 H         1 <0>         0.1099
     50 H22         1.7701   10.7090   -0.0791 H         1 <0>         0.1122
@<TRIPOS>BOND
     1    1    2 1
     2    1   30 1
     3    1   31 1
     4    1   32 1
     5    2    7 ar
     6    2    3 ar
     7    3    4 ar
     8    3   33 1
     9    4    5 ar
    10    4   27 1
    11    5    6 ar
    12    5   34 1
    13    6    7 ar
    14    6   35 1
    15    7    8 1
    16    8    9 am
    17    8   36 1
    18    9   10 2
    19    9   11 1
    20   11   12 1
    21   11   13 1
    22   11   14 1
    23   13   37 1
    24   13   38 1
    25   13   39 1
    26   14   15 1
    27   14   40 1
    28   15   20 ar
    29   15   16 ar
    30   16   17 ar
    31   16   41 1
    32   17   18 ar
    33   17   42 1
    34   18   19 ar
    35   18   43 1
    36   19   20 ar
    37   19   21 1
    38   20   44 1
    39   21   25 am
    40   21   22 1
    41   22   23 1
    42   22   45 1
    43   22   46 1
    44   23   24 1
    45   23   47 1
    46   23   48 1
    47   24   25 1
    48   24   49 1
    49   24   50 1
    50   25   26 2
    51   27   28 2
    52   27   29 1
@<TRIPOS>MOLECULE
ZINC40648009
   41    43     0     0     0
SMALL
USER_CHARGES

@<TRIPOS>ATOM
      1 C1         -0.9628    1.1120   -0.0021 C.3       1 <0>        -0.1205
      2 C2         -0.1951   -0.1846    0.0179 C.ar      1 <0>        -0.1080
      3 C3          0.0526   -0.8597   -1.1614 C.ar      1 <0>        -0.1000
      4 C4          0.7568   -2.0495   -1.1440 C.ar      1 <0>        -0.1252
      5 C5          1.2155   -2.5676    0.0535 C.ar      1 <0>        -0.1045
      6 C6          0.9714   -1.8979    1.2361 C.ar      1 <0>        -0.1100
      7 C7          0.2691   -0.6993    1.2215 C.ar      1 <0>         0.1408
      8 N1          0.0252   -0.0157    2.4161 N.pl3     1 <0>        -0.6353
      9 C8         -0.0587   -0.7154    3.6111 C.ar      1 <0>         0.5082
     10 C9         -0.1676   -0.0362    4.8211 C.ar      1 <0>        -0.2558
     11 C10        -0.2492   -0.7840    5.9914 C.ar      1 <0>         0.5103
     12 N2         -0.2203   -2.1133    5.9125 N.ar      1 <0>        -0.5255
     13 C11        -0.1163   -2.7193    4.7475 C.ar      1 <0>         0.4025
     14 N3         -0.0418   -2.0470    3.6168 N.ar      1 <0>        -0.5672
     15 N4         -0.3586   -0.1540    7.2234 N.pl3     1 <0>        -0.5910
     16 C12        -0.4393   -0.9099    8.3846 C.2       1 <0>         0.2596
     17 N5         -0.4218   -2.2197    8.5106 N.2       1 <0>        -0.4954
     18 C13        -0.5079   -2.7917    9.6980 C.2       1 <0>         0.0823
     19 C14        -0.6142   -1.9711   10.7710 C.2       1 <0>        -0.2066
     20 S1         -0.5758   -0.3738    9.9741 S.3       1 <0>         0.1215
     21 C15        -0.7281   -2.3124   12.2344 C.3       1 <0>        -0.0608
     22 C16        -0.4892   -4.2907    9.8525 C.3       1 <0>        -0.0772
     23 N6         -0.1955    1.4433    4.8617 N.pl3     1 <0>         0.0280
     24 O1         -1.2503    2.0302    4.7940 O.2       1 <0>        -0.1319
     25 O2          0.8367    2.0648    4.9625 O.3       1 <0>        -0.1279
     26 H1         -0.2686    1.9434   -0.1242 H         1 <0>         0.0743
     27 H2         -1.6690    1.1034   -0.8323 H         1 <0>         0.0777
     28 H3         -1.5061    1.2271    0.9358 H         1 <0>         0.0601
     29 H4         -0.3046   -0.4580   -2.0981 H         1 <0>         0.1289
     30 H5          0.9488   -2.5755   -2.0674 H         1 <0>         0.1262
     31 H6          1.7650   -3.4974    0.0637 H         1 <0>         0.1285
     32 H7          1.3296   -2.3032    2.1709 H         1 <0>         0.1438
     33 H8         -0.0854    0.9480    2.4097 H         1 <0>         0.4209
     34 H9         -0.0953   -3.7987    4.7181 H         1 <0>         0.2216
     35 H10        -0.3786    0.8145    7.2728 H         1 <0>         0.4373
     36 H11         0.2684   -2.3729   12.6720 H         1 <0>         0.0801
     37 H12        -1.3024   -1.5390   12.7443 H         1 <0>         0.0748
     38 H13        -1.2325   -3.2722   12.3455 H         1 <0>         0.0866
     39 H14         0.5392   -4.6305    9.9748 H         1 <0>         0.0762
     40 H15        -1.0718   -4.5728   10.7294 H         1 <0>         0.0757
     41 H16        -0.9215   -4.7528    8.9650 H         1 <0>         0.0770
@<TRIPOS>BOND
     1    1    2 1
     2    1   26 1
     3    1   27 1
     4    1   28 1
     5    2    7 ar
     6    2    3 ar
     7    3    4 ar
     8    3   29 1
     9    4    5 ar
    10    4   30 1
    11    5    6 ar
    12    5   31 1
    13    6    7 ar
    14    6   32 1
    15    7    8 1
    16    8    9 1
    17    8   33 1
    18    9   14 ar
    19    9   10 ar
    20   10   11 ar
    21   10   23 1
    22   11   12 ar
    23   11   15 1
    24   12   13 ar
    25   13   14 ar
    26   13   34 1
    27   15   16 1
    28   15   35 1
    29   16   20 1
    30   16   17 2
    31   17   18 1
    32   18   19 2
    33   18   22 1
    34   19   20 1
    35   19   21 1
    36   21   36 1
    37   21   37 1
    38   21   38 1
    39   22   39 1
    40   22   40 1
    41   22   41 1
    42   23   24 2
    43   23   25 1
@<TRIPOS>MOLECULE
ZINC00814806
   54    57     0     0     0
SMALL
USER_CHARGES

@<TRIPOS>ATOM
      1 C1         -0.0180    1.5020    0.0198 C.3       1 <0>        -0.1132
      2 C2          0.0022   -0.0048    0.0207 C.2       1 <0>         0.2635
      3 C3         -1.1635   -0.6676    0.0195 C.2       1 <0>        -0.3109
      4 C4         -1.2553   -2.1707    0.0327 C.3       1 <0>         0.2639
      5 H1         -1.9589   -2.4987   -0.7324 H         1 <0>         0.1140
      6 N1          0.0597   -2.7385   -0.2403 N.pl3     1 <0>        -0.3859
      7 C5          1.2095   -2.0149   -0.2362 C.2       1 <0>         0.4605
      8 N2          2.1833   -2.8351   -0.5103 N.2       1 <0>        -0.3334
      9 N3          1.7262   -4.0268   -0.6916 N.2       1 <0>        -0.0218
     10 N4          0.4406   -4.0439   -0.5443 N.2       1 <0>        -0.0515
     11 N5          1.2143   -0.6518    0.0170 N.pl3     1 <0>        -0.6009
     12 C6         -1.7319   -2.6334    1.3854 C.ar      1 <0>        -0.1206
     13 C7         -0.9994   -2.3292    2.5176 C.ar      1 <0>        -0.0846
     14 C8         -1.4365   -2.7536    3.7584 C.ar      1 <0>        -0.1143
     15 C9         -2.6065   -3.4818    3.8671 C.ar      1 <0>        -0.0559
     16 C10        -3.3395   -3.7853    2.7351 C.ar      1 <0>        -0.1072
     17 C11        -2.9045   -3.3572    1.4947 C.ar      1 <0>        -0.0922
     18 C12        -3.0826   -3.9453    5.2197 C.3       1 <0>        -0.0606
     19 C13        -4.4641   -3.3529    5.5046 C.3       1 <0>        -0.1448
     20 C14        -3.1698   -5.4728    5.2338 C.3       1 <0>        -0.1456
     21 C15        -2.3642    0.0808    0.0058 C.2       1 <0>         0.5848
     22 O1         -2.3230    1.2979   -0.0047 O.2       1 <0>        -0.5251
     23 N6         -3.5535   -0.5533    0.0043 N.am      1 <0>        -0.6584
     24 C16        -4.7401    0.1835    0.1082 C.ar      1 <0>         0.1251
     25 C17        -4.7322    1.4335    0.7099 C.ar      1 <0>        -0.0937
     26 C18        -5.9043    2.1588    0.8108 C.ar      1 <0>        -0.1341
     27 C19        -7.0863    1.6419    0.3132 C.ar      1 <0>        -0.0983
     28 C20        -7.1020    0.3967   -0.2874 C.ar      1 <0>        -0.1876
     29 C21        -5.9304   -0.3344   -0.3977 C.ar      1 <0>         0.0960
     30 O2         -5.9432   -1.5568   -0.9931 O.3       1 <0>        -0.3229
     31 C22        -7.1996   -2.0240   -1.4885 C.3       1 <0>         0.0289
     32 H2          1.0047    1.8791    0.0161 H         1 <0>         0.0670
     33 H3         -0.5396    1.8579   -0.8686 H         1 <0>         0.1147
     34 H4         -0.5336    1.8590    0.9113 H         1 <0>         0.1117
     35 H5          2.0412   -0.1746    0.1880 H         1 <0>         0.4474
     36 H6         -0.0853   -1.7602    2.4326 H         1 <0>         0.1116
     37 H7         -0.8639   -2.5165    4.6428 H         1 <0>         0.1253
     38 H8         -4.2533   -4.3545    2.8200 H         1 <0>         0.1286
     39 H9         -3.4791   -3.5911    0.6107 H         1 <0>         0.1272
     40 H10        -2.3805   -3.6144    5.9850 H         1 <0>         0.0791
     41 H11        -4.8085   -3.6882    6.4830 H         1 <0>         0.0608
     42 H12        -4.4020   -2.2648    5.4946 H         1 <0>         0.0566
     43 H13        -5.1662   -3.6838    4.7393 H         1 <0>         0.0576
     44 H14        -2.1855   -5.8948    5.0308 H         1 <0>         0.0566
     45 H15        -3.5141   -5.8080    6.2121 H         1 <0>         0.0610
     46 H16        -3.8719   -5.8037    4.4685 H         1 <0>         0.0580
     47 H17        -3.5876   -1.5199   -0.0688 H         1 <0>         0.4097
     48 H18        -3.8105    1.8395    1.0998 H         1 <0>         0.1535
     49 H19        -5.8970    3.1317    1.2798 H         1 <0>         0.1279
     50 H20        -7.9998    2.2123    0.3943 H         1 <0>         0.1259
     51 H21        -8.0271   -0.0044   -0.6743 H         1 <0>         0.1315
     52 H22        -7.0696   -3.0084   -1.9379 H         1 <0>         0.1013
     53 H23        -7.9120   -2.0912   -0.6663 H         1 <0>         0.0569
     54 H24        -7.5754   -1.3286   -2.2390 H         1 <0>         0.0569
@<TRIPOS>BOND
     1    1    2 1
     2    1   32 1
     3    1   33 1
     4    1   34 1
     5    2   11 1
     6    2    3 2
     7    3    4 1
     8    3   21 1
     9    4    5 1
    10    4    6 1
    11    4   12 1
    12    6   10 1
    13    6    7 1
    14    7    8 2
    15    7   11 1
    16    8    9 1
    17    9   10 2
    18   11   35 1
    19   12   17 ar
    20   12   13 ar
    21   13   14 ar
    22   13   36 1
    23   14   15 ar
    24   14   37 1
    25   15   16 ar
    26   15   18 1
    27   16   17 ar
    28   16   38 1
    29   17   39 1
    30   18   19 1
    31   18   20 1
    32   18   40 1
    33   19   41 1
    34   19   42 1
    35   19   43 1
    36   20   44 1
    37   20   45 1
    38   20   46 1
    39   21   22 2
    40   21   23 am
    41   23   24 1
    42   23   47 1
    43   24   29 ar
    44   24   25 ar
    45   25   26 ar
    46   25   48 1
    47   26   27 ar
    48   26   49 1
    49   27   28 ar
    50   27   50 1
    51   28   29 ar
    52   28   51 1
    53   29   30 1
    54   30   31 1
    55   31   52 1
    56   31   53 1
    57   31   54 1
@<TRIPOS>MOLECULE
ZINC49410717
   55    58     0     0     0
SMALL
USER_CHARGES

@<TRIPOS>ATOM
      1 C1         -1.5513    1.0099    0.2970 C.3       1 <0>        -0.1158
      2 C2         -0.7240   -0.2397    0.1391 C.ar      1 <0>        -0.0974
      3 C3         -0.7297   -0.9242   -1.0607 C.ar      1 <0>        -0.1111
      4 C4          0.0331   -2.0753   -1.2058 C.ar      1 <0>         0.1467
      5 C5          0.8006   -2.5359   -0.1437 C.ar      1 <0>        -0.0825
      6 C6          0.8034   -1.8485    1.0540 C.ar      1 <0>        -0.1282
      7 C7          0.0459   -0.6977    1.1948 C.ar      1 <0>         0.0882
      8 F1          0.0544   -0.0236    2.3656 F         1 <0>        -0.1356
      9 N1          0.0284   -2.7706   -2.4203 N.pl3     1 <0>        -0.6277
     10 C8          0.1510   -4.1379   -2.4289 C.2       1 <0>         0.6585
     11 N2          0.1599   -4.7940   -1.2925 N.2       1 <0>        -0.5609
     12 C9          0.2763   -6.1261   -1.2398 C.2       1 <0>         0.2006
     13 C10         0.3914   -6.8575   -2.3756 C.2       1 <0>        -0.2315
     14 C11         0.3856   -6.1817   -3.6239 C.2       1 <0>         0.3376
     15 N3          0.2570   -4.8007   -3.6266 N.am      1 <0>        -0.5251
     16 C12         0.2704   -4.3808   -4.9054 C.2       1 <0>         0.6601
     17 O1          0.1827   -3.2253   -5.2821 O.2       1 <0>        -0.5381
     18 N4          0.3985   -5.4668   -5.6964 N.am      1 <0>        -0.4190
     19 N5          0.4768   -6.5921   -4.8631 N.2       1 <0>        -0.2740
     20 C13         0.4568   -5.4687   -7.1602 C.3       1 <0>         0.1421
     21 C14         1.8909   -5.3434   -7.6060 C.2       1 <0>         0.4974
     22 O2          2.7770   -5.2606   -6.7820 O.2       1 <0>        -0.5204
     23 N6          2.1888   -5.3232   -8.9202 N.am      1 <0>        -0.7233
     24 C15         3.5829   -5.2014   -9.3536 C.3       1 <0>         0.1461
     25 C16         4.2325   -6.5864   -9.3774 C.3       1 <0>        -0.1288
     26 C17         5.6885   -6.4592   -9.8300 C.3       1 <0>        -0.1179
     27 C18         5.7352   -5.8498  -11.2326 C.3       1 <0>        -0.1226
     28 C19         5.0856   -4.4647  -11.2088 C.3       1 <0>        -0.1168
     29 C20         3.6296   -4.5920  -10.7562 C.3       1 <0>        -0.1261
     30 C21         0.2799   -6.8212    0.0973 C.3       1 <0>        -0.1050
     31 H1         -0.9596    1.8770    0.0036 H         1 <0>         0.0772
     32 H2         -2.4359    0.9425   -0.3363 H         1 <0>         0.0738
     33 H3         -1.8570    1.1141    1.3381 H         1 <0>         0.0736
     34 H4         -1.3275   -0.5645   -1.8851 H         1 <0>         0.1370
     35 H5          1.3944   -3.4312   -0.2543 H         1 <0>         0.1489
     36 H6          1.3997   -2.2065    1.8802 H         1 <0>         0.1426
     37 H7         -0.0615   -2.2865   -3.2560 H         1 <0>         0.4343
     38 H8          0.4859   -7.9324   -2.3315 H         1 <0>         0.1648
     39 H9          0.0387   -6.4012   -7.5393 H         1 <0>         0.1333
     40 H10        -0.1189   -4.6283   -7.5479 H         1 <0>         0.1302
     41 H11         1.4801   -5.3895   -9.5792 H         1 <0>         0.4021
     42 H12         4.1242   -4.5581   -8.6598 H         1 <0>         0.0878
     43 H13         4.1993   -7.0206   -8.3781 H         1 <0>         0.0668
     44 H14         3.6913   -7.2297  -10.0712 H         1 <0>         0.0650
     45 H15         6.2297   -5.8159   -9.1362 H         1 <0>         0.0640
     46 H16         6.1513   -7.4459   -9.8469 H         1 <0>         0.0663
     47 H17         6.7724   -5.7591  -11.5550 H         1 <0>         0.0650
     48 H18         5.1939   -6.4931  -11.9264 H         1 <0>         0.0635
     49 H19         5.6268   -3.8215  -10.5150 H         1 <0>         0.0652
     50 H20         5.1188   -4.0306  -12.2080 H         1 <0>         0.0689
     51 H21         3.0884   -5.2353  -11.4500 H         1 <0>         0.0697
     52 H22         3.1668   -3.6053  -10.7392 H         1 <0>         0.0695
     53 H23         0.1794   -6.0815    0.8916 H         1 <0>         0.0837
     54 H24        -0.5541   -7.5213    0.1452 H         1 <0>         0.0888
     55 H25         1.2171   -7.3635    0.2223 H         1 <0>         0.0889
@<TRIPOS>BOND
     1    1    2 1
     2    1   31 1
     3    1   32 1
     4    1   33 1
     5    2    7 ar
     6    2    3 ar
     7    3    4 ar
     8    3   34 1
     9    4    5 ar
    10    4    9 1
    11    5    6 ar
    12    5   35 1
    13    6    7 ar
    14    6   36 1
    15    7    8 1
    16    9   10 1
    17    9   37 1
    18   10   15 1
    19   10   11 2
    20   11   12 1
    21   12   13 2
    22   12   30 1
    23   13   14 1
    24   13   38 1
    25   14   19 2
    26   14   15 1
    27   15   16 am
    28   16   17 2
    29   16   18 am
    30   18   19 1
    31   18   20 1
    32   20   21 1
    33   20   39 1
    34   20   40 1
    35   21   22 2
    36   21   23 am
    37   23   24 1
    38   23   41 1
    39   24   29 1
    40   24   25 1
    41   24   42 1
    42   25   26 1
    43   25   43 1
    44   25   44 1
    45   26   27 1
    46   26   45 1
    47   26   46 1
    48   27   28 1
    49   27   47 1
    50   27   48 1
    51   28   29 1
    52   28   49 1
    53   28   50 1
    54   29   51 1
    55   29   52 1
    56   30   53 1
    57   30   54 1
    58   30   55 1
@<TRIPOS>MOLECULE
ZINC67284188
   43    45     0     0     0
SMALL
USER_CHARGES

@<TRIPOS>ATOM
      1 C1          0.0100    1.5264    0.0548 C.3       1 <0>         0.0759
      2 N1          0.2135    0.0756    0.0392 N.am      1 <0>        -0.6117
      3 C2          0.3771   -0.6547    1.2986 C.3       1 <0>         0.1177
      4 C3         -0.9721   -1.1029    1.7983 C.2       1 <0>         0.4971
      5 O1         -1.9720   -0.8384    1.1648 O.2       1 <0>        -0.5008
      6 N2         -1.0677   -1.7978    2.9491 N.am      1 <0>        -0.6714
      7 C4         -2.3259   -2.1299    3.4634 C.ar      1 <0>         0.2053
      8 C5         -2.5360   -2.1374    4.8358 C.ar      1 <0>        -0.1918
      9 C6         -3.7808   -2.4661    5.3423 C.ar      1 <0>         0.1523
     10 C7         -4.8166   -2.7880    4.4815 C.ar      1 <0>        -0.2064
     11 C8         -4.6090   -2.7812    3.1125 C.ar      1 <0>         0.1525
     12 C9         -3.3674   -2.4470    2.6017 C.ar      1 <0>        -0.1680
     13 F1         -5.6211   -3.0961    2.2747 F         1 <0>        -0.1249
     14 F2         -3.9858   -2.4735    6.6776 F         1 <0>        -0.1258
     15 C10         0.2501   -0.5871   -1.1338 C.2       1 <0>         0.7151
     16 O2          0.4190   -1.7911   -1.1468 O.2       1 <0>        -0.5661
     17 N3          0.0996    0.0848   -2.2924 N.am      1 <0>        -0.6812
     18 C11         0.0290   -0.6144   -3.5028 C.ar      1 <0>         0.1616
     19 C12        -0.5671   -1.8689   -3.5471 C.ar      1 <0>        -0.0894
     20 C13        -0.6390   -2.5619   -4.7403 C.ar      1 <0>        -0.1032
     21 C14        -0.1187   -2.0122   -5.8952 C.ar      1 <0>        -0.0780
     22 C15         0.4808   -0.7548   -5.8600 C.ar      1 <0>        -0.0218
     23 C16         0.5487   -0.0532   -4.6592 C.ar      1 <0>        -0.1049
     24 C17         1.0411   -0.1627   -7.1004 C.2       1 <0>         0.2993
     25 N4          1.0281   -0.7342   -8.3179 N.2       1 <0>        -0.5413
     26 C18         1.6003    0.0510   -9.1854 C.2       1 <0>         0.2800
     27 O3          2.0031    1.1606   -8.5528 O.3       1 <0>        -0.1048
     28 N5          1.6255    1.0062   -7.1929 N.2       1 <0>        -0.3354
     29 H1          0.9760    2.0292    0.0096 H         1 <0>         0.0661
     30 H2         -0.5921    1.8181   -0.8057 H         1 <0>         0.0718
     31 H3         -0.5053    1.8111    0.9722 H         1 <0>         0.0803
     32 H4          1.0112   -1.5258    1.1337 H         1 <0>         0.1250
     33 H5          0.8406   -0.0028    2.0391 H         1 <0>         0.1198
     34 H6         -0.2643   -2.0677    3.4209 H         1 <0>         0.4187
     35 H7         -1.7282   -1.8871    5.5076 H         1 <0>         0.1478
     36 H8         -5.7875   -3.0451    4.8785 H         1 <0>         0.1515
     37 H9         -3.2072   -2.4372    1.5337 H         1 <0>         0.1575
     38 H10         0.0401    1.0530   -2.2874 H         1 <0>         0.4098
     39 H11        -0.9749   -2.3035   -2.6464 H         1 <0>         0.1430
     40 H12        -1.1032   -3.5366   -4.7697 H         1 <0>         0.1383
     41 H13        -0.1760   -2.5570   -6.8259 H         1 <0>         0.1413
     42 H14         1.0083    0.9236   -4.6279 H         1 <0>         0.1350
     43 H15         1.7282   -0.1574  -10.2373 H         1 <0>         0.2644
@<TRIPOS>BOND
     1    1    2 1
     2    1   29 1
     3    1   30 1
     4    1   31 1
     5    2    3 1
     6    2   15 am
     7    3    4 1
     8    3   32 1
     9    3   33 1
    10    4    5 2
    11    4    6 am
    12    6    7 1
    13    6   34 1
    14    7   12 ar
    15    7    8 ar
    16    8    9 ar
    17    8   35 1
    18    9   10 ar
    19    9   14 1
    20   10   11 ar
    21   10   36 1
    22   11   12 ar
    23   11   13 1
    24   12   37 1
    25   15   16 2
    26   15   17 am
    27   17   18 1
    28   17   38 1
    29   18   23 ar
    30   18   19 ar
    31   19   20 ar
    32   19   39 1
    33   20   21 ar
    34   20   40 1
    35   21   22 ar
    36   21   41 1
    37   22   23 ar
    38   22   24 1
    39   23   42 1
    40   24   28 2
    41   24   25 1
    42   25   26 2
    43   26   27 1
    44   26   43 1
    45   27   28 1
@<TRIPOS>MOLECULE
ZINC14482748
   53    56     0     0     0
SMALL
USER_CHARGES
N-[(1R)-1-(1,3-benzodioxol-5-yl)ethyl]-2-[(4R)-4-ethyl-2,5-dioxo-4-phenyl-imidazolidin-1-yl]acetamide
@<TRIPOS>ATOM
      1 C1         -7.1038   -2.5183   -1.7626 C.3       1 <0>        -0.1594
      2 C2         -8.4706   -2.0030   -2.2179 C.3       1 <0>        -0.1163
      3 C3         -8.2885   -0.7095   -3.0145 C.3       1 <0>         0.1723
      4 C4         -7.6068    0.3468   -2.1677 C.2       1 <0>         0.5448
      5 O1         -8.0152    0.8335   -1.1351 O.2       1 <0>        -0.4535
      6 N1         -6.4518    0.6319   -2.8009 N.am      1 <0>        -0.5612
      7 C5         -6.3128   -0.0863   -3.9211 C.2       1 <0>         0.7116
      8 O2         -5.3547   -0.0009   -4.6639 O.2       1 <0>        -0.5363
      9 N2         -7.3505   -0.9163   -4.1314 N.am      1 <0>        -0.7129
     10 C6         -5.4724    1.6119   -2.3248 C.3       1 <0>         0.0977
     11 C7         -4.4787    0.9301   -1.4200 C.2       1 <0>         0.5053
     12 O3         -4.5787   -0.2575   -1.1950 O.2       1 <0>        -0.5198
     13 N3         -3.4788    1.6400   -0.8608 N.am      1 <0>        -0.7212
     14 C8         -2.5127    0.9772    0.0188 C.3       1 <0>         0.1911
     15 H1         -2.3308   -0.0361   -0.3394 H         1 <0>         0.1015
     16 C9         -3.0725    0.9224    1.4416 C.3       1 <0>        -0.1595
     17 C10        -1.2192    1.7503    0.0173 C.ar      1 <0>        -0.0844
     18 C11        -1.2417    3.1326    0.0328 C.ar      1 <0>        -0.1041
     19 C12        -0.0578    3.8463    0.0241 C.ar      1 <0>        -0.0943
     20 C13         1.1551    3.1770    0.0081 C.ar      1 <0>         0.0346
     21 C14         1.1779    1.7845    0.0004 C.ar      1 <0>         0.0383
     22 C15        -0.0126    1.0758    0.0080 C.ar      1 <0>        -0.0869
     23 O4          2.4782    1.3695   -0.0147 O.3       1 <0>        -0.3068
     24 C16         3.2432    2.5171   -0.4283 C.3       1 <0>         0.2128
     25 O5          2.4412    3.6344   -0.0021 O.3       1 <0>        -0.3075
     26 C17        -9.6169   -0.2082   -3.5195 C.ar      1 <0>        -0.1014
     27 C18       -10.7655   -0.4330   -2.7838 C.ar      1 <0>        -0.0915
     28 C19       -11.9833    0.0310   -3.2446 C.ar      1 <0>        -0.1168
     29 C20       -12.0541    0.7112   -4.4460 C.ar      1 <0>        -0.1068
     30 C21       -10.9064    0.9310   -5.1845 C.ar      1 <0>        -0.1178
     31 C22        -9.6877    0.4715   -4.7211 C.ar      1 <0>        -0.1006
     32 H2         -6.6240   -1.7686   -1.1334 H         1 <0>         0.0646
     33 H3         -7.2335   -3.4398   -1.1951 H         1 <0>         0.0665
     34 H4         -6.4801   -2.7136   -2.6350 H         1 <0>         0.0599
     35 H5         -9.0943   -1.8078   -1.3456 H         1 <0>         0.0911
     36 H6         -8.9503   -2.7527   -2.8471 H         1 <0>         0.0892
     37 H7         -7.4608   -1.5293   -4.8750 H         1 <0>         0.4423
     38 H8         -5.9853    2.3997   -1.7731 H         1 <0>         0.1275
     39 H9         -4.9495    2.0464   -3.1768 H         1 <0>         0.1303
     40 H10        -3.3987    2.5898   -1.0408 H         1 <0>         0.4023
     41 H11        -4.0082    0.3632    1.4427 H         1 <0>         0.0678
     42 H12        -2.3538    0.4293    2.0961 H         1 <0>         0.0710
     43 H13        -3.2545    1.9357    1.7998 H         1 <0>         0.0624
     44 H14        -2.1863    3.6560    0.0456 H         1 <0>         0.1376
     45 H15        -0.0784    4.9261    0.0300 H         1 <0>         0.1395
     46 H16         0.0021   -0.0041    0.0020 H         1 <0>         0.1390
     47 H17         3.3666    2.5252   -1.5112 H         1 <0>         0.0869
     48 H18         4.2142    2.5316    0.0668 H         1 <0>         0.1345
     49 H19       -10.7108   -0.9679   -1.8472 H         1 <0>         0.1309
     50 H20       -12.8801   -0.1410   -2.6679 H         1 <0>         0.1291
     51 H21       -13.0061    1.0705   -4.8079 H         1 <0>         0.1266
     52 H22       -10.9617    1.4620   -6.1233 H         1 <0>         0.1270
     53 H23        -8.7910    0.6433   -5.2980 H         1 <0>         0.1229
@<TRIPOS>BOND
     1    1    2 1
     2    1   32 1
     3    1   33 1
     4    1   34 1
     5    2    3 1
     6    2   35 1
     7    2   36 1
     8    3    9 1
     9    3    4 1
    10    3   26 1
    11    4    5 2
    12    4    6 am
    13    6    7 am
    14    6   10 1
    15    7    8 2
    16    7    9 am
    17    9   37 1
    18   10   11 1
    19   10   38 1
    20   10   39 1
    21   11   12 2
    22   11   13 am
    23   13   14 1
    24   13   40 1
    25   14   15 1
    26   14   16 1
    27   14   17 1
    28   16   41 1
    29   16   42 1
    30   16   43 1
    31   17   22 ar
    32   17   18 ar
    33   18   19 ar
    34   18   44 1
    35   19   20 ar
    36   19   45 1
    37   20   25 1
    38   20   21 ar
    39   21   22 ar
    40   21   23 1
    41   22   46 1
    42   23   24 1
    43   24   25 1
    44   24   47 1
    45   24   48 1
    46   26   31 ar
    47   26   27 ar
    48   27   28 ar
    49   27   49 1
    50   28   29 ar
    51   28   50 1
    52   29   30 ar
    53   29   51 1
    54   30   31 ar
    55   30   52 1
    56   31   53 1
@<TRIPOS>MOLECULE
ZINC33257396
   47    49     0     0     0
SMALL
USER_CHARGES
1-[(2,5-dimethoxyphenyl)methyl]-3-[4-(5-methyl-1,2,4-oxadiazol-3-yl)phenyl]urea
@<TRIPOS>ATOM
      1 C1         -8.1749   -3.7459   -1.3164 C.3       1 <0>        -0.0680
      2 C2         -7.4786   -2.4965   -0.8417 C.2       1 <0>         0.1835
      3 N1         -6.2058   -2.2174   -0.9740 N.2       1 <0>        -0.4788
      4 C3         -6.0388   -1.0036   -0.4013 C.2       1 <0>         0.2209
      5 N2         -7.2106   -0.6171    0.0329 N.2       1 <0>        -0.3806
      6 O1         -8.0453   -1.4623   -0.2124 O.3       1 <0>         0.0772
      7 C4         -4.7663   -0.2493   -0.2917 C.ar      1 <0>        -0.0508
      8 C5         -4.7471    1.0015    0.3239 C.ar      1 <0>        -0.0591
      9 C6         -3.5634    1.7005    0.4250 C.ar      1 <0>        -0.1546
     10 C7         -2.3895    1.1591   -0.0858 C.ar      1 <0>         0.1994
     11 C8         -2.4073   -0.0854   -0.7046 C.ar      1 <0>        -0.1281
     12 C9         -3.5878   -0.7902   -0.8037 C.ar      1 <0>        -0.0503
     13 N3         -1.1906    1.8696    0.0179 N.am      1 <0>        -0.6994
     14 C10        -0.0271    1.2084    0.1775 C.2       1 <0>         0.7074
     15 O2         -0.0292    0.0019    0.3282 O.2       1 <0>        -0.5749
     16 N4          1.1391    1.8839    0.1645 N.am      1 <0>        -0.7410
     17 C11         2.4042    1.1645    0.3319 C.3       1 <0>         0.1934
     18 C12         3.5492    2.1429    0.2797 C.ar      1 <0>        -0.1028
     19 C13         4.2836    2.2854   -0.8817 C.ar      1 <0>        -0.0921
     20 C14         5.3337    3.1900   -0.9315 C.ar      1 <0>         0.0912
     21 C15         5.6538    3.9433    0.1884 C.ar      1 <0>        -0.1583
     22 C16         4.9232    3.7967    1.3512 C.ar      1 <0>        -0.1704
     23 C17         3.8693    2.8960    1.3993 C.ar      1 <0>         0.1106
     24 O3          3.1497    2.7519    2.5441 O.3       1 <0>        -0.3089
     25 C18         3.5347    3.5596    3.6584 C.3       1 <0>         0.0230
     26 O4          6.0530    3.3343   -2.0764 O.3       1 <0>        -0.3159
     27 C19         7.1244    4.2797   -2.0546 C.3       1 <0>         0.0236
     28 H1         -7.4442   -4.4126   -1.7976 H         1 <0>         0.1078
     29 H2         -8.9580   -3.4766   -2.0404 H         1 <0>         0.1024
     30 H3         -8.6307   -4.2604   -0.4576 H         1 <0>         0.1025
     31 H4         -5.6589    1.4225    0.7208 H         1 <0>         0.1332
     32 H5         -3.5480    2.6695    0.9017 H         1 <0>         0.1330
     33 H6         -1.4949   -0.5022   -1.1047 H         1 <0>         0.1431
     34 H7         -3.6005   -1.7588   -1.2812 H         1 <0>         0.1373
     35 H8         -1.1965    2.9685   -0.0307 H         1 <0>         0.4305
     36 H9          1.1410    2.9754    0.0282 H         1 <0>         0.4170
     37 H10         2.4068    0.6485    1.3034 H         1 <0>         0.0814
     38 H11         2.5158    0.4261   -0.4757 H         1 <0>         0.0770
     39 H12         4.0374    1.6954   -1.7522 H         1 <0>         0.1412
     40 H13         6.4746    4.6443    0.1511 H         1 <0>         0.1329
     41 H14         5.1727    4.3829    2.2233 H         1 <0>         0.1336
     42 H15         2.8752    3.3448    4.5122 H         1 <0>         0.1027
     43 H16         3.4497    4.6224    3.3876 H         1 <0>         0.0561
     44 H17         4.5755    3.3333    3.9331 H         1 <0>         0.0564
     45 H18         7.6188    4.2962   -3.0371 H         1 <0>         0.1034
     46 H19         7.8526    3.9908   -1.2824 H         1 <0>         0.0562
     47 H20         6.7264    5.2797   -1.8275 H         1 <0>         0.0559
@<TRIPOS>BOND
     1    1    2 1
     2    1   28 1
     3    1   29 1
     4    1   30 1
     5    2    6 1
     6    2    3 2
     7    3    4 1
     8    4    5 2
     9    4    7 1
    10    5    6 1
    11    7   12 ar
    12    7    8 ar
    13    8    9 ar
    14    8   31 1
    15    9   10 ar
    16    9   32 1
    17   10   11 ar
    18   10   13 1
    19   11   12 ar
    20   11   33 1
    21   12   34 1
    22   13   14 am
    23   13   35 1
    24   14   15 2
    25   14   16 am
    26   16   17 1
    27   16   36 1
    28   17   18 1
    29   17   37 1
    30   17   38 1
    31   18   23 ar
    32   18   19 ar
    33   19   20 ar
    34   19   39 1
    35   20   21 ar
    36   20   26 1
    37   21   22 ar
    38   21   40 1
    39   22   23 ar
    40   22   41 1
    41   23   24 1
    42   24   25 1
    43   25   42 1
    44   25   43 1
    45   25   44 1
    46   26   27 1
    47   27   45 1
    48   27   46 1
    49   27   47 1
@<TRIPOS>MOLECULE
ZINC49053703
   51    54     0     0     0
SMALL
USER_CHARGES

@<TRIPOS>ATOM
      1 C1          6.4889   -3.8254   -0.0667 C.3       1 <0>        -0.0583
      2 C2          5.0075   -4.1021   -0.0583 C.2       1 <0>        -0.2198
      3 C3          4.3498   -5.2868   -0.0492 C.2       1 <0>         0.0586
      4 N1          3.0298   -5.2409   -0.0432 N.2       1 <0>        -0.5085
      5 C4          2.3900   -4.0910   -0.0460 C.2       1 <0>         0.2864
      6 S1          3.6358   -2.9594   -0.0497 S.3       1 <0>         0.0874
      7 N2          1.0204   -3.8660   -0.0411 N.pl3     1 <0>        -0.5965
      8 C5          0.1412   -4.9353   -0.1389 C.ar      1 <0>         0.4822
      9 C6         -1.2289   -4.7143   -0.2439 C.ar      1 <0>        -0.3897
     10 C7         -2.0723   -5.8172   -0.3401 C.ar      1 <0>         0.5021
     11 N3         -1.5446   -7.0392   -0.3286 N.ar      1 <0>        -0.6408
     12 C8         -0.2354   -7.2117   -0.2273 C.ar      1 <0>         0.6321
     13 N4          0.5975   -6.1857   -0.1390 N.ar      1 <0>        -0.5888
     14 N5          0.2761   -8.4976   -0.2183 N.pl3     1 <0>        -0.6829
     15 C9          1.7213   -8.7102   -0.1071 C.3       1 <0>         0.2179
     16 H1          2.2473   -7.9156   -0.6362 H         1 <0>         0.1202
     17 C10         2.1268   -8.6958    1.3682 C.3       1 <0>        -0.1502
     18 C11         2.0813  -10.0418   -0.7140 C.ar      1 <0>         0.1118
     19 C12         3.3615  -10.2503   -1.1919 C.ar      1 <0>        -0.1302
     20 C13         3.6836  -11.4780   -1.7485 C.ar      1 <0>        -0.1032
     21 C14         2.6998  -12.4566   -1.8041 C.ar      1 <0>         0.0455
     22 C15         1.4399  -12.1740   -1.3051 C.ar      1 <0>         0.0826
     23 N6          1.1728  -10.9951   -0.7778 N.ar      1 <0>        -0.4544
     24 F1          2.9685  -13.6679   -2.3384 F         1 <0>        -0.1282
     25 N7         -3.4438   -5.6453   -0.4460 N.pl3     1 <0>        -0.6017
     26 C16        -4.3615   -6.7900   -0.3331 C.3       1 <0>         0.0914
     27 C17        -5.4489   -6.4390    0.6889 C.3       1 <0>         0.0460
     28 O1         -6.0383   -5.1850    0.3370 O.3       1 <0>        -0.3791
     29 C18        -5.1286   -4.0824    0.3645 C.3       1 <0>         0.0466
     30 C19        -4.0252   -4.3120   -0.6685 C.3       1 <0>         0.0881
     31 H2          6.6573   -2.7484   -0.0674 H         1 <0>         0.0707
     32 H3          6.9454   -4.2639    0.8207 H         1 <0>         0.0792
     33 H4          6.9353   -4.2636   -0.9593 H         1 <0>         0.0793
     34 H5          4.8813   -6.2270   -0.0473 H         1 <0>         0.1697
     35 H6          0.6778   -2.9613    0.0307 H         1 <0>         0.4360
     36 H7         -1.6281   -3.7108   -0.2502 H         1 <0>         0.1366
     37 H8         -0.3223   -9.2580   -0.2857 H         1 <0>         0.4217
     38 H9          1.8664   -7.7328    1.8072 H         1 <0>         0.0729
     39 H10         1.6008   -9.4905    1.8973 H         1 <0>         0.0543
     40 H11         3.2021   -8.8541    1.4510 H         1 <0>         0.0644
     41 H12         4.1016   -9.4660   -1.1326 H         1 <0>         0.1489
     42 H13         4.6757  -11.6690   -2.1301 H         1 <0>         0.1509
     43 H14         0.6684  -12.9288   -1.3440 H         1 <0>         0.1702
     44 H15        -4.8192   -6.9906   -1.3018 H         1 <0>         0.0716
     45 H16        -3.8120   -7.6694    0.0030 H         1 <0>         0.1056
     46 H17        -6.2147   -7.2146    0.6866 H         1 <0>         0.1073
     47 H18        -5.0055   -6.3669    1.6820 H         1 <0>         0.0554
     48 H19        -5.6640   -3.1627    0.1288 H         1 <0>         0.1082
     49 H20        -4.6841   -4.0018    1.3564 H         1 <0>         0.0566
     50 H21        -3.2531   -3.5511   -0.5544 H         1 <0>         0.0963
     51 H22        -4.4484   -4.2588   -1.6716 H         1 <0>         0.0776
@<TRIPOS>BOND
     1    1    2 1
     2    1   31 1
     3    1   32 1
     4    1   33 1
     5    2    6 1
     6    2    3 2
     7    3    4 1
     8    3   34 1
     9    4    5 2
    10    5    6 1
    11    5    7 1
    12    7    8 1
    13    7   35 1
    14    8   13 ar
    15    8    9 ar
    16    9   10 ar
    17    9   36 1
    18   10   11 ar
    19   10   25 1
    20   11   12 ar
    21   12   13 ar
    22   12   14 1
    23   14   15 1
    24   14   37 1
    25   15   16 1
    26   15   17 1
    27   15   18 1
    28   17   38 1
    29   17   39 1
    30   17   40 1
    31   18   23 ar
    32   18   19 ar
    33   19   20 ar
    34   19   41 1
    35   20   21 ar
    36   20   42 1
    37   21   22 ar
    38   21   24 1
    39   22   23 ar
    40   22   43 1
    41   25   30 1
    42   25   26 1
    43   26   27 1
    44   26   44 1
    45   26   45 1
    46   27   28 1
    47   27   46 1
    48   27   47 1
    49   28   29 1
    50   29   30 1
    51   29   48 1
    52   29   49 1
    53   30   50 1
    54   30   51 1
@<TRIPOS>MOLECULE
ZINC19236068
   59    62     0     0     0
SMALL
USER_CHARGES

@<TRIPOS>ATOM
      1 C1         -0.0184    1.5028    0.0103 C.3       1 <0>        -0.1126
      2 C2          0.0021   -0.0041    0.0020 C.ar      1 <0>        -0.0920
      3 C3          0.0057   -0.6888   -1.1978 C.ar      1 <0>        -0.1158
      4 C4          0.0244   -2.0713   -1.2061 C.ar      1 <0>        -0.1098
      5 C5          0.0395   -2.7720   -0.0142 C.ar      1 <0>        -0.1160
      6 C6          0.0359   -2.0919    1.1883 C.ar      1 <0>        -0.0929
      7 C7          0.0230   -0.7047    1.1992 C.ar      1 <0>         0.0820
      8 O1          0.0255   -0.0333    2.3808 O.3       1 <0>        -0.3015
      9 C8         -1.2463    0.2703    2.9572 C.3       1 <0>         0.0445
     10 C9         -1.0461    1.0110    4.2542 C.2       1 <0>         0.5228
     11 O2          0.0753    1.2549    4.6464 O.2       1 <0>        -0.4979
     12 N1         -2.1133    1.4025    4.9784 N.am      1 <0>        -0.7329
     13 C10        -1.9186    2.1225    6.2393 C.3       1 <0>         0.1833
     14 H1         -1.0457    2.7701    6.1569 H         1 <0>         0.1307
     15 C11        -1.7028    1.1175    7.3725 C.3       1 <0>        -0.1684
     16 C12        -3.1378    2.9579    6.5341 C.2       1 <0>         0.2031
     17 C13        -3.0114    4.2876    6.7482 C.2       1 <0>        -0.2799
     18 C14        -4.1539    5.0655    7.0231 C.2       1 <0>         0.5671
     19 N2         -5.3669    4.4810    7.0715 N.am      1 <0>        -0.3616
     20 C15        -5.4873    3.1386    6.8544 C.2       1 <0>         0.3056
     21 N3         -4.3684    2.3753    6.5796 N.pl3     1 <0>        -0.6015
     22 C16        -6.8090    2.8253    6.9637 C.2       1 <0>        -0.2712
     23 C17        -7.5052    4.0000    7.2528 C.2       1 <0>         0.1296
     24 N4         -6.6487    4.9886    7.3176 N.2       1 <0>        -0.2550
     25 C18        -8.9942    4.1120    7.4562 C.3       1 <0>        -0.0129
     26 C19        -9.5150    2.8433    8.1385 C.3       1 <0>        -0.1465
     27 C20       -11.0377    2.9322    8.2697 C.3       1 <0>         0.0601
     28 O3        -11.6165    3.1087    6.9751 O.3       1 <0>        -0.3811
     29 C21       -11.2025    4.3032    6.3089 C.3       1 <0>         0.0612
     30 C22        -9.6864    4.2694    6.0989 C.3       1 <0>        -0.1455
     31 O4         -4.0451    6.2632    7.2170 O.2       1 <0>        -0.4815
     32 C23         0.0523   -2.8562    2.4870 C.3       1 <0>        -0.1117
     33 H2          1.0042    1.8801    0.0026 H         1 <0>         0.0770
     34 H3         -0.5455    1.8639   -0.8728 H         1 <0>         0.0686
     35 H4         -0.5286    1.8543    0.9071 H         1 <0>         0.0639
     36 H5         -0.0064   -0.1438   -2.1301 H         1 <0>         0.1283
     37 H6          0.0269   -2.6048   -2.1451 H         1 <0>         0.1276
     38 H7          0.0538   -3.8518   -0.0233 H         1 <0>         0.1283
     39 H8         -1.8183    0.8920    2.2684 H         1 <0>         0.0870
     40 H9         -1.7893   -0.6554    3.1476 H         1 <0>         0.0872
     41 H10        -3.0102    1.2074    4.6647 H         1 <0>         0.4011
     42 H11        -0.8210    0.5133    7.1593 H         1 <0>         0.0836
     43 H12        -1.5580    1.6532    8.3107 H         1 <0>         0.0812
     44 H13        -2.5757    0.4699    7.4549 H         1 <0>         0.0623
     45 H14        -2.0371    4.7520    6.7089 H         1 <0>         0.1805
     46 H15        -7.2411    1.8424    6.8471 H         1 <0>         0.1639
     47 H16        -9.2128    4.9789    8.0798 H         1 <0>         0.0948
     48 H17        -9.2513    1.9725    7.5383 H         1 <0>         0.0799
     49 H18        -9.0687    2.7529    9.1288 H         1 <0>         0.0796
     50 H19       -11.4183    2.0134    8.7159 H         1 <0>         0.0989
     51 H20       -11.2991    3.7796    8.9034 H         1 <0>         0.0539
     52 H21       -11.7019    4.3721    5.3424 H         1 <0>         0.0988
     53 H22       -11.4660    5.1686    6.9169 H         1 <0>         0.0545
     54 H23        -9.3627    5.1989    5.6305 H         1 <0>         0.0792
     55 H24        -9.4262    3.4274    5.4574 H         1 <0>         0.0781
     56 H25         1.0838   -3.0266    2.7953 H         1 <0>         0.0766
     57 H26        -0.4658   -2.2805    3.2539 H         1 <0>         0.0636
     58 H27        -0.4492   -3.8144    2.3510 H         1 <0>         0.0684
     59 H28        -4.4590    1.4224    6.4224 H         1 <0>         0.4318
@<TRIPOS>BOND
     1    1    2 1
     2    1   33 1
     3    1   34 1
     4    1   35 1
     5    2    7 ar
     6    2    3 ar
     7    3    4 ar
     8    3   36 1
     9    4    5 ar
    10    4   37 1
    11    5    6 ar
    12    5   38 1
    13    6    7 ar
    14    6   32 1
    15    7    8 1
    16    8    9 1
    17    9   10 1
    18    9   39 1
    19    9   40 1
    20   10   11 2
    21   10   12 am
    22   12   13 1
    23   12   41 1
    24   13   14 1
    25   13   15 1
    26   13   16 1
    27   15   42 1
    28   15   43 1
    29   15   44 1
    30   16   21 1
    31   16   17 2
    32   17   18 1
    33   17   45 1
    34   18   19 am
    35   18   31 2
    36   19   24 1
    37   19   20 1
    38   20   21 1
    39   20   22 2
    40   21   59 1
    41   22   23 1
    42   22   46 1
    43   23   24 2
    44   23   25 1
    45   25   30 1
    46   25   26 1
    47   25   47 1
    48   26   27 1
    49   26   48 1
    50   26   49 1
    51   27   28 1
    52   27   50 1
    53   27   51 1
    54   28   29 1
    55   29   30 1
    56   29   52 1
    57   29   53 1
    58   30   54 1
    59   30   55 1
    60   32   56 1
    61   32   57 1
    62   32   58 1
@<TRIPOS>MOLECULE
ZINC66469284
   51    54     0     0     0
SMALL
USER_CHARGES

@<TRIPOS>ATOM
      1 C1          0.2071    1.2282    0.2398 C.ar      1 <0>        -0.0632
      2 C2          1.4605    1.7903    0.3780 C.ar      1 <0>        -0.1828
      3 C3          2.5849    0.9764    0.4272 C.ar      1 <0>         0.2153
      4 C4          2.4481   -0.4028    0.3373 C.ar      1 <0>        -0.1837
      5 C5          1.1945   -0.9645    0.1992 C.ar      1 <0>        -0.0868
      6 C6          0.0705   -0.1507    0.1500 C.ar      1 <0>         0.0756
      7 N1         -1.2019   -0.7211    0.0097 N.am      1 <0>        -0.6625
      8 C7         -2.1517   -0.0830   -0.7026 C.2       1 <0>         0.5085
      9 O1         -1.8779    0.9342   -1.3039 O.2       1 <0>        -0.5160
     10 C8         -3.5537   -0.6334   -0.7520 C.3       1 <0>         0.1024
     11 N2         -4.3900    0.2346   -1.5848 N.pl3     1 <0>        -0.7240
     12 C9         -5.7397   -0.0739   -1.7810 C.ar      1 <0>         0.2149
     13 C10        -6.2893   -1.1986   -1.1828 C.ar      1 <0>        -0.1651
     14 C11        -7.6287   -1.5013   -1.3793 C.ar      1 <0>         0.1717
     15 C12        -8.4166   -0.6790   -2.1735 C.ar      1 <0>        -0.1521
     16 C13        -7.8684    0.4412   -2.7690 C.ar      1 <0>        -0.0768
     17 C14        -6.5347    0.7496   -2.5715 C.ar      1 <0>         0.0364
     18 F1         -6.0026    1.8480   -3.1507 F         1 <0>        -0.1307
     19 N3         -8.1870   -2.6383   -0.7760 N.pl3     1 <0>        -0.3290
     20 C15        -9.4619   -3.0740   -0.8697 C.2       1 <0>         0.2325
     21 N4         -9.5531   -4.1648   -0.1548 N.2       1 <0>        -0.3275
     22 N5         -8.4226   -4.4484    0.3846 N.2       1 <0>        -0.0301
     23 N6         -7.5377   -3.5719    0.0510 N.2       1 <0>        -0.0760
     24 N7          3.8551    1.5458    0.5667 N.pl3     1 <0>        -0.6277
     25 C16         5.0420    0.6961    0.7339 C.3       1 <0>         0.1195
     26 C17         6.0779    1.0819   -0.3268 C.3       1 <0>        -0.1379
     27 C18         6.3614    2.5830   -0.2350 C.3       1 <0>        -0.1195
     28 C19         5.0747    3.3646   -0.5097 C.3       1 <0>        -0.1379
     29 C20         4.0282    3.0046    0.5428 C.3       1 <0>         0.1197
     30 H1         -0.6676    1.8607    0.2060 H         1 <0>         0.1302
     31 H2          1.5667    2.8628    0.4474 H         1 <0>         0.1265
     32 H3          3.3223   -1.0358    0.3752 H         1 <0>         0.1280
     33 H4          1.0881   -2.0370    0.1290 H         1 <0>         0.1254
     34 H5         -1.3991   -1.5751    0.4252 H         1 <0>         0.4118
     35 H6         -3.5353   -1.6369   -1.1772 H         1 <0>         0.1000
     36 H7         -3.9639   -0.6738    0.2570 H         1 <0>         0.1013
     37 H8         -4.0074    1.0233   -2.0001 H         1 <0>         0.4210
     38 H9         -5.6752   -1.8376   -0.5655 H         1 <0>         0.1498
     39 H10        -9.4593   -0.9152   -2.3265 H         1 <0>         0.1438
     40 H11        -8.4835    1.0789   -3.3866 H         1 <0>         0.1541
     41 H12       -10.2583   -2.6077   -1.4308 H         1 <0>         0.2419
     42 H13         5.4629    0.8478    1.7279 H         1 <0>         0.0625
     43 H14         4.7631   -0.3501    0.6087 H         1 <0>         0.0831
     44 H15         6.9996    0.5263   -0.1541 H         1 <0>         0.0735
     45 H16         5.6898    0.8448   -1.3174 H         1 <0>         0.0664
     46 H17         6.7260    2.8233    0.7638 H         1 <0>         0.0635
     47 H18         7.1164    2.8557   -0.9723 H         1 <0>         0.0648
     48 H19         5.2824    4.4338   -0.4672 H         1 <0>         0.0741
     49 H20         4.6961    3.1061   -1.4986 H         1 <0>         0.0662
     50 H21         3.0806    3.4810    0.2916 H         1 <0>         0.0828
     51 H22         4.3646    3.3487    1.5208 H         1 <0>         0.0619
@<TRIPOS>BOND
     1    1    6 ar
     2    1    2 ar
     3    1   30 1
     4    2    3 ar
     5    2   31 1
     6    3    4 ar
     7    3   24 1
     8    4    5 ar
     9    4   32 1
    10    5    6 ar
    11    5   33 1
    12    6    7 1
    13    7    8 am
    14    7   34 1
    15    8    9 2
    16    8   10 1
    17   10   11 1
    18   10   35 1
    19   10   36 1
    20   11   12 1
    21   11   37 1
    22   12   17 ar
    23   12   13 ar
    24   13   14 ar
    25   13   38 1
    26   14   15 ar
    27   14   19 1
    28   15   16 ar
    29   15   39 1
    30   16   17 ar
    31   16   40 1
    32   17   18 1
    33   19   23 1
    34   19   20 1
    35   20   21 2
    36   20   41 1
    37   21   22 1
    38   22   23 2
    39   24   29 1
    40   24   25 1
    41   25   26 1
    42   25   42 1
    43   25   43 1
    44   26   27 1
    45   26   44 1
    46   26   45 1
    47   27   28 1
    48   27   46 1
    49   27   47 1
    50   28   29 1
    51   28   48 1
    52   28   49 1
    53   29   50 1
    54   29   51 1
@<TRIPOS>MOLECULE
ZINC09274044
   39    42     0     0     0
SMALL
USER_CHARGES
2-(m-tolylamino)-3-(3-oxo-5-oxa-2-azabicyclo[4.4.0]deca-7,9,11-trien-8-yl)-cyclobut-2-ene-1,4-dione
@<TRIPOS>ATOM
      1 C1          1.5847    3.2961   -0.5224 C.3       1 <0>        -0.1180
      2 C2          1.3574    1.9212    0.0512 C.ar      1 <0>        -0.0597
      3 C3          2.3175    1.3436    0.8622 C.ar      1 <0>        -0.1266
      4 C4          2.1129    0.0823    1.3905 C.ar      1 <0>        -0.0837
      5 C5          0.9484   -0.6053    1.1098 C.ar      1 <0>        -0.1342
      6 C6         -0.0179   -0.0282    0.2957 C.ar      1 <0>         0.1314
      7 C7          0.1909    1.2395   -0.2335 C.ar      1 <0>        -0.1386
      8 N1         -1.1973   -0.7206    0.0101 N.pl3     1 <0>        -0.6025
      9 C8         -1.1803   -2.0848   -0.1007 C.2       1 <0>         0.1544
     10 C9         -2.1707   -3.0668   -0.2133 C.2       1 <0>        -0.1819
     11 C10        -1.1649   -4.1337   -0.2675 C.2       1 <0>         0.3700
     12 O1         -1.1851   -5.3457   -0.3670 O.2       1 <0>        -0.3951
     13 C11        -0.1138   -3.0956   -0.1549 C.2       1 <0>         0.3432
     14 O2          1.1015   -3.0844   -0.1220 O.2       1 <0>        -0.3675
     15 C12        -3.6424   -3.0400   -0.2600 C.ar      1 <0>         0.0018
     16 C13        -4.3238   -1.8202   -0.1836 C.ar      1 <0>        -0.0986
     17 C14        -5.7006   -1.7954   -0.2283 C.ar      1 <0>        -0.1159
     18 C15        -6.4136   -2.9807   -0.3491 C.ar      1 <0>         0.1009
     19 C16        -5.7400   -4.2024   -0.4250 C.ar      1 <0>         0.0858
     20 C17        -4.3615   -4.2342   -0.3867 C.ar      1 <0>        -0.0853
     21 O3         -6.4549   -5.3539   -0.5412 O.3       1 <0>        -0.2972
     22 C18        -7.7284   -5.3871    0.1085 C.3       1 <0>         0.0498
     23 C19        -8.4856   -4.1201   -0.1980 C.2       1 <0>         0.4903
     24 O4         -9.6965   -4.1361   -0.2653 O.2       1 <0>        -0.5039
     25 N2         -7.8110   -2.9673   -0.3976 N.am      1 <0>        -0.6588
     26 H1          1.1935    4.0459    0.1653 H         1 <0>         0.0752
     27 H2          2.6530    3.4575   -0.6665 H         1 <0>         0.0716
     28 H3          1.0721    3.3794   -1.4807 H         1 <0>         0.0689
     29 H4          3.2290    1.8790    1.0833 H         1 <0>         0.1290
     30 H5          2.8648   -0.3659    2.0231 H         1 <0>         0.1322
     31 H6          0.7891   -1.5903    1.5231 H         1 <0>         0.1240
     32 H7         -0.5564    1.6892   -0.8705 H         1 <0>         0.1299
     33 H8         -2.0282   -0.2346   -0.1097 H         1 <0>         0.4217
     34 H9         -3.7701   -0.8977   -0.0899 H         1 <0>         0.1236
     35 H10        -6.2255   -0.8534   -0.1697 H         1 <0>         0.1401
     36 H11        -3.8391   -5.1773   -0.4501 H         1 <0>         0.1515
     37 H12        -8.2966   -6.2453   -0.2504 H         1 <0>         0.1501
     38 H13        -7.5843   -5.4723    1.1855 H         1 <0>         0.1041
     39 H14        -8.2892   -2.1417   -0.5726 H         1 <0>         0.4181
@<TRIPOS>BOND
     1    1    2 1
     2    1   26 1
     3    1   27 1
     4    1   28 1
     5    2    7 ar
     6    2    3 ar
     7    3    4 ar
     8    3   29 1
     9    4    5 ar
    10    4   30 1
    11    5    6 ar
    12    5   31 1
    13    6    7 ar
    14    6    8 1
    15    7   32 1
    16    8    9 1
    17    8   33 1
    18    9   13 1
    19    9   10 2
    20   10   11 1
    21   10   15 1
    22   11   12 2
    23   11   13 1
    24   13   14 2
    25   15   20 ar
    26   15   16 ar
    27   16   17 ar
    28   16   34 1
    29   17   18 ar
    30   17   35 1
    31   18   25 1
    32   18   19 ar
    33   19   20 ar
    34   19   21 1
    35   20   36 1
    36   21   22 1
    37   22   23 1
    38   22   37 1
    39   22   38 1
    40   23   24 2
    41   23   25 am
    42   25   39 1
@<TRIPOS>MOLECULE
ZINC36357388
   37    40     0     0     0
SMALL
USER_CHARGES

@<TRIPOS>ATOM
      1 C1          0.0099    1.3489   -0.5241 C.ar      1 <0>        -0.1275
      2 C2          0.2097    0.2741    0.3227 C.ar      1 <0>        -0.1007
      3 C3          1.4067   -0.4142    0.2968 C.ar      1 <0>        -0.0964
      4 C4          2.4105   -0.0259   -0.5810 C.ar      1 <0>         0.1485
      5 C5          2.2066    1.0541   -1.4303 C.ar      1 <0>        -0.1399
      6 C6          1.0073    1.7381   -1.3993 C.ar      1 <0>        -0.1040
      7 N1          3.6241   -0.7205   -0.6095 N.pl3     1 <0>        -0.6402
      8 C7          3.6469   -2.0718   -0.3721 C.2       1 <0>         0.6531
      9 N2          4.8567   -2.6971   -0.2968 N.am      1 <0>        -0.6660
     10 H1          5.6727   -2.1851   -0.4103 H         1 <0>         0.4168
     11 C8          4.9239   -4.0292   -0.0641 C.2       1 <0>         0.5721
     12 O1          5.9941   -4.6052    0.0069 O.2       1 <0>        -0.4768
     13 C9          3.6585   -4.7512    0.0997 C.ar      1 <0>        -0.2571
     14 C10         3.6159   -6.1344    0.3451 C.ar      1 <0>         0.0959
     15 C11         2.3613   -6.7293    0.4866 C.ar      1 <0>        -0.2001
     16 C12         1.2227   -5.9485    0.3818 C.ar      1 <0>         0.1768
     17 N3          1.2861   -4.6539    0.1510 N.ar      1 <0>        -0.4821
     18 C13         2.4502   -4.0243    0.0065 C.ar      1 <0>         0.4034
     19 N4          2.5059   -2.6979   -0.2234 N.2       1 <0>        -0.5609
     20 C14         4.8599   -6.9335    0.4496 C.ar      1 <0>         0.1555
     21 C15         5.0567   -8.0202   -0.4006 C.ar      1 <0>        -0.1505
     22 C16         6.2237   -8.7571   -0.2911 C.ar      1 <0>        -0.0765
     23 C17         7.1559   -8.3826    0.6657 C.ar      1 <0>        -0.1648
     24 C18         6.8953   -7.2924    1.4768 C.ar      1 <0>         0.1069
     25 N5          5.7794   -6.6052    1.3481 N.ar      1 <0>        -0.4394
     26 H2         -0.9288    1.8827   -0.5051 H         1 <0>         0.1240
     27 H3         -0.5711   -0.0272    1.0054 H         1 <0>         0.1272
     28 H4          1.5623   -1.2533    0.9587 H         1 <0>         0.1406
     29 H5          2.9853    1.3588   -2.1138 H         1 <0>         0.1245
     30 H6          0.8481    2.5780   -2.0594 H         1 <0>         0.1269
     31 H7          4.4496   -0.2470   -0.7970 H         1 <0>         0.4228
     32 H8          2.2794   -7.7894    0.6758 H         1 <0>         0.1475
     33 H9          0.2549   -6.4148    0.4923 H         1 <0>         0.1730
     34 H10         4.3093   -8.2839   -1.1343 H         1 <0>         0.1358
     35 H11         6.4041   -9.6046   -0.9358 H         1 <0>         0.1380
     36 H12         8.0761   -8.9370    0.7766 H         1 <0>         0.1367
     37 H13         7.6188   -6.9985    2.2228 H         1 <0>         0.1568
@<TRIPOS>BOND
     1    1    6 ar
     2    1    2 ar
     3    1   26 1
     4    2    3 ar
     5    2   27 1
     6    3    4 ar
     7    3   28 1
     8    4    5 ar
     9    4    7 1
    10    5    6 ar
    11    5   29 1
    12    6   30 1
    13    7    8 1
    14    7   31 1
    15    8   19 2
    16    8    9 1
    17    9   10 1
    18    9   11 am
    19   11   12 2
    20   11   13 1
    21   13   18 ar
    22   13   14 ar
    23   14   15 ar
    24   14   20 1
    25   15   16 ar
    26   15   32 1
    27   16   17 ar
    28   16   33 1
    29   17   18 ar
    30   18   19 1
    31   20   25 ar
    32   20   21 ar
    33   21   22 ar
    34   21   34 1
    35   22   23 ar
    36   22   35 1
    37   23   24 ar
    38   23   36 1
    39   24   25 ar
    40   24   37 1
@<TRIPOS>MOLECULE
ZINC44458561
   44    47     0     0     0
SMALL
USER_CHARGES

@<TRIPOS>ATOM
      1 C1         -0.0190    1.3644    0.0040 C.ar      1 <0>        -0.1070
      2 C2          1.1539    2.1057   -0.0049 C.ar      1 <0>        -0.1025
      3 C3          2.3703    1.4485   -0.0205 C.ar      1 <0>        -0.0602
      4 C4          2.3989    0.0762   -0.0269 C.ar      1 <0>        -0.1804
      5 C5          1.2252   -0.7115   -0.0182 C.ar      1 <0>         0.0999
      6 C6         -0.0002   -0.0057   -0.0024 C.ar      1 <0>        -0.0686
      7 N1          1.4176   -2.0482   -0.0262 N.2       1 <0>        -0.5418
      8 C7          2.6137   -2.5888   -0.0411 C.2       1 <0>         0.3563
      9 S1          3.6801   -1.1546   -0.0458 S.3       1 <0>         0.0977
     10 N2          2.9610   -3.9299   -0.0503 N.am      1 <0>        -0.6104
     11 C8          4.2598   -4.2896   -0.0655 C.2       1 <0>         0.5258
     12 O1          5.1244   -3.4392   -0.0711 O.2       1 <0>        -0.4847
     13 C9          4.6377   -5.7484   -0.0755 C.3       1 <0>        -0.1144
     14 H1          4.2222   -6.2257   -0.9630 H         1 <0>         0.1153
     15 C10         6.1622   -5.8811   -0.0906 C.3       1 <0>        -0.1022
     16 C11         6.5467   -7.3618   -0.1339 C.3       1 <0>        -0.1350
     17 C12         6.0129   -8.0607    1.1204 C.3       1 <0>         0.1072
     18 N3          4.5677   -7.8152    1.2197 N.am      1 <0>        -0.6271
     19 C13         4.0815   -6.4293    1.1790 C.3       1 <0>         0.1371
     20 C14         3.7038   -8.8420    1.3454 C.2       1 <0>         0.7135
     21 O2          2.5204   -8.6231    1.5186 O.2       1 <0>        -0.5820
     22 N4          4.1516  -10.1115    1.2791 N.am      1 <0>        -0.7158
     23 C15         3.2009  -11.2258    1.3038 C.3       1 <0>         0.0967
     24 C16         3.5451  -12.4287    2.1845 C.3       1 <0>        -0.1942
     25 C17         3.6400  -12.5434    0.6617 C.3       1 <0>        -0.1894
     26 H2         -0.9683    1.8790    0.0208 H         1 <0>         0.1344
     27 H3          1.1171    3.1851   -0.0001 H         1 <0>         0.1384
     28 H4          3.2920    2.0113   -0.0280 H         1 <0>         0.1332
     29 H5         -0.9315   -0.5526    0.0052 H         1 <0>         0.1323
     30 H6          2.2695   -4.6101   -0.0458 H         1 <0>         0.4300
     31 H7          6.5620   -5.3762   -0.9700 H         1 <0>         0.0817
     32 H8          6.5753   -5.4248    0.8090 H         1 <0>         0.0792
     33 H9          6.1132   -7.8244   -1.0205 H         1 <0>         0.0722
     34 H10         7.6322   -7.4549   -0.1682 H         1 <0>         0.0872
     35 H11         6.1973   -9.1326    1.0479 H         1 <0>         0.0800
     36 H12         6.5130   -7.6607    2.0024 H         1 <0>         0.0771
     37 H13         4.4237   -5.8963    2.0661 H         1 <0>         0.0781
     38 H14         2.9921   -6.4245    1.1448 H         1 <0>         0.1023
     39 H15         5.1034  -10.2873    1.2150 H         1 <0>         0.3974
     40 H16         2.1501  -10.9493    1.2173 H         1 <0>         0.1397
     41 H17         4.4789  -12.3909    2.7455 H         1 <0>         0.0965
     42 H18         2.7207  -12.9437    2.6776 H         1 <0>         0.1041
     43 H19         2.8779  -13.1338    0.1531 H         1 <0>         0.1056
     44 H20         4.6361  -12.5810    0.2209 H         1 <0>         0.0967
@<TRIPOS>BOND
     1    1    6 ar
     2    1    2 ar
     3    1   26 1
     4    2    3 ar
     5    2   27 1
     6    3    4 ar
     7    3   28 1
     8    4    9 1
     9    4    5 ar
    10    5    6 ar
    11    5    7 1
    12    6   29 1
    13    7    8 2
    14    8    9 1
    15    8   10 1
    16   10   11 am
    17   10   30 1
    18   11   12 2
    19   11   13 1
    20   13   14 1
    21   13   19 1
    22   13   15 1
    23   15   16 1
    24   15   31 1
    25   15   32 1
    26   16   17 1
    27   16   33 1
    28   16   34 1
    29   17   18 1
    30   17   35 1
    31   17   36 1
    32   18   19 1
    33   18   20 am
    34   19   37 1
    35   19   38 1
    36   20   21 2
    37   20   22 am
    38   22   23 1
    39   22   39 1
    40   23   25 1
    41   23   24 1
    42   23   40 1
    43   24   25 1
    44   24   41 1
    45   24   42 1
    46   25   43 1
    47   25   44 1
@<TRIPOS>MOLECULE
ZINC57343745
   36    39     0     0     0
SMALL
USER_CHARGES

@<TRIPOS>ATOM
      1 C1          0.1753    1.4072   -1.9228 C.ar      1 <0>        -0.0978
      2 C2          1.3006    2.1123   -1.5349 C.ar      1 <0>        -0.1257
      3 C3          2.4687    1.4420   -1.2347 C.ar      1 <0>        -0.0762
      4 C4          2.5133    0.0508   -1.3226 C.ar      1 <0>        -0.0588
      5 C5          1.3754   -0.6545   -1.7138 C.ar      1 <0>        -0.0875
      6 C6          0.2133    0.0271   -2.0118 C.ar      1 <0>        -0.1228
      7 C7          3.7645   -0.6749   -1.0022 C.2       1 <0>         0.2419
      8 C8          3.7590   -2.0409   -0.9371 C.2       1 <0>        -0.2154
      9 C9          4.9689   -2.7095   -0.6294 C.2       1 <0>         0.3369
     10 N1          5.2815   -3.9745   -0.4968 N.2       1 <0>        -0.2718
     11 N2          6.6460   -4.0502   -0.1827 N.am      1 <0>        -0.5235
     12 H1          7.1538   -4.8620   -0.0280 H         1 <0>         0.4662
     13 C10         7.1254   -2.7892   -0.1349 C.2       1 <0>         0.6536
     14 O1          8.2746   -2.4678    0.1110 O.2       1 <0>        -0.5343
     15 N3          6.1086   -1.9495   -0.4070 N.am      1 <0>        -0.5267
     16 C11         6.0300   -0.5804   -0.4907 C.2       1 <0>         0.6638
     17 N4          4.9001    0.0153   -0.7827 N.2       1 <0>        -0.5579
     18 N5          7.1551    0.1754   -0.2714 N.pl3     1 <0>        -0.6202
     19 C12         7.0685    1.5735   -0.2606 C.ar      1 <0>         0.1139
     20 C13         5.8477    2.1927   -0.0305 C.ar      1 <0>        -0.0766
     21 C14         5.7642    3.5716   -0.0197 C.ar      1 <0>        -0.1398
     22 C15         6.8970    4.3373   -0.2387 C.ar      1 <0>         0.1194
     23 C16         8.1166    3.7235   -0.4690 C.ar      1 <0>        -0.1679
     24 C17         8.2065    2.3434   -0.4746 C.ar      1 <0>         0.1069
     25 F1          9.3973    1.7441   -0.6933 F         1 <0>        -0.1255
     26 F2          6.8120    5.6856   -0.2279 F         1 <0>        -0.1277
     27 H2         -0.7379    1.9360   -2.1527 H         1 <0>         0.1267
     28 H3          1.2648    3.1896   -1.4672 H         1 <0>         0.1290
     29 H4          3.3468    1.9936   -0.9327 H         1 <0>         0.1350
     30 H5          1.4040   -1.7318   -1.7841 H         1 <0>         0.1323
     31 H6         -0.6685   -0.5178   -2.3149 H         1 <0>         0.1300
     32 H7          2.8513   -2.5979   -1.1162 H         1 <0>         0.1696
     33 H8          8.0099   -0.2587   -0.1240 H         1 <0>         0.4391
     34 H9          4.9632    1.5966    0.1396 H         1 <0>         0.1840
     35 H10         4.8142    4.0530    0.1593 H         1 <0>         0.1509
     36 H11         8.9987    4.3226   -0.6398 H         1 <0>         0.1567
@<TRIPOS>BOND
     1    1    6 ar
     2    1    2 ar
     3    1   27 1
     4    2    3 ar
     5    2   28 1
     6    3    4 ar
     7    3   29 1
     8    4    5 ar
     9    4    7 1
    10    5    6 ar
    11    5   30 1
    12    6   31 1
    13    7   17 1
    14    7    8 2
    15    8    9 1
    16    8   32 1
    17    9   15 1
    18    9   10 2
    19   10   11 1
    20   11   12 1
    21   11   13 am
    22   13   14 2
    23   13   15 am
    24   15   16 1
    25   16   17 2
    26   16   18 1
    27   18   19 1
    28   18   33 1
    29   19   24 ar
    30   19   20 ar
    31   20   21 ar
    32   20   34 1
    33   21   22 ar
    34   21   35 1
    35   22   23 ar
    36   22   26 1
    37   23   24 ar
    38   23   36 1
    39   24   25 1
@<TRIPOS>MOLECULE
ZINC09015937
   49    52     0     0     0
SMALL
USER_CHARGES

@<TRIPOS>ATOM
      1 C1         -0.0187    1.5258    0.0104 C.3       1 <0>        -0.1545
      2 C2          0.0021   -0.0041    0.0020 C.3       1 <0>        -0.0858
      3 H1         -1.0205   -0.3814    0.0098 H         1 <0>         0.0741
      4 C3          0.7182   -0.4975   -1.2568 C.3       1 <0>        -0.1183
      5 C4          2.1536    0.0321   -1.2676 C.3       1 <0>        -0.1199
      6 C5          2.8936   -0.4747   -0.0281 C.3       1 <0>        -0.1160
      7 C6          2.1775    0.0187    1.2307 C.3       1 <0>         0.0969
      8 H2          2.1627    1.1086    1.2367 H         1 <0>         0.0526
      9 C7          0.7421   -0.5109    1.2415 C.3       1 <0>        -0.0812
     10 H3          0.2319   -0.1594    2.1383 H         1 <0>         0.0698
     11 C8          0.7628   -2.0407    1.2331 C.3       1 <0>        -0.1444
     12 N1          2.8879   -0.4680    2.4208 N.3       1 <0>        -0.5594
     13 C9          2.1758   -0.0893    3.6517 C.3       1 <0>         0.2890
     14 N2          2.9174   -0.6189    4.8078 N.pl3     1 <0>        -0.7189
     15 C10         4.2775   -0.3820    4.8447 C.2       1 <0>         0.7020
     16 N3          4.9442   -0.5108    3.6420 N.pl3     1 <0>        -0.7346
     17 C11         4.2751    0.0226    2.4442 C.3       1 <0>         0.2828
     18 N4          4.9012   -0.0527    5.9595 N.2       1 <0>        -0.5621
     19 C12         6.2307    0.1692    5.9477 C.2       1 <0>         0.4773
     20 N5          7.0001    0.0910    4.8837 N.2       1 <0>        -0.5519
     21 C13         8.2779    0.3779    5.2488 C.ar      1 <0>         0.0494
     22 C14         9.4860    0.4450    4.5518 C.ar      1 <0>        -0.0793
     23 C15        10.6445    0.7710    5.2224 C.ar      1 <0>        -0.1130
     24 C16        10.6171    1.0319    6.5837 C.ar      1 <0>        -0.1083
     25 C17         9.4294    0.9686    7.2851 C.ar      1 <0>        -0.0841
     26 C18         8.2550    0.6433    6.6269 C.ar      1 <0>        -0.0032
     27 O1          6.9679    0.5097    7.0230 O.3       1 <0>        -0.2058
     28 H4          1.0039    1.9031    0.0027 H         1 <0>         0.0587
     29 H5         -0.5459    1.8868   -0.8726 H         1 <0>         0.0561
     30 H6         -0.5289    1.8773    0.9072 H         1 <0>         0.0530
     31 H7          0.7330   -1.5874   -1.2628 H         1 <0>         0.0678
     32 H8          0.1910   -0.1364   -2.1398 H         1 <0>         0.0626
     33 H9          2.6638   -0.3194   -2.1644 H         1 <0>         0.0658
     34 H10         2.1388    1.1220   -1.2617 H         1 <0>         0.0648
     35 H11         2.9084   -1.5646   -0.0341 H         1 <0>         0.0789
     36 H12         3.9162   -0.0975   -0.0359 H         1 <0>         0.0622
     37 H13         1.2730   -2.3923    0.3363 H         1 <0>         0.0609
     38 H14         1.2900   -2.4018    2.1162 H         1 <0>         0.0650
     39 H15        -0.2598   -2.4180    1.2409 H         1 <0>         0.0492
     40 H16         2.1176    0.9969    3.7210 H         1 <0>         0.0447
     41 H17         1.1710   -0.5114    3.6373 H         1 <0>         0.1106
     42 H18         2.4703   -1.1123    5.5131 H         1 <0>         0.4290
     43 H19         4.7985   -0.3180    1.5508 H         1 <0>         0.1038
     44 H20         4.2772    1.1121    2.4789 H         1 <0>         0.0418
     45 H21         9.5122    0.2418    3.4914 H         1 <0>         0.1320
     46 H22        11.5795    0.8232    4.6845 H         1 <0>         0.1349
     47 H23        11.5313    1.2862    7.0994 H         1 <0>         0.1387
     48 H24         9.4162    1.1725    8.3456 H         1 <0>         0.1334
     49 H25         5.8154   -0.9339    3.5890 H         1 <0>         0.4327
@<TRIPOS>BOND
     1    1    2 1
     2    1   28 1
     3    1   29 1
     4    1   30 1
     5    2    3 1
     6    2    9 1
     7    2    4 1
     8    4    5 1
     9    4   31 1
    10    4   32 1
    11    5    6 1
    12    5   33 1
    13    5   34 1
    14    6    7 1
    15    6   35 1
    16    6   36 1
    17    7    8 1
    18    7    9 1
    19    7   12 1
    20    9   10 1
    21    9   11 1
    22   11   37 1
    23   11   38 1
    24   11   39 1
    25   12   17 1
    26   12   13 1
    27   13   14 1
    28   13   40 1
    29   13   41 1
    30   14   15 1
    31   14   42 1
    32   15   16 1
    33   15   18 2
    34   16   17 1
    35   16   49 1
    36   17   43 1
    37   17   44 1
    38   18   19 1
    39   19   27 1
    40   19   20 2
    41   20   21 1
    42   21   26 ar
    43   21   22 ar
    44   22   23 ar
    45   22   45 1
    46   23   24 ar
    47   23   46 1
    48   24   25 ar
    49   24   47 1
    50   25   26 ar
    51   25   48 1
    52   26   27 1
@<TRIPOS>MOLECULE
ZINC05002496
   45    46     0     0     0
SMALL
USER_CHARGES
2-(2,6-dimethylphenyl)amino-N-[(2-nitrophenyl)methyleneamino]propanamide
@<TRIPOS>ATOM
      1 C1          2.8683    6.9530   -0.9350 C.3       1 <0>        -0.1219
      2 C2          3.2510    7.9128    0.1620 C.ar      1 <0>        -0.1181
      3 C3          3.2280    9.2738   -0.0711 C.ar      1 <0>        -0.1173
      4 C4          3.5844   10.1550    0.9332 C.ar      1 <0>        -0.1118
      5 C5          3.9598    9.6773    2.1755 C.ar      1 <0>        -0.1207
      6 C6          3.9799    8.3177    2.4169 C.ar      1 <0>        -0.0513
      7 C7          3.6225    7.4297    1.4103 C.ar      1 <0>         0.0831
      8 N1          3.6421    6.0540    1.6510 N.pl3     1 <0>        -0.6203
      9 C8          2.3093    5.4669    1.4592 C.3       1 <0>         0.0666
     10 H1          1.7984    5.9831    0.6464 H         1 <0>         0.0873
     11 C9          1.4969    5.6143    2.7474 C.3       1 <0>        -0.1409
     12 C10         2.4484    4.0058    1.1174 C.2       1 <0>         0.5250
     13 O1          3.5353    3.4703    1.1748 O.2       1 <0>        -0.4792
     14 N2          1.3652    3.2940    0.7480 N.am      1 <0>        -0.5959
     15 N3          1.5097    1.9648    0.3296 N.2       1 <0>        -0.1907
     16 C11         0.4854    1.3143   -0.1300 C.2       1 <0>         0.0967
     17 C12        -0.7768    2.0257   -0.4058 C.ar      1 <0>        -0.0335
     18 C13        -0.7594    3.3821   -0.7400 C.ar      1 <0>        -0.1374
     19 C14        -1.9432    4.0400   -1.0003 C.ar      1 <0>        -0.0572
     20 C15        -3.1471    3.3619   -0.9222 C.ar      1 <0>        -0.1052
     21 C16        -3.1723    2.0199   -0.5871 C.ar      1 <0>        -0.0450
     22 C17        -1.9956    1.3480   -0.3284 C.ar      1 <0>        -0.0230
     23 N4         -2.0245   -0.0880    0.0300 N.pl3     1 <0>         0.0275
     24 O2         -3.0712   -0.7084   -0.0251 O.2       1 <0>        -0.1427
     25 O3         -1.0016   -0.6491    0.3798 O.3       1 <0>        -0.1546
     26 C18         4.3886    7.7980    3.7712 C.3       1 <0>        -0.1103
     27 H2          1.7962    6.7613   -0.8925 H         1 <0>         0.0702
     28 H3          3.1218    7.3869   -1.9022 H         1 <0>         0.0751
     29 H4          3.4103    6.0164   -0.8038 H         1 <0>         0.0607
     30 H5          2.9353    9.6502   -1.0402 H         1 <0>         0.1215
     31 H6          3.5699   11.2187    0.7469 H         1 <0>         0.1239
     32 H7          4.2372   10.3682    2.9578 H         1 <0>         0.1260
     33 H8          4.3266    5.5948    1.0690 H         1 <0>         0.3659
     34 H9          1.3209    6.6713    2.9470 H         1 <0>         0.0748
     35 H10         0.5415    5.1017    2.6350 H         1 <0>         0.0588
     36 H11         2.0496    5.1748    3.5777 H         1 <0>         0.0765
     37 H12         0.4855    3.7021    0.7718 H         1 <0>         0.3912
     38 H13         0.5584    0.2527   -0.3149 H         1 <0>         0.2145
     39 H14         0.1791    3.9134   -0.7973 H         1 <0>         0.1522
     40 H15        -1.9310    5.0878   -1.2617 H         1 <0>         0.1518
     41 H16        -4.0714    3.8830   -1.1234 H         1 <0>         0.1555
     42 H17        -4.1155    1.4971   -0.5277 H         1 <0>         0.1621
     43 H18         5.4658    7.6316    3.7865 H         1 <0>         0.0702
     44 H19         4.1229    8.5279    4.5358 H         1 <0>         0.0602
     45 H20         3.8730    6.8587    3.9707 H         1 <0>         0.0799
@<TRIPOS>BOND
     1    1    2 1
     2    1   27 1
     3    1   28 1
     4    1   29 1
     5    2    7 ar
     6    2    3 ar
     7    3    4 ar
     8    3   30 1
     9    4    5 ar
    10    4   31 1
    11    5    6 ar
    12    5   32 1
    13    6    7 ar
    14    6   26 1
    15    7    8 1
    16    8    9 1
    17    8   33 1
    18    9   10 1
    19    9   11 1
    20    9   12 1
    21   11   34 1
    22   11   35 1
    23   11   36 1
    24   12   13 2
    25   12   14 am
    26   14   15 1
    27   14   37 1
    28   15   16 2
    29   16   17 1
    30   16   38 1
    31   17   22 ar
    32   17   18 ar
    33   18   19 ar
    34   18   39 1
    35   19   20 ar
    36   19   40 1
    37   20   21 ar
    38   20   41 1
    39   21   22 ar
    40   21   42 1
    41   22   23 1
    42   23   24 2
    43   23   25 1
    44   26   43 1
    45   26   44 1
    46   26   45 1
@<TRIPOS>MOLECULE
ZINC04832090
   46    48     0     0     0
SMALL
USER_CHARGES

@<TRIPOS>ATOM
      1 C1         -0.0187    1.5258    0.0104 C.3       1 <0>        -0.1548
      2 C2          0.0021   -0.0041    0.0020 C.3       1 <0>        -0.1232
      3 C3          0.7421   -0.5109    1.2415 C.3       1 <0>        -0.1163
      4 C4          0.7628   -2.0407    1.2331 C.3       1 <0>        -0.0469
      5 C5          1.4917   -2.5400    2.4540 C.2       1 <0>         0.3033
      6 N1          2.7715   -2.7661    2.5176 N.2       1 <0>        -0.4853
      7 C6          3.0931   -3.2065    3.7600 C.ar      1 <0>         0.0552
      8 C7          4.2909   -3.5905    4.3707 C.ar      1 <0>        -0.0853
      9 C8          4.2476   -3.9979    5.6961 C.ar      1 <0>         0.1560
     10 C9          3.0279   -4.0113    6.3677 C.ar      1 <0>         0.0856
     11 N2          1.9143   -3.6445    5.7688 N.ar      1 <0>        -0.4482
     12 C10         1.9023   -3.2479    4.5064 C.ar      1 <0>         0.1945
     13 N3          0.9083   -2.8143    3.6524 N.pl3     1 <0>        -0.4762
     14 C11        -0.5140   -2.6777    3.9758 C.3       1 <0>         0.1560
     15 C12        -1.2250   -3.9710    3.6711 C.ar      1 <0>        -0.1153
     16 C13        -1.7629   -4.1850    2.4156 C.ar      1 <0>        -0.0545
     17 C14        -2.4149   -5.3712    2.1361 C.ar      1 <0>        -0.1157
     18 C15        -2.5290   -6.3439    3.1120 C.ar      1 <0>        -0.0465
     19 C16        -1.9905   -6.1303    4.3669 C.ar      1 <0>        -0.0489
     20 C17        -1.3345   -4.9455    4.6451 C.ar      1 <0>        -0.0279
     21 N4         -2.1130   -7.1715    5.4118 N.pl3     1 <0>         0.0316
     22 O1         -2.6841   -8.2087    5.1676 O.2       1 <0>        -0.1555
     23 O2         -1.6420   -6.9846    6.5095 O.3       1 <0>        -0.1507
     24 N5          5.4194   -4.3925    6.3523 N.pl3     1 <0>        -0.8681
     25 C18         5.5919   -3.5630    3.6105 C.3       1 <0>        -0.0985
     26 H1          1.0039    1.9031    0.0027 H         1 <0>         0.0559
     27 H2         -0.5459    1.8868   -0.8726 H         1 <0>         0.0568
     28 H3         -0.5289    1.8773    0.9072 H         1 <0>         0.0538
     29 H4         -1.0205   -0.3814    0.0098 H         1 <0>         0.0630
     30 H5          0.5123   -0.3556   -0.8948 H         1 <0>         0.0674
     31 H6          1.7647   -0.1336    1.2338 H         1 <0>         0.0756
     32 H7          0.2319   -0.1594    2.1383 H         1 <0>         0.0634
     33 H8         -0.2598   -2.4180    1.2409 H         1 <0>         0.0821
     34 H9          1.2730   -2.3923    0.3363 H         1 <0>         0.1060
     35 H10         2.9947   -4.3289    7.3994 H         1 <0>         0.1647
     36 H11        -0.6250   -2.4427    5.0344 H         1 <0>         0.1114
     37 H12        -0.9471   -1.8755    3.3782 H         1 <0>         0.1108
     38 H13        -1.6738   -3.4252    1.6532 H         1 <0>         0.1447
     39 H14        -2.8357   -5.5381    1.1556 H         1 <0>         0.1529
     40 H15        -3.0391   -7.2705    2.8938 H         1 <0>         0.1567
     41 H16        -0.9105   -4.7801    5.6245 H         1 <0>         0.1585
     42 H17         6.2667   -4.3818    5.8802 H         1 <0>         0.4008
     43 H18         5.3842   -4.6766    7.2791 H         1 <0>         0.4025
     44 H19         6.0620   -2.5869    3.7300 H         1 <0>         0.0709
     45 H20         6.2556   -4.3358    3.9981 H         1 <0>         0.0620
     46 H21         5.3990   -3.7464    2.5535 H         1 <0>         0.0757
@<TRIPOS>BOND
     1    1    2 1
     2    1   26 1
     3    1   27 1
     4    1   28 1
     5    2    3 1
     6    2   29 1
     7    2   30 1
     8    3    4 1
     9    3   31 1
    10    3   32 1
    11    4    5 1
    12    4   33 1
    13    4   34 1
    14    5   13 1
    15    5    6 2
    16    6    7 1
    17    7   12 ar
    18    7    8 ar
    19    8    9 ar
    20    8   25 1
    21    9   10 ar
    22    9   24 1
    23   10   11 ar
    24   10   35 1
    25   11   12 ar
    26   12   13 1
    27   13   14 1
    28   14   15 1
    29   14   36 1
    30   14   37 1
    31   15   20 ar
    32   15   16 ar
    33   16   17 ar
    34   16   38 1
    35   17   18 ar
    36   17   39 1
    37   18   19 ar
    38   18   40 1
    39   19   20 ar
    40   19   21 1
    41   20   41 1
    42   21   22 2
    43   21   23 1
    44   24   42 1
    45   24   43 1
    46   25   44 1
    47   25   45 1
    48   25   46 1
@<TRIPOS>MOLECULE
ZINC40801842
   41    44     0     0     0
SMALL
USER_CHARGES

@<TRIPOS>ATOM
      1 C1          0.9010   -0.0440    1.1436 C.3       1 <0>        -0.1480
      2 C2         -0.0480   -0.0065   -0.0559 C.3       1 <0>        -0.0880
      3 C3          0.6692   -0.5144   -1.2800 C.ar      1 <0>        -0.0722
      4 C4          1.3636    0.3668   -2.0884 C.ar      1 <0>        -0.1037
      5 C5          2.0223   -0.0963   -3.2108 C.ar      1 <0>        -0.1085
      6 C6          1.9867   -1.4469   -3.5268 C.ar      1 <0>         0.0826
      7 C7          1.2892   -2.3290   -2.7140 C.ar      1 <0>        -0.1060
      8 C8          0.6366   -1.8615   -1.5898 C.ar      1 <0>        -0.1044
      9 O1          2.6335   -1.9049   -4.6307 O.3       1 <0>        -0.2413
     10 C9          3.9883   -1.9630   -4.5967 C.ar      1 <0>         0.3132
     11 C10         4.7120   -2.3128   -5.7390 C.ar      1 <0>         0.1439
     12 C11         6.1038   -2.3570   -5.6492 C.ar      1 <0>         0.3339
     13 N1          6.6838   -2.0666   -4.4882 N.ar      1 <0>        -0.4971
     14 C12         5.9637   -1.7414   -3.4345 C.ar      1 <0>         0.2988
     15 N2          4.6475   -1.6829   -3.4781 N.ar      1 <0>        -0.5145
     16 N3          6.8755   -2.7013   -6.7609 N.pl3     1 <0>        -0.3447
     17 C13         7.9946   -2.0438   -7.2222 C.ar      1 <0>         0.1097
     18 C14         8.6955   -0.9190   -6.8027 C.ar      1 <0>        -0.1104
     19 C15         9.8080   -0.5081   -7.5024 C.ar      1 <0>        -0.0610
     20 C16        10.2333   -1.2099   -8.6232 C.ar      1 <0>        -0.1283
     21 C17         9.5588   -2.3158   -9.0509 C.ar      1 <0>        -0.0325
     22 C18         8.4242   -2.7547   -8.3563 C.ar      1 <0>        -0.0195
     23 N4          7.5720   -3.7908   -8.5369 N.2       1 <0>        -0.1929
     24 N5          6.6666   -3.7878   -7.6231 N.2       1 <0>        -0.0038
     25 N6          4.0583   -2.6116   -6.9419 N.pl3     1 <0>        -0.8427
     26 H1          1.2303   -1.0689    1.3145 H         1 <0>         0.0568
     27 H2          1.7667    0.5868    0.9418 H         1 <0>         0.0569
     28 H3          0.3823    0.3234    2.0291 H         1 <0>         0.0600
     29 H4         -0.9137   -0.6373    0.1459 H         1 <0>         0.0746
     30 H5         -0.3773    1.0185   -0.2267 H         1 <0>         0.0745
     31 H6          1.3907    1.4180   -1.8421 H         1 <0>         0.1295
     32 H7          2.5642    0.5924   -3.8420 H         1 <0>         0.1245
     33 H8          1.2597   -3.3806   -2.9580 H         1 <0>         0.1303
     34 H9          0.0973   -2.5483   -0.9544 H         1 <0>         0.1313
     35 H10         6.4673   -1.5118   -2.5071 H         1 <0>         0.2126
     36 H11         8.3687   -0.3697   -5.9321 H         1 <0>         0.1361
     37 H12        10.3533    0.3658   -7.1779 H         1 <0>         0.1425
     38 H13        11.1075   -0.8760   -9.1622 H         1 <0>         0.1420
     39 H14         9.8993   -2.8526   -9.9240 H         1 <0>         0.1432
     40 H15         3.0955   -2.5137   -7.0080 H         1 <0>         0.4136
     41 H16         4.5686   -2.9162   -7.7085 H         1 <0>         0.4090
@<TRIPOS>BOND
     1    1    2 1
     2    1   26 1
     3    1   27 1
     4    1   28 1
     5    2    3 1
     6    2   29 1
     7    2   30 1
     8    3    8 ar
     9    3    4 ar
    10    4    5 ar
    11    4   31 1
    12    5    6 ar
    13    5   32 1
    14    6    7 ar
    15    6    9 1
    16    7    8 ar
    17    7   33 1
    18    8   34 1
    19    9   10 1
    20   10   15 ar
    21   10   11 ar
    22   11   12 ar
    23   11   25 1
    24   12   13 ar
    25   12   16 1
    26   13   14 ar
    27   14   15 ar
    28   14   35 1
    29   16   24 1
    30   16   17 1
    31   17   22 ar
    32   17   18 ar
    33   18   19 ar
    34   18   36 1
    35   19   20 ar
    36   19   37 1
    37   20   21 ar
    38   20   38 1
    39   21   22 ar
    40   21   39 1
    41   22   23 1
    42   23   24 2
    43   25   40 1
    44   25   41 1
@<TRIPOS>MOLECULE
ZINC52634848
   43    44     0     0     0
SMALL
USER_CHARGES

@<TRIPOS>ATOM
      1 C1         -0.0537    1.4900    0.0191 C.3       1 <0>        -0.1071
      2 C2         -0.0514   -0.0170    0.0161 C.ar      1 <0>        -0.1569
      3 C3         -0.0649   -0.7060   -1.1810 C.ar      1 <0>        -0.0737
      4 C4         -0.0634   -2.0886   -1.1846 C.ar      1 <0>        -0.1720
      5 C5         -0.0478   -2.7865    0.0094 C.ar      1 <0>        -0.0766
      6 C6         -0.0337   -2.1039    1.2097 C.ar      1 <0>        -0.1967
      7 C7         -0.0299   -0.7146    1.2169 C.ar      1 <0>         0.2162
      8 N1         -0.0105   -0.0210    2.4291 N.pl3     1 <0>        -0.7318
      9 C8          0.0121   -0.7585    3.6947 C.3       1 <0>         0.1381
     10 H1          0.6010   -1.6678    3.5749 H         1 <0>         0.1159
     11 C9         -1.4177   -1.1260    4.0964 C.3       1 <0>        -0.1699
     12 C10         0.6295    0.1022    4.7667 C.2       1 <0>         0.5189
     13 O1          1.0130    1.2216    4.4997 O.2       1 <0>        -0.5115
     14 N2          0.7557   -0.3718    6.0220 N.am      1 <0>        -0.6616
     15 C11         1.4134    0.3909    6.9961 C.ar      1 <0>         0.1813
     16 C12         1.2970    1.7747    6.9903 C.ar      1 <0>        -0.0832
     17 C13         1.9454    2.5257    7.9504 C.ar      1 <0>        -0.1352
     18 C14         2.7135    1.8982    8.9206 C.ar      1 <0>         0.1217
     19 C15         2.8302    0.5161    8.9269 C.ar      1 <0>        -0.0751
     20 C16         2.1771   -0.2367    7.9708 C.ar      1 <0>        -0.0396
     21 N3          2.2963   -1.7120    7.9816 N.pl3     1 <0>         0.0425
     22 O2          2.8797   -2.2647    8.8849 O.2       1 <0>        -0.1363
     23 O3          1.8102   -2.3644    7.0873 O.3       1 <0>        -0.1734
     24 O4          3.3525    2.6384    9.8653 O.3       1 <0>        -0.3054
     25 C17         3.1889    4.0564    9.7986 C.3       1 <0>         0.0220
     26 H2          0.9733    1.8549    0.0024 H         1 <0>         0.0662
     27 H3         -0.5831    1.8543   -0.8613 H         1 <0>         0.0675
     28 H4         -0.5529    1.8508    0.9184 H         1 <0>         0.0579
     29 H5         -0.0771   -0.1642   -2.1151 H         1 <0>         0.1212
     30 H6         -0.0747   -2.6250   -2.1220 H         1 <0>         0.1188
     31 H7         -0.0470   -3.8664    0.0030 H         1 <0>         0.1213
     32 H8         -0.0220   -2.6494    2.1417 H         1 <0>         0.1215
     33 H9         -0.0119    0.9490    2.4329 H         1 <0>         0.4088
     34 H10        -1.8643   -1.7486    3.3211 H         1 <0>         0.0818
     35 H11        -1.4009   -1.6747    5.0381 H         1 <0>         0.0717
     36 H12        -2.0066   -0.2167    4.2162 H         1 <0>         0.0673
     37 H13         0.3911   -1.2410    6.2511 H         1 <0>         0.4262
     38 H14         0.6997    2.2634    6.2347 H         1 <0>         0.1658
     39 H15         1.8550    3.6019    7.9460 H         1 <0>         0.1531
     40 H16         3.4282    0.0282    9.6824 H         1 <0>         0.1674
     41 H17         3.5603    4.4204    8.8406 H         1 <0>         0.0615
     42 H18         2.1322    4.3053    9.8968 H         1 <0>         0.0614
     43 H19         3.7493    4.5253   10.6074 H         1 <0>         0.1099
@<TRIPOS>BOND
     1    1    2 1
     2    1   26 1
     3    1   27 1
     4    1   28 1
     5    2    7 ar
     6    2    3 ar
     7    3    4 ar
     8    3   29 1
     9    4    5 ar
    10    4   30 1
    11    5    6 ar
    12    5   31 1
    13    6    7 ar
    14    6   32 1
    15    7    8 1
    16    8    9 1
    17    8   33 1
    18    9   10 1
    19    9   11 1
    20    9   12 1
    21   11   34 1
    22   11   35 1
    23   11   36 1
    24   12   13 2
    25   12   14 am
    26   14   15 1
    27   14   37 1
    28   15   20 ar
    29   15   16 ar
    30   16   17 ar
    31   16   38 1
    32   17   18 ar
    33   17   39 1
    34   18   19 ar
    35   18   24 1
    36   19   20 ar
    37   19   40 1
    38   20   21 1
    39   21   22 2
    40   21   23 1
    41   24   25 1
    42   25   41 1
    43   25   42 1
    44   25   43 1
@<TRIPOS>MOLECULE
ZINC39977021
   44    47     0     0     0
SMALL
USER_CHARGES

@<TRIPOS>ATOM
      1 C1         -0.0187    1.5258    0.0104 C.3       1 <0>        -0.1484
      2 C2          0.0021   -0.0041    0.0020 C.3       1 <0>        -0.0902
      3 C3          0.7421   -0.5109    1.2415 C.3       1 <0>        -0.1486
      4 C4         -1.4333   -0.5336    0.0129 C.3       1 <0>        -0.0531
      5 C5         -2.1247   -0.1373   -1.2662 C.2       1 <0>        -0.0111
      6 C6         -2.2177   -0.9122   -2.3489 C.2       1 <0>        -0.1663
      7 C7         -2.9937   -0.0633   -3.3404 C.3       1 <0>        -0.0819
      8 H1         -2.3946    0.1363   -4.2288 H         1 <0>         0.1451
      9 N1         -3.2416    1.1792   -2.5894 N.2       1 <0>        -0.1276
     10 N2         -2.7395    1.0488   -1.4704 N.2       1 <0>        -0.1542
     11 C8         -4.3110   -0.7427   -3.7198 C.3       1 <0>         0.3992
     12 H2         -4.9595   -0.8204   -2.8471 H         1 <0>         0.1280
     13 N3         -4.0497   -2.0877   -4.2855 N.3       1 <0>        -0.4819
     14 N4         -4.4772   -2.0405   -5.6942 N.3       1 <0>        -0.4502
     15 C9         -4.3844   -0.6031   -6.0205 C.3       1 <0>         0.2054
     16 H3         -3.3718   -0.2674   -6.2442 H         1 <0>         0.1085
     17 N5         -4.9882    0.0178   -4.7948 N.pl3     1 <0>        -0.5067
     18 N6         -5.9593    0.9567   -5.0682 N.2       1 <0>        -0.1876
     19 C10        -6.5299    1.0639   -6.2386 C.2       1 <0>         0.1595
     20 S1         -5.6206   -0.1198   -7.2819 S.3       1 <0>        -0.1478
     21 C11        -7.6364    1.9404   -6.6263 C.2       1 <0>        -0.0692
     22 C12        -8.1905    2.7722   -5.7163 C.2       1 <0>        -0.0144
     23 C13        -9.2965    3.6482   -6.1038 C.2       1 <0>        -0.0022
     24 C14        -9.9409    4.5364   -5.2893 C.2       1 <0>        -0.1694
     25 C15       -10.9288    5.1602   -6.0726 C.2       1 <0>        -0.2163
     26 C16       -10.8448    4.6330   -7.3115 C.2       1 <0>        -0.0218
     27 O1         -9.8549    3.7249   -7.3288 O.3       1 <0>        -0.1712
     28 H4          1.0039    1.9031    0.0027 H         1 <0>         0.0537
     29 H5         -0.5459    1.8868   -0.8726 H         1 <0>         0.0556
     30 H6         -0.5289    1.8773    0.9072 H         1 <0>         0.0602
     31 H7          0.5123   -0.3556   -0.8948 H         1 <0>         0.0680
     32 H8          0.2319   -0.1594    2.1383 H         1 <0>         0.0589
     33 H9          0.7568   -1.6008    1.2356 H         1 <0>         0.0562
     34 H10         1.7647   -0.1336    1.2338 H         1 <0>         0.0586
     35 H11        -1.4190   -1.6203    0.0965 H         1 <0>         0.0855
     36 H12        -1.9701   -0.1109    0.8621 H         1 <0>         0.0887
     37 H13        -1.8307   -1.9109   -2.4878 H         1 <0>         0.1776
     38 H14        -3.0723   -2.3272   -4.2121 H         1 <0>         0.3331
     39 H15        -3.8595   -2.5844   -6.2779 H         1 <0>         0.3526
     40 H16        -8.0101    1.9224   -7.6395 H         1 <0>         0.1529
     41 H17        -7.8169    2.7901   -4.7032 H         1 <0>         0.1572
     42 H18        -9.7323    4.7231   -4.2462 H         1 <0>         0.1551
     43 H19       -11.6240    5.9186   -5.7440 H         1 <0>         0.1534
     44 H20       -11.4677    4.9003   -8.1522 H         1 <0>         0.2072
@<TRIPOS>BOND
     1    1    2 1
     2    1   28 1
     3    1   29 1
     4    1   30 1
     5    2    3 1
     6    2    4 1
     7    2   31 1
     8    3   32 1
     9    3   33 1
    10    3   34 1
    11    4    5 1
    12    4   35 1
    13    4   36 1
    14    5   10 1
    15    5    6 2
    16    6    7 1
    17    6   37 1
    18    7    8 1
    19    7    9 1
    20    7   11 1
    21    9   10 2
    22   11   12 1
    23   11   17 1
    24   11   13 1
    25   13   14 1
    26   13   38 1
    27   14   15 1
    28   14   39 1
    29   15   16 1
    30   15   20 1
    31   15   17 1
    32   17   18 1
    33   18   19 2
    34   19   20 1
    35   19   21 1
    36   21   22 2
    37   21   40 1
    38   22   23 1
    39   22   41 1
    40   23   27 1
    41   23   24 2
    42   24   25 1
    43   24   42 1
    44   25   26 2
    45   25   43 1
    46   26   27 1
    47   26   44 1
@<TRIPOS>MOLECULE
ZINC66664623
   53    54     0     0     0
SMALL
USER_CHARGES

@<TRIPOS>ATOM
      1 C1         -0.0187    1.5258    0.0104 C.3       1 <0>        -0.1355
      2 C2          0.0021   -0.0041    0.0020 C.3       1 <0>         0.0139
      3 C3          0.7421   -0.5109    1.2415 C.3       1 <0>        -0.1373
      4 C4         -1.4333   -0.5336    0.0129 C.3       1 <0>        -0.1354
      5 C5          0.7074   -0.4901   -1.2379 C.2       1 <0>         0.0971
      6 C6          2.0880   -0.4716   -1.4542 C.2       1 <0>        -0.2712
      7 C7          2.3234   -0.9947   -2.6886 C.2       1 <0>         0.3073
      8 N1          1.1276   -1.3289   -3.2252 N.pl3     1 <0>        -0.3782
      9 N2          0.1325   -1.0067   -2.2936 N.2       1 <0>        -0.2794
     10 C8          0.9119   -1.9267   -4.5451 C.3       1 <0>         0.1770
     11 C9          1.6420   -3.2691   -4.6224 C.3       1 <0>        -0.1641
     12 C10        -0.5858   -2.1472   -4.7665 C.3       1 <0>        -0.1388
     13 C11         1.4543   -0.9882   -5.6249 C.3       1 <0>        -0.1625
     14 N3          3.5710   -1.1562   -3.2909 N.am      1 <0>        -0.6513
     15 C12         4.6882   -0.7778   -2.6388 C.2       1 <0>         0.5002
     16 O1          4.6086   -0.2967   -1.5282 O.2       1 <0>        -0.4902
     17 C13         6.0362   -0.9524   -3.2896 C.3       1 <0>         0.1195
     18 N4          7.0817   -0.4688   -2.3845 N.am      1 <0>        -0.6063
     19 C14         7.4932    0.9345   -2.4490 C.3       1 <0>         0.1144
     20 C15         7.9811    1.3795   -1.0662 C.3       1 <0>        -0.1539
     21 C16         9.0948    0.4296   -0.6129 C.3       1 <0>         0.1085
     22 N5          8.5964   -0.9463   -0.6480 N.am      1 <0>        -0.7339
     23 C17         7.6386   -1.3196   -1.5097 C.2       1 <0>         0.7176
     24 O2          7.2642   -2.4764   -1.5012 O.2       1 <0>        -0.5952
     25 H1          1.0039    1.9031    0.0027 H         1 <0>         0.0588
     26 H2         -0.5459    1.8868   -0.8726 H         1 <0>         0.0551
     27 H3         -0.5289    1.8773    0.9072 H         1 <0>         0.0627
     28 H4          0.2319   -0.1594    2.1383 H         1 <0>         0.0620
     29 H5          0.7568   -1.6008    1.2356 H         1 <0>         0.0557
     30 H6          1.7647   -0.1336    1.2338 H         1 <0>         0.0609
     31 H7         -1.9605   -0.1726   -0.8702 H         1 <0>         0.0601
     32 H8         -1.4185   -1.6235    0.0069 H         1 <0>         0.0555
     33 H9         -1.9435   -0.1821    0.9097 H         1 <0>         0.0575
     34 H10         2.8351   -0.1068   -0.7649 H         1 <0>         0.1679
     35 H11         1.2555   -3.9377   -3.8532 H         1 <0>         0.0702
     36 H12         1.4815   -3.7139   -5.6045 H         1 <0>         0.0844
     37 H13         2.7090   -3.1120   -4.4647 H         1 <0>         0.0563
     38 H14        -1.1059   -1.1909   -4.7114 H         1 <0>         0.0695
     39 H15        -0.7463   -2.5921   -5.7486 H         1 <0>         0.0722
     40 H16        -0.9723   -2.8158   -3.9972 H         1 <0>         0.0698
     41 H17         2.5214   -0.8311   -5.4672 H         1 <0>         0.0554
     42 H18         1.2938   -1.4331   -6.6070 H         1 <0>         0.0844
     43 H19         0.9342   -0.0319   -5.5698 H         1 <0>         0.0698
     44 H20         3.6346   -1.5410   -4.1790 H         1 <0>         0.4082
     45 H21         6.2017   -2.0081   -3.5048 H         1 <0>         0.1231
     46 H22         6.0677   -0.3829   -4.2184 H         1 <0>         0.1144
     47 H23         8.3006    1.0444   -3.1730 H         1 <0>         0.0704
     48 H24         6.6453    1.5492   -2.7514 H         1 <0>         0.0825
     49 H25         8.3687    2.3966   -1.1247 H         1 <0>         0.0986
     50 H26         7.1548    1.3401   -0.3564 H         1 <0>         0.0834
     51 H27         9.9496    0.5246   -1.2825 H         1 <0>         0.0668
     52 H28         9.3973    0.6816    0.4035 H         1 <0>         0.0854
     53 H29         8.9633   -1.6005   -0.0329 H         1 <0>         0.4167
@<TRIPOS>BOND
     1    1    2 1
     2    1   25 1
     3    1   26 1
     4    1   27 1
     5    2    3 1
     6    2    4 1
     7    2    5 1
     8    3   28 1
     9    3   29 1
    10    3   30 1
    11    4   31 1
    12    4   32 1
    13    4   33 1
    14    5    9 2
    15    5    6 1
    16    6    7 2
    17    6   34 1
    18    7    8 1
    19    7   14 1
    20    8    9 1
    21    8   10 1
    22   10   11 1
    23   10   12 1
    24   10   13 1
    25   11   35 1
    26   11   36 1
    27   11   37 1
    28   12   38 1
    29   12   39 1
    30   12   40 1
    31   13   41 1
    32   13   42 1
    33   13   43 1
    34   14   15 am
    35   14   44 1
    36   15   16 2
    37   15   17 1
    38   17   18 1
    39   17   45 1
    40   17   46 1
    41   18   23 am
    42   18   19 1
    43   19   20 1
    44   19   47 1
    45   19   48 1
    46   20   21 1
    47   20   49 1
    48   20   50 1
    49   21   22 1
    50   21   51 1
    51   21   52 1
    52   22   23 am
    53   22   53 1
    54   23   24 2
@<TRIPOS>MOLECULE
ZINC37731898
   38    39     0     0     0
SMALL
USER_CHARGES

@<TRIPOS>ATOM
      1 C1          0.0224    1.3012   -0.5597 C.3       1 <0>        -0.1478
      2 C2          0.0420   -0.2225   -0.4225 C.3       1 <0>        -0.0930
      3 C3         -1.3939   -0.7488   -0.3753 C.3       1 <0>        -0.1132
      4 C4         -1.3744   -2.2725   -0.2381 C.3       1 <0>        -0.1312
      5 C5         -0.6468   -2.6592    1.0510 C.3       1 <0>         0.1430
      6 C6          0.7891   -2.1330    1.0038 C.3       1 <0>        -0.1247
      7 C7          0.7695   -0.6092    0.8667 C.3       1 <0>        -0.1144
      8 N1         -0.6281   -4.1182    1.1824 N.pl3     1 <0>        -1.0112
      9 C8         -0.0621   -4.9428    0.1119 C.3       1 <0>         0.0840
     10 S1         -1.2468   -4.8353    2.5409 S.o2      1 <0>         2.7193
     11 O1         -0.5383   -6.0547    2.7149 O.2       1 <0>        -0.9377
     12 O2         -1.2928   -3.8309    3.5451 O.2       1 <0>        -0.9089
     13 C9         -2.9171   -5.2696    2.1860 C.2       1 <0>        -0.4727
     14 C10        -3.8837   -5.6272    3.1081 C.2       1 <0>        -0.1504
     15 C11        -5.0704   -5.8914    2.3852 C.2       1 <0>         0.0683
     16 N2         -4.8214   -5.7022    1.1193 N.2       1 <0>        -0.2800
     17 N3         -3.4868   -5.3085    0.9724 N.pl3     1 <0>        -0.4321
     18 H1         -3.0468   -5.1006    0.1333 H         1 <0>         0.4321
     19 C12        -3.7102   -5.7169    4.5653 C.2       1 <0>         0.5354
     20 O3         -4.6751   -5.9408    5.2836 O.co2     1 <0>        -0.6751
     21 O4         -2.6010   -5.5675    5.0596 O.co2     1 <0>        -0.6691
     22 H2          1.0454    1.6761   -0.5933 H         1 <0>         0.0532
     23 H3         -0.4959    1.5767   -1.4781 H         1 <0>         0.0524
     24 H4         -0.4961    1.7363    0.2947 H         1 <0>         0.0556
     25 H5          0.5605   -0.6576   -1.2769 H         1 <0>         0.0692
     26 H6         -1.9124   -0.3137    0.4790 H         1 <0>         0.0673
     27 H7         -1.9122   -0.4733   -1.2938 H         1 <0>         0.0650
     28 H8         -2.3973   -2.6474   -0.2045 H         1 <0>         0.0645
     29 H9         -0.8558   -2.7076   -1.0925 H         1 <0>         0.0707
     30 H10        -1.1653   -2.2241    1.9054 H         1 <0>         0.1055
     31 H11         1.3074   -2.4085    1.9223 H         1 <0>         0.0708
     32 H12         1.3076   -2.5681    0.1495 H         1 <0>         0.0676
     33 H13         1.7925   -0.2343    0.8330 H         1 <0>         0.0655
     34 H14         0.2510   -0.1741    1.7210 H         1 <0>         0.0681
     35 H15         1.0017   -5.0952    0.2945 H         1 <0>         0.0642
     36 H16        -0.5688   -5.9076    0.0900 H         1 <0>         0.0679
     37 H17        -0.1980   -4.4392   -0.8451 H         1 <0>         0.0752
     38 H18        -6.0165   -6.1965    2.8074 H         1 <0>         0.1966
@<TRIPOS>BOND
     1    1    2 1
     2    1   22 1
     3    1   23 1
     4    1   24 1
     5    2    7 1
     6    2    3 1
     7    2   25 1
     8    3    4 1
     9    3   26 1
    10    3   27 1
    11    4    5 1
    12    4   28 1
    13    4   29 1
    14    5    6 1
    15    5    8 1
    16    5   30 1
    17    6    7 1
    18    6   31 1
    19    6   32 1
    20    7   33 1
    21    7   34 1
    22    8    9 1
    23    8   10 1
    24    9   35 1
    25    9   36 1
    26    9   37 1
    27   10   11 2
    28   10   12 2
    29   10   13 1
    30   13   17 1
    31   13   14 2
    32   14   15 1
    33   14   19 1
    34   15   16 2
    35   15   38 1
    36   16   17 1
    37   17   18 1
    38   19   20 2
    39   19   21 1
@<TRIPOS>MOLECULE
ZINC41594499
   34    36     0     0     0
SMALL
USER_CHARGES

@<TRIPOS>ATOM
      1 C1         -0.0184    1.5028    0.0103 C.3       1 <0>        -0.0791
      2 C2          0.0021   -0.0041    0.0020 C.2       1 <0>         0.0552
      3 C3          0.0059   -0.7076   -1.1591 C.2       1 <0>        -0.2004
      4 S1          0.0324   -2.3789   -0.5312 S.3       1 <0>         0.1190
      5 C4          0.0357   -2.0088    1.1107 C.2       1 <0>         0.0398
      6 N1          0.0226   -0.6992    1.1217 N.2       1 <0>        -0.4937
      7 C5          0.0549   -2.9548    2.2837 C.3       1 <0>         0.2108
      8 N2         -1.3200   -3.2805    2.6709 N.pl3     1 <0>        -1.1176
      9 S2         -1.6159   -4.5669    3.6708 S.o2      1 <0>         2.7077
     10 O1         -3.0211   -4.6051    3.8784 O.2       1 <0>        -0.9620
     11 O2         -0.8941   -5.6693    3.1387 O.2       1 <0>        -0.9620
     12 C6         -0.8863   -4.1930    5.2305 C.ar      1 <0>        -0.7243
     13 C7          0.4283   -4.5561    5.4804 C.ar      1 <0>        -0.0206
     14 C8          1.0117   -4.2697    6.6950 C.ar      1 <0>        -0.1412
     15 C9          0.2738   -3.6102    7.6788 C.ar      1 <0>         0.1523
     16 C10        -1.0560   -3.2447    7.4219 C.ar      1 <0>        -0.0611
     17 C11        -1.6256   -3.5358    6.1928 C.ar      1 <0>         0.0315
     18 O3         -1.5055   -2.6322    8.5410 O.3       1 <0>        -0.2710
     19 C12        -0.5083   -2.6193    9.4417 C.2       1 <0>         0.5247
     20 O4         -0.5920   -2.0878   10.6818 O.3       1 <0>        -0.6291
     21 N3          0.5535   -3.1957    8.9451 N.2       1 <0>        -0.6059
     22 C13        -0.0083   -0.2146   -2.5831 C.3       1 <0>        -0.0621
     23 H1          1.0042    1.8801    0.0026 H         1 <0>         0.0742
     24 H2         -0.5455    1.8639   -0.8728 H         1 <0>         0.0731
     25 H3         -0.5286    1.8543    0.9071 H         1 <0>         0.0754
     26 H4          0.5801   -3.8684    2.0051 H         1 <0>         0.1073
     27 H5          0.5665   -2.4830    3.1226 H         1 <0>         0.1042
     28 H6         -2.0570   -2.7427    2.3415 H         1 <0>         0.4194
     29 H7          0.9983   -5.0667    4.7183 H         1 <0>         0.1353
     30 H8          2.0358   -4.5548    6.8852 H         1 <0>         0.1293
     31 H9         -2.6478   -3.2524    5.9896 H         1 <0>         0.1335
     32 H10         1.0159   -0.0814   -2.9317 H         1 <0>         0.0795
     33 H11        -0.5152   -0.9438   -3.2150 H         1 <0>         0.0745
     34 H12        -0.5357    0.7380   -2.6326 H         1 <0>         0.0833
@<TRIPOS>BOND
     1    1    2 1
     2    1   23 1
     3    1   24 1
     4    1   25 1
     5    2    6 1
     6    2    3 2
     7    3    4 1
     8    3   22 1
     9    4    5 1
    10    5    6 2
    11    5    7 1
    12    7    8 1
    13    7   26 1
    14    7   27 1
    15    8    9 1
    16    8   28 1
    17    9   10 2
    18    9   11 2
    19    9   12 1
    20   12   17 ar
    21   12   13 ar
    22   13   14 ar
    23   13   29 1
    24   14   15 ar
    25   14   30 1
    26   15   21 1
    27   15   16 ar
    28   16   17 ar
    29   16   18 1
    30   17   31 1
    31   18   19 1
    32   19   20 1
    33   19   21 2
    34   22   32 1
    35   22   33 1
    36   22   34 1
@<TRIPOS>MOLECULE
ZINC12321813
   35    37     0     0     0
SMALL
USER_CHARGES

@<TRIPOS>ATOM
      1 C1         -0.0167    1.3768   -0.0047 C.ar      1 <0>        -0.0907
      2 C2          1.1707    2.0859    0.0021 C.ar      1 <0>        -0.1106
      3 C3          2.3798    1.4154    0.0012 C.ar      1 <0>        -0.1566
      4 C4          2.4053    0.0343   -0.0064 C.ar      1 <0>        -0.1137
      5 C5          1.2150   -0.6806   -0.0132 C.ar      1 <0>         0.1836
      6 C6          0.0020   -0.0040   -0.0123 C.ar      1 <0>        -0.1308
      7 N1          1.2374   -2.0796   -0.0215 N.am      1 <0>        -0.5579
      8 C7          0.0443   -2.9276    0.0852 C.3       1 <0>         0.1131
      9 C8          0.4877   -4.3258   -0.3995 C.3       1 <0>        -0.0636
     10 H1         -0.0008   -5.1114    0.1768 H         1 <0>         0.1137
     11 C9          2.0067   -4.2919   -0.1124 C.3       1 <0>        -0.1360
     12 C10         2.3540   -2.8196   -0.1338 C.2       1 <0>         0.5390
     13 O1          3.4767   -2.3721   -0.2349 O.2       1 <0>        -0.5163
     14 C11         0.2202   -4.4958   -1.8728 C.2       1 <0>         0.4238
     15 O2         -0.9948   -4.8962   -2.2949 O.3       1 <0>        -0.6676
     16 N2          1.1634   -4.2556   -2.7378 N.2       1 <0>        -0.6574
     17 C12         0.9213   -4.4094   -4.0709 C.2       1 <0>         0.5168
     18 N3         -0.2180   -4.7933   -4.6160 N.2       1 <0>        -0.5607
     19 C13        -0.0908   -4.8327   -5.9405 C.2       1 <0>         0.1897
     20 N4          1.1238   -4.4774   -6.2676 N.2       1 <0>        -0.3757
     21 N5          1.8048   -4.1902   -5.0736 N.pl3     1 <0>        -0.5153
     22 C14         3.6712    2.1921    0.0081 C.3       1 <0>         0.5108
     23 F1          3.3910    3.5627    0.0147 F         1 <0>        -0.1795
     24 F2          4.4082    1.8613    1.1503 F         1 <0>        -0.1767
     25 F3          4.4133    1.8732   -1.1342 F         1 <0>        -0.1740
     26 H2         -0.9596    1.9034    0.0005 H         1 <0>         0.1369
     27 H3          1.1534    3.1657    0.0077 H         1 <0>         0.1356
     28 H4          3.3502   -0.4889   -0.0074 H         1 <0>         0.1659
     29 H5         -0.9255   -0.5572   -0.0173 H         1 <0>         0.1362
     30 H6         -0.2923   -2.9766    1.1207 H         1 <0>         0.0853
     31 H7         -0.7508   -2.5418   -0.5528 H         1 <0>         0.0901
     32 H8          2.2199   -4.7239    0.8653 H         1 <0>         0.1017
     33 H9          2.5542   -4.8214   -0.8921 H         1 <0>         0.1242
     34 H10        -0.8684   -5.1141   -6.6352 H         1 <0>         0.1927
     35 H11         2.7246   -3.8954   -4.9847 H         1 <0>         0.4242
@<TRIPOS>BOND
     1    1    6 ar
     2    1    2 ar
     3    1   26 1
     4    2    3 ar
     5    2   27 1
     6    3    4 ar
     7    3   22 1
     8    4    5 ar
     9    4   28 1
    10    5    6 ar
    11    5    7 1
    12    6   29 1
    13    7   12 am
    14    7    8 1
    15    8    9 1
    16    8   30 1
    17    8   31 1
    18    9   10 1
    19    9   11 1
    20    9   14 1
    21   11   12 1
    22   11   32 1
    23   11   33 1
    24   12   13 2
    25   14   15 1
    26   14   16 2
    27   16   17 1
    28   17   18 2
    29   17   21 1
    30   18   19 1
    31   19   34 1
    32   19   20 2
    33   20   21 1
    34   21   35 1
    35   22   23 1
    36   22   24 1
    37   22   25 1
@<TRIPOS>MOLECULE
ZINC62316282
   34    35     0     0     0
SMALL
USER_CHARGES

@<TRIPOS>ATOM
      1 C1         -0.0178    1.4608    0.0101 C.3       1 <0>         0.0891
      2 N1          0.0021   -0.0041    0.0020 N.am      1 <0>        -0.7354
      3 C2         -1.1558   -0.6938    0.0094 C.2       1 <0>         0.4949
      4 O1         -2.2142   -0.1017    0.0227 O.2       1 <0>        -0.5070
      5 C3         -1.1354   -2.2006    0.0011 C.3       1 <0>         0.1129
      6 N2         -2.5098   -2.7077    0.0115 N.pl3     1 <0>        -0.3672
      7 C4         -3.2660   -2.9905    1.1133 C.2       1 <0>         0.1132
      8 C5         -4.4982   -3.4429    0.6310 C.2       1 <0>        -0.0690
      9 N3         -4.4511   -3.4205   -0.7121 N.2       1 <0>        -0.1990
     10 N4         -3.3053   -2.9907   -1.1070 N.2       1 <0>        -0.0964
     11 C6         -5.6399   -3.8672    1.4464 C.2       1 <0>         0.5586
     12 O2         -5.5621   -3.8436    2.6682 O.co2     1 <0>        -0.6753
     13 O3         -6.6715   -4.2453    0.9059 O.co2     1 <0>        -0.6688
     14 C7         -2.8674   -2.8493    2.5143 C.2       1 <0>        -0.1130
     15 C8         -3.6669   -2.1939    3.3799 C.2       1 <0>        -0.0129
     16 C9         -3.2661   -2.0519    4.7888 C.ar      1 <0>        -0.0485
     17 C10        -2.0537   -2.5906    5.2318 C.ar      1 <0>        -0.0866
     18 C11        -1.6840   -2.4537    6.5523 C.ar      1 <0>        -0.1536
     19 C12        -2.5111   -1.7842    7.4412 C.ar      1 <0>         0.0869
     20 C13        -3.7145   -1.2482    7.0086 C.ar      1 <0>        -0.1521
     21 C14        -4.0931   -1.3727    5.6893 C.ar      1 <0>        -0.0694
     22 F1         -2.1431   -1.6538    8.7346 F         1 <0>        -0.1451
     23 H1          1.0048    1.8381    0.0023 H         1 <0>         0.0761
     24 H2         -0.5450    1.8219   -0.8730 H         1 <0>         0.0598
     25 H3         -0.5280    1.8123    0.9069 H         1 <0>         0.0607
     26 H4          0.8486   -0.4776   -0.0086 H         1 <0>         0.4024
     27 H5         -0.6252   -2.5521   -0.8957 H         1 <0>         0.1271
     28 H6         -0.6082   -2.5617    0.8841 H         1 <0>         0.1218
     29 H7         -1.9328   -3.2701    2.8548 H         1 <0>         0.1214
     30 H8         -4.6015   -1.7732    3.0394 H         1 <0>         0.1345
     31 H9         -1.4089   -3.1130    4.5406 H         1 <0>         0.1333
     32 H10        -0.7481   -2.8692    6.8957 H         1 <0>         0.1328
     33 H11        -4.3544   -0.7281    7.7060 H         1 <0>         0.1348
     34 H12        -5.0284   -0.9506    5.3525 H         1 <0>         0.1390
@<TRIPOS>BOND
     1    1    2 1
     2    1   23 1
     3    1   24 1
     4    1   25 1
     5    2    3 am
     6    2   26 1
     7    3    4 2
     8    3    5 1
     9    5    6 1
    10    5   27 1
    11    5   28 1
    12    6   10 1
    13    6    7 1
    14    7    8 2
    15    7   14 1
    16    8    9 1
    17    8   11 1
    18    9   10 2
    19   11   12 2
    20   11   13 1
    21   14   15 2
    22   14   29 1
    23   15   16 1
    24   15   30 1
    25   16   21 ar
    26   16   17 ar
    27   17   18 ar
    28   17   31 1
    29   18   19 ar
    30   18   32 1
    31   19   20 ar
    32   19   22 1
    33   20   21 ar
    34   20   33 1
    35   21   34 1
@<TRIPOS>MOLECULE
ZINC64923955
   40    42     0     0     0
SMALL
USER_CHARGES

@<TRIPOS>ATOM
      1 C1         -0.0187    1.5258    0.0104 C.3       1 <0>        -0.1433
      2 C2          0.0021   -0.0041    0.0020 C.3       1 <0>        -0.0348
      3 C3          0.7309   -0.5033    1.2229 C.2       1 <0>         0.2186
      4 N1          1.2372    0.2669    2.1136 N.2       1 <0>        -0.2697
      5 N2          1.8488   -0.4881    3.1252 N.pl3     1 <0>        -0.6566
      6 C4          1.6504   -1.8951    2.7339 C.3       1 <0>         0.3678
      7 H1          2.6103   -2.3878    2.5797 H         1 <0>         0.1266
      8 O1          0.9177   -1.8132    1.5021 O.3       1 <0>        -0.3201
      9 C5          0.8450   -2.6251    3.7776 C.2       1 <0>         0.1121
     10 N3          0.7419   -2.3227    5.0274 N.2       1 <0>        -0.4672
     11 C6         -0.0570   -3.1664    5.7218 C.2       1 <0>         0.1163
     12 C7         -0.5625   -4.1274    4.9561 C.2       1 <0>        -0.6759
     13 C8         -0.0119   -3.8585    3.5677 C.3       1 <0>        -0.0849
     14 S1         -1.6433   -5.4299    5.4460 S.o2      1 <0>         2.6169
     15 O2         -2.0457   -5.1443    6.7785 O.2       1 <0>        -1.0290
     16 O3         -2.5769   -5.6022    4.3886 O.2       1 <0>        -1.0281
     17 N4         -0.7408   -6.8168    5.5111 N.2       1 <0>        -1.0856
     18 C9         -1.3409   -8.0241    5.8759 C.ar      1 <0>         0.2795
     19 C10        -2.6962   -8.0644    6.1788 C.ar      1 <0>        -0.2634
     20 C11        -3.2865   -9.2597    6.5385 C.ar      1 <0>        -0.0722
     21 C12        -2.5300  -10.4160    6.5980 C.ar      1 <0>        -0.2238
     22 C13        -1.1808  -10.3794    6.2976 C.ar      1 <0>        -0.0819
     23 C14        -0.5854   -9.1882    5.9310 C.ar      1 <0>        -0.1551
     24 C15         0.8837   -9.1506    5.5974 C.3       1 <0>        -0.0779
     25 H2          1.0039    1.9031    0.0027 H         1 <0>         0.0637
     26 H3         -0.5459    1.8868   -0.8726 H         1 <0>         0.0670
     27 H4         -0.5289    1.8773    0.9072 H         1 <0>         0.0633
     28 H5         -1.0205   -0.3814    0.0098 H         1 <0>         0.0965
     29 H6          0.5123   -0.3556   -0.8948 H         1 <0>         0.0971
     30 H7          2.3054   -0.1553    3.9136 H         1 <0>         0.4526
     31 H8         -0.2601   -3.0696    6.7781 H         1 <0>         0.1723
     32 H9         -0.8185   -3.6529    2.8640 H         1 <0>         0.1311
     33 H10         0.5954   -4.6968    3.2262 H         1 <0>         0.1362
     34 H11        -3.2874   -7.1617    6.1332 H         1 <0>         0.0953
     35 H12        -4.3400   -9.2917    6.7741 H         1 <0>         0.1002
     36 H13        -2.9940  -11.3496    6.8800 H         1 <0>         0.1001
     37 H14        -0.5928  -11.2840    6.3457 H         1 <0>         0.1033
     38 H15         1.4571   -8.9526    6.5030 H         1 <0>         0.0456
     39 H16         1.1859  -10.1105    5.1786 H         1 <0>         0.0370
     40 H17         1.0708   -8.3614    4.8691 H         1 <0>         0.0703
@<TRIPOS>BOND
     1    1    2 1
     2    1   25 1
     3    1   26 1
     4    1   27 1
     5    2    3 1
     6    2   28 1
     7    2   29 1
     8    3    8 1
     9    3    4 2
    10    4    5 1
    11    5    6 1
    12    5   30 1
    13    6    7 1
    14    6    8 1
    15    6    9 1
    16    9   13 1
    17    9   10 2
    18   10   11 1
    19   11   12 2
    20   11   31 1
    21   12   13 1
    22   12   14 1
    23   13   32 1
    24   13   33 1
    25   14   15 2
    26   14   16 2
    27   14   17 1
    28   17   18 1
    29   18   23 ar
    30   18   19 ar
    31   19   20 ar
    32   19   34 1
    33   20   21 ar
    34   20   35 1
    35   21   22 ar
    36   21   36 1
    37   22   23 ar
    38   22   37 1
    39   23   24 1
    40   24   38 1
    41   24   39 1
    42   24   40 1
@<TRIPOS>MOLECULE
ZINC10864562
   27    28     0     0     0
SMALL
USER_CHARGES
3-(2-furyl)-5-isopropylsulfanyl-1,2,4-triazol-4-amine
@<TRIPOS>ATOM
      1 C1         -4.8230   -3.8564    1.4293 C.3       1 <0>        -0.1541
      2 C2         -5.1714   -3.5694   -0.0326 C.3       1 <0>        -0.0667
      3 C3         -6.6249   -3.9666   -0.2980 C.3       1 <0>        -0.1392
      4 S1         -4.9575   -1.8037   -0.3684 S.3       1 <0>        -0.0102
      5 C4         -3.2169   -1.6569   -0.1374 C.2       1 <0>         0.1323
      6 N1         -2.3900   -2.6246    0.1889 N.2       1 <0>        -0.2668
      7 N2         -1.1904   -2.1718    0.2746 N.2       1 <0>        -0.2474
      8 C5         -1.1768   -0.8841    0.0078 C.2       1 <0>         0.2917
      9 N3         -2.4767   -0.5143   -0.2594 N.pl3     1 <0>        -0.3024
     10 N4         -2.9307    0.7330   -0.5817 N.3       1 <0>        -0.5759
     11 C6          0.0021   -0.0041    0.0020 C.2       1 <0>         0.0388
     12 C7          1.3030   -0.4092   -0.0126 C.2       1 <0>        -0.1356
     13 C8          2.0910    0.7580   -0.0138 C.2       1 <0>        -0.2161
     14 C9          1.2446    1.8069   -0.0001 C.2       1 <0>        -0.0131
     15 O1         -0.0162    1.3435    0.0094 O.3       1 <0>        -0.1553
     16 H1         -4.9518   -4.9197    1.6315 H         1 <0>         0.0722
     17 H2         -3.7875   -3.5734    1.6184 H         1 <0>         0.0773
     18 H3         -5.4816   -3.2805    2.0795 H         1 <0>         0.0638
     19 H4         -4.5128   -4.1452   -0.6828 H         1 <0>         0.1071
     20 H5         -6.8730   -3.7622   -1.3395 H         1 <0>         0.0676
     21 H6         -6.7536   -5.0299   -0.0958 H         1 <0>         0.0844
     22 H7         -7.2834   -3.3908    0.3522 H         1 <0>         0.0678
     23 H8         -2.9163    0.8762   -1.5804 H         1 <0>         0.3694
     24 H9         -3.8544    0.8896   -0.2073 H         1 <0>         0.3786
     25 H10         1.6606   -1.4283   -0.0220 H         1 <0>         0.1616
     26 H11         3.1700    0.8039   -0.0239 H         1 <0>         0.1586
     27 H12         1.5325    2.8478    0.0024 H         1 <0>         0.2117
@<TRIPOS>BOND
     1    1    2 1
     2    1   16 1
     3    1   17 1
     4    1   18 1
     5    2    3 1
     6    2    4 1
     7    2   19 1
     8    3   20 1
     9    3   21 1
    10    3   22 1
    11    4    5 1
    12    5    9 1
    13    5    6 2
    14    6    7 1
    15    7    8 2
    16    8    9 1
    17    8   11 1
    18    9   10 1
    19   10   23 1
    20   10   24 1
    21   11   15 1
    22   11   12 2
    23   12   13 1
    24   12   25 1
    25   13   14 2
    26   13   26 1
    27   14   15 1
    28   14   27 1
@<TRIPOS>MOLECULE
ZINC36242600
   28    30     0     0     0
SMALL
USER_CHARGES

@<TRIPOS>ATOM
      1 C1         -2.0396    1.1694    1.0516 C.3       1 <0>        -0.1132
      2 C2         -1.6724   -0.2802    0.8644 C.2       1 <0>         0.0203
      3 C3         -2.3760   -1.0418   -0.0006 C.2       1 <0>        -0.0701
      4 C4         -2.0475   -2.3939   -0.1865 C.2       1 <0>        -0.2109
      5 C5         -1.0076   -2.9404    0.5138 C.2       1 <0>         0.2636
      6 C6         -0.2825   -2.1278    1.4142 C.2       1 <0>         0.1659
      7 N1         -0.6287   -0.8088    1.5666 N.pl3     1 <0>        -0.3496
      8 C7          0.2467   -0.2958    2.4847 C.2       1 <0>         0.1780
      9 N2          1.0595   -1.2725    2.8377 N.2       1 <0>        -0.2286
     10 N3          0.7469   -2.3547    2.2159 N.2       1 <0>        -0.2770
     11 C8          0.2761    1.0934    2.9866 C.ar      1 <0>        -0.0675
     12 C9          0.2006    1.3561    4.3602 C.ar      1 <0>        -0.0348
     13 C10         0.2327    2.6744    4.7782 C.ar      1 <0>        -0.1683
     14 C11         0.3373    3.6817    3.8353 C.ar      1 <0>         0.1135
     15 N4          0.4063    3.4047    2.5474 N.ar      1 <0>        -0.4787
     16 C12         0.3854    2.1662    2.1001 C.ar      1 <0>         0.1296
     17 N5         -0.6674   -4.2829    0.3418 N.pl3     1 <0>        -0.8477
     18 H1         -1.4169    1.7882    0.4056 H         1 <0>         0.0827
     19 H2         -3.0884    1.3148    0.7929 H         1 <0>         0.0905
     20 H3         -1.8791    1.4535    2.0916 H         1 <0>         0.0712
     21 H4         -3.1968   -0.6081   -0.5526 H         1 <0>         0.1555
     22 H5         -2.6133   -2.9997   -0.8788 H         1 <0>         0.1457
     23 H6          0.1191    0.5503    5.0746 H         1 <0>         0.1423
     24 H7          0.1763    2.9150    5.8295 H         1 <0>         0.1456
     25 H8          0.3625    4.7117    4.1591 H         1 <0>         0.1640
     26 H9          0.4490    1.9792    1.0383 H         1 <0>         0.1566
     27 H10        -1.1697   -4.8350   -0.2777 H         1 <0>         0.4103
     28 H11         0.0713   -4.6639    0.8418 H         1 <0>         0.4112
@<TRIPOS>BOND
     1    1    2 1
     2    1   18 1
     3    1   19 1
     4    1   20 1
     5    2    7 1
     6    2    3 2
     7    3    4 1
     8    3   21 1
     9    4    5 2
    10    4   22 1
    11    5    6 1
    12    5   17 1
    13    6   10 2
    14    6    7 1
    15    7    8 1
    16    8    9 2
    17    8   11 1
    18    9   10 1
    19   11   16 ar
    20   11   12 ar
    21   12   13 ar
    22   12   23 1
    23   13   14 ar
    24   13   24 1
    25   14   15 ar
    26   14   25 1
    27   15   16 ar
    28   16   26 1
    29   17   27 1
    30   17   28 1
@<TRIPOS>MOLECULE
ZINC42015925
   28    29     0     0     0
SMALL
USER_CHARGES

@<TRIPOS>ATOM
      1 C1          0.5710    2.4613   -2.7858 C.3       1 <0>        -0.1701
      2 C2          0.4981    1.5826   -1.5354 C.3       1 <0>         0.1132
      3 N1          0.9043    0.2164   -1.8743 N.pl3     1 <0>        -0.3721
      4 C3          0.1155   -0.7884   -2.3309 C.2       1 <0>         0.3039
      5 N2          0.8908   -1.8390   -2.5038 N.2       1 <0>        -0.3336
      6 N3          2.1036   -1.5594   -2.1877 N.2       1 <0>        -0.0400
      7 N4          2.1963   -0.3330   -1.8020 N.2       1 <0>        -0.0835
      8 C4         -1.3390   -0.7176   -2.5857 C.ar      1 <0>        -0.1288
      9 C5         -2.1946   -0.1839   -1.6221 C.ar      1 <0>        -0.0477
     10 C6         -3.5508   -0.1204   -1.8651 C.ar      1 <0>        -0.1725
     11 C7         -4.0686   -0.5845   -3.0626 C.ar      1 <0>        -0.0448
     12 C8         -3.2331   -1.1157   -4.0253 C.ar      1 <0>        -0.1640
     13 C9         -1.8651   -1.1812   -3.7992 C.ar      1 <0>         0.2722
     14 N5         -1.0197   -1.7110   -4.7714 N.pl3     1 <0>        -0.8599
     15 C10        -3.8063   -1.6190   -5.3250 C.3       1 <0>        -0.1086
     16 H1          1.5929    2.4696   -3.1650 H         1 <0>         0.0684
     17 H2         -0.0967    2.0626   -3.5495 H         1 <0>         0.0653
     18 H3          0.2688    3.4778   -2.5336 H         1 <0>         0.0889
     19 H4          1.1658    1.9813   -0.7717 H         1 <0>         0.1102
     20 H5         -0.5238    1.5743   -1.1562 H         1 <0>         0.1071
     21 H6         -1.7956    0.1789   -0.6864 H         1 <0>         0.1239
     22 H7         -4.2120    0.2928   -1.1178 H         1 <0>         0.1302
     23 H8         -5.1318   -0.5309   -3.2446 H         1 <0>         0.1303
     24 H9         -0.0646   -1.7596   -4.6093 H         1 <0>         0.4044
     25 H10        -1.3862   -2.0312   -5.6104 H         1 <0>         0.4032
     26 H11        -3.8271   -0.8068   -6.0516 H         1 <0>         0.0695
     27 H12        -3.1864   -2.4309   -5.7052 H         1 <0>         0.0622
     28 H13        -4.8200   -1.9833   -5.1581 H         1 <0>         0.0728
@<TRIPOS>BOND
     1    1    2 1
     2    1   16 1
     3    1   17 1
     4    1   18 1
     5    2    3 1
     6    2   19 1
     7    2   20 1
     8    3    7 1
     9    3    4 1
    10    4    5 2
    11    4    8 1
    12    5    6 1
    13    6    7 2
    14    8   13 ar
    15    8    9 ar
    16    9   10 ar
    17    9   21 1
    18   10   11 ar
    19   10   22 1
    20   11   12 ar
    21   11   23 1
    22   12   13 ar
    23   12   15 1
    24   13   14 1
    25   14   24 1
    26   14   25 1
    27   15   26 1
    28   15   27 1
    29   15   28 1
@<TRIPOS>MOLECULE
ZINC50867479
   34    35     0     0     0
SMALL
USER_CHARGES

@<TRIPOS>ATOM
      1 C1         -0.0184    1.5028    0.0103 C.3       1 <0>        -0.0955
      2 C2          0.0021   -0.0041    0.0020 C.ar      1 <0>        -0.2774
      3 C3          0.0061   -0.7040   -1.1896 C.ar      1 <0>         0.2091
      4 N1          0.0241   -2.0277   -1.1637 N.ar      1 <0>        -0.5520
      5 C4          0.0384   -2.6868   -0.0126 C.ar      1 <0>         0.4519
      6 N2          0.0347   -2.0523    1.1519 N.ar      1 <0>        -0.5836
      7 C5          0.0232   -0.7245    1.1986 C.ar      1 <0>         0.4490
      8 N3          0.0258   -0.0641    2.4166 N.pl3     1 <0>        -0.8379
      9 C6          0.0584   -4.1685   -0.0283 C.2       1 <0>        -0.2055
     10 C7          0.0704   -4.9900   -1.1739 C.2       1 <0>         0.1273
     11 N4          0.0877   -6.2348   -0.7790 N.2       1 <0>        -0.3038
     12 N5          0.0874   -6.2586    0.6208 N.pl3     1 <0>        -0.3712
     13 C8          0.0745   -4.9879    1.0646 C.2       1 <0>         0.1459
     14 C9          0.0749   -4.5488    2.5062 C.3       1 <0>        -0.0961
     15 C10         0.1034   -7.4602    1.4587 C.3       1 <0>         0.0988
     16 C11         0.0639   -4.5150   -2.6040 C.3       1 <0>        -0.0747
     17 C12        -0.0105    0.0317   -2.5047 C.3       1 <0>        -0.1086
     18 H1          1.0042    1.8801    0.0026 H         1 <0>         0.0677
     19 H2         -0.5455    1.8639   -0.8728 H         1 <0>         0.0738
     20 H3         -0.5286    1.8543    0.9071 H         1 <0>         0.0589
     21 H4          0.0128    0.9055    2.4426 H         1 <0>         0.4109
     22 H5          0.0405   -0.5713    3.2433 H         1 <0>         0.4060
     23 H6         -0.9526   -4.4570    2.8583 H         1 <0>         0.0817
     24 H7          0.6016   -5.2871    3.1108 H         1 <0>         0.0657
     25 H8          0.5759   -3.5845    2.5922 H         1 <0>         0.1096
     26 H9          1.1349   -7.7439    1.6673 H         1 <0>         0.0775
     27 H10        -0.4141   -7.2563    2.3961 H         1 <0>         0.0889
     28 H11        -0.3988   -8.2743    0.9361 H         1 <0>         0.0931
     29 H12         1.0899   -4.3857   -2.9486 H         1 <0>         0.0762
     30 H13        -0.4392   -5.2523   -3.2295 H         1 <0>         0.0663
     31 H14        -0.4635   -3.5633   -2.6684 H         1 <0>         0.1008
     32 H15         1.0131    0.2233   -2.8268 H         1 <0>         0.0847
     33 H16        -0.5195   -0.5747   -3.2539 H         1 <0>         0.0820
     34 H17        -0.5369    0.9786   -2.3848 H         1 <0>         0.0807
@<TRIPOS>BOND
     1    1    2 1
     2    1   18 1
     3    1   19 1
     4    1   20 1
     5    2    7 ar
     6    2    3 ar
     7    3    4 ar
     8    3   17 1
     9    4    5 ar
    10    5    6 ar
    11    5    9 1
    12    6    7 ar
    13    7    8 1
    14    8   21 1
    15    8   22 1
    16    9   13 2
    17    9   10 1
    18   10   11 2
    19   10   16 1
    20   11   12 1
    21   12   13 1
    22   12   15 1
    23   13   14 1
    24   14   23 1
    25   14   24 1
    26   14   25 1
    27   15   26 1
    28   15   27 1
    29   15   28 1
    30   16   29 1
    31   16   30 1
    32   16   31 1
    33   17   32 1
    34   17   33 1
    35   17   34 1
@<TRIPOS>MOLECULE
ZINC61680672
   24    26     0     0     0
SMALL
USER_CHARGES

@<TRIPOS>ATOM
      1 C1          0.4265    0.6692    1.1459 C.ar      1 <0>        -0.0100
      2 C2          1.6162    1.3723    1.0932 C.ar      1 <0>        -0.2268
      3 C3          2.3446    1.3841   -0.0916 C.ar      1 <0>         0.4157
      4 N1          1.9102    0.7330   -1.1593 N.ar      1 <0>        -0.5324
      5 C4          0.7801    0.0526   -1.1439 C.ar      1 <0>         0.1830
      6 C5          0.0021   -0.0041    0.0020 C.ar      1 <0>        -0.0109
      7 N2         -1.1991   -0.7310    0.0100 N.am      1 <0>        -0.5170
      8 C6         -2.3988   -0.1466    0.1175 C.2       1 <0>         0.5500
      9 O1         -2.5926    1.0459    0.2179 O.2       1 <0>        -0.4593
     10 C7         -3.4746   -1.2104    0.0934 C.3       1 <0>        -0.1946
     11 H1         -4.3752   -1.0090   -0.4867 H         1 <0>         0.1636
     12 C8         -3.5173   -2.2350    1.2289 C.3       1 <0>        -0.0785
     13 C9         -2.6802   -2.5248   -0.0482 C.3       1 <0>        -0.1990
     14 H2         -2.9853   -3.3191   -0.7294 H         1 <0>         0.1654
     15 C10        -1.2393   -2.0650   -0.0948 C.2       1 <0>         0.5505
     16 O2         -0.2742   -2.7900   -0.2068 O.2       1 <0>        -0.4582
     17 N3          3.5431    2.0885   -0.1555 N.pl3     1 <0>        -0.8446
     18 H3         -0.1577    0.6388    2.0537 H         1 <0>         0.1377
     19 H4          1.9749    1.9057    1.9610 H         1 <0>         0.1416
     20 H5          0.4572   -0.4661   -2.0345 H         1 <0>         0.1586
     21 H6         -2.9839   -1.9896    2.1473 H         1 <0>         0.1089
     22 H7         -4.4386   -2.8028    1.3589 H         1 <0>         0.1372
     23 H8          3.8662    2.5677    0.6236 H         1 <0>         0.4115
     24 H9          4.0554    2.1003   -0.9791 H         1 <0>         0.4077
@<TRIPOS>BOND
     1    1    6 ar
     2    1    2 ar
     3    1   18 1
     4    2    3 ar
     5    2   19 1
     6    3    4 ar
     7    3   17 1
     8    4    5 ar
     9    5    6 ar
    10    5   20 1
    11    6    7 1
    12    7   15 am
    13    7    8 am
    14    8    9 2
    15    8   10 1
    16   10   11 1
    17   10   13 1
    18   10   12 1
    19   12   13 1
    20   12   21 1
    21   12   22 1
    22   13   14 1
    23   13   15 1
    24   15   16 2
    25   17   23 1
    26   17   24 1
@<TRIPOS>MOLECULE
ZINC39243012
   29    30     0     0     0
SMALL
USER_CHARGES

@<TRIPOS>ATOM
      1 C1          2.1356    0.9832    0.9294 C.3       1 <0>        -0.0743
      2 C2          2.5665    2.1146    0.0426 C.2       1 <0>        -0.1698
      3 C3          2.1659    2.2724   -1.1781 C.2       1 <0>        -0.1374
      4 C4          1.2222    1.3406   -1.8804 C.3       1 <0>        -0.0776
      5 C5          0.4917    0.4634   -0.8613 C.3       1 <0>        -0.1380
      6 H1         -0.2132    1.0707   -0.2935 H         1 <0>         0.0720
      7 C6          1.5312   -0.1441    0.0894 C.3       1 <0>        -0.0760
      8 H2          2.3163   -0.6315   -0.4888 H         1 <0>         0.0917
      9 C7          0.8646   -1.1483    0.9939 C.2       1 <0>         0.5339
     10 O1         -0.2654   -0.9528    1.3885 O.2       1 <0>        -0.5086
     11 N1          1.5242   -2.2638    1.3642 N.am      1 <0>        -0.7003
     12 C8          0.8761   -3.2401    2.2435 C.3       1 <0>         0.1868
     13 H3         -0.0136   -2.8109    2.7043 H         1 <0>         0.1654
     14 C9          1.8446   -3.7342    3.3035 C.2       1 <0>        -0.1602
     15 C10         1.9387   -5.0445    3.0669 C.2       1 <0>        -0.0658
     16 N2          1.1645   -5.3997    2.0178 N.2       1 <0>        -0.1690
     17 N3          0.5381   -4.4663    1.5009 N.2       1 <0>        -0.1376
     18 C11        -0.2493   -0.6358   -1.5779 C.2       1 <0>         0.4973
     19 O2          0.3601   -1.4249   -2.2797 O.co2     1 <0>        -0.7000
     20 O3         -1.4583   -0.7361   -1.4559 O.co2     1 <0>        -0.6851
     21 H4          2.9989    0.6035    1.4759 H         1 <0>         0.0679
     22 H5          1.3912    1.3438    1.6393 H         1 <0>         0.0758
     23 H6          3.2532    2.8427    0.4484 H         1 <0>         0.1010
     24 H7          2.5335    3.1280   -1.7251 H         1 <0>         0.0994
     25 H8          0.4932    1.9223   -2.4446 H         1 <0>         0.0687
     26 H9          1.7841    0.7064   -2.5661 H         1 <0>         0.0825
     27 H10         2.4279   -2.4202    1.0486 H         1 <0>         0.4051
     28 H11         2.3416   -3.1592    4.0708 H         1 <0>         0.1745
     29 H12         2.5507   -5.7281    3.6367 H         1 <0>         0.1778
@<TRIPOS>BOND
     1    1    7 1
     2    1    2 1
     3    1   21 1
     4    1   22 1
     5    2    3 2
     6    2   23 1
     7    3    4 1
     8    3   24 1
     9    4    5 1
    10    4   25 1
    11    4   26 1
    12    5    6 1
    13    5    7 1
    14    5   18 1
    15    7    8 1
    16    7    9 1
    17    9   10 2
    18    9   11 am
    19   11   12 1
    20   11   27 1
    21   12   13 1
    22   12   17 1
    23   12   14 1
    24   14   15 2
    25   14   28 1
    26   15   16 1
    27   15   29 1
    28   16   17 2
    29   18   19 2
    30   18   20 1
@<TRIPOS>MOLECULE
ZINC41687992
   19    19     0     0     0
SMALL
USER_CHARGES

@<TRIPOS>ATOM
      1 C1         -0.0187    1.5258    0.0104 C.3       1 <0>        -0.1276
      2 C2          0.0021   -0.0041    0.0020 C.3       1 <0>        -0.0358
      3 C3          0.7421   -0.5109    1.2415 C.3       1 <0>        -0.1437
      4 C4         -1.4117   -0.5257    0.0127 C.2       1 <0>         0.5129
      5 O1         -2.3440    0.2497    0.0258 O.2       1 <0>        -0.4759
      6 N1         -1.6400   -1.8540    0.0078 N.am      1 <0>        -0.6051
      7 C5         -2.9412   -2.3340    0.0176 C.2       1 <0>         0.2670
      8 N2         -4.0572   -1.6081    0.0263 N.2       1 <0>        -0.3555
      9 N3         -5.0528   -2.4271    0.0330 N.2       1 <0>        -0.1890
     10 N4         -4.6073   -3.6347    0.0288 N.2       1 <0>        -0.1835
     11 N5         -3.3184   -3.6109    0.0144 N.2       1 <0>        -0.3991
     12 Br1         0.9223   -0.6381   -1.6155 Br        1 <0>        -0.1326
     13 H1          1.0039    1.9031    0.0027 H         1 <0>         0.0720
     14 H2         -0.5459    1.8868   -0.8726 H         1 <0>         0.0754
     15 H3         -0.5289    1.8773    0.9072 H         1 <0>         0.0799
     16 H4          0.2319   -0.1594    2.1383 H         1 <0>         0.0797
     17 H5          0.7568   -1.6008    1.2356 H         1 <0>         0.0726
     18 H6          1.7647   -0.1336    1.2338 H         1 <0>         0.0795
     19 H7         -0.8943   -2.4742   -0.0027 H         1 <0>         0.4087
@<TRIPOS>BOND
     1    1    2 1
     2    1   13 1
     3    1   14 1
     4    1   15 1
     5    2    3 1
     6    2    4 1
     7    2   12 1
     8    3   16 1
     9    3   17 1
    10    3   18 1
    11    4    5 2
    12    4    6 am
    13    6    7 1
    14    6   19 1
    15    7   11 2
    16    7    8 1
    17    8    9 1
    18    9   10 2
    19   10   11 1
@<TRIPOS>MOLECULE
ZINC45007974
   33    33     0     0     0
SMALL
USER_CHARGES

@<TRIPOS>ATOM
      1 C1         -0.0524    1.4857    0.3229 C.3       1 <0>        -0.1184
      2 C2         -0.0145   -0.0111    0.1520 C.2       1 <0>         0.0666
      3 C3         -0.1277   -0.5676   -1.0826 C.2       1 <0>        -0.2993
      4 C4         -0.0890   -1.9687   -1.2182 C.2       1 <0>         0.5174
      5 O1         -0.1902   -2.4722   -2.3241 O.2       1 <0>        -0.5781
      6 N1          0.0590   -2.7563   -0.1376 N.am      1 <0>        -0.4925
      7 C5          0.1731   -2.2299    1.0945 C.2       1 <0>         0.1827
      8 C6          0.1457   -0.8598    1.2760 C.2       1 <0>        -0.2519
      9 C7          0.2764   -0.2877    2.6244 C.2       1 <0>         0.5372
     10 O2          0.2932   -1.0233    3.6021 O.co2     1 <0>        -0.6852
     11 O3          0.3682    0.9239    2.7687 O.co2     1 <0>        -0.6799
     12 C8          0.3373   -3.1394    2.2848 C.3       1 <0>        -0.1008
     13 C9          0.0961   -4.2111   -0.3059 C.3       1 <0>         0.1022
     14 C10         1.5508   -4.6783   -0.3862 C.3       1 <0>        -0.1583
     15 C11         1.5890   -6.1748   -0.5594 C.2       1 <0>         0.5223
     16 O4          0.5545   -6.8056   -0.6133 O.2       1 <0>        -0.5368
     17 N2          2.7727   -6.8122   -0.6544 N.am      1 <0>        -0.7377
     18 C12         2.8098   -8.2671   -0.8227 C.3       1 <0>         0.0875
     19 H1          0.9656    1.8744    0.3488 H         1 <0>         0.0745
     20 H2         -0.5909    1.9333   -0.5125 H         1 <0>         0.0452
     21 H3         -0.5593    1.7322    1.2558 H         1 <0>         0.1093
     22 H4         -0.2467    0.0601   -1.9534 H         1 <0>         0.1383
     23 H5          0.4328   -4.1703    1.9439 H         1 <0>         0.0485
     24 H6          1.2322   -2.8554    2.8384 H         1 <0>         0.1005
     25 H7         -0.5345   -3.0505    2.9331 H         1 <0>         0.0971
     26 H8         -0.3922   -4.6878    0.5440 H         1 <0>         0.0999
     27 H9         -0.4244   -4.4840   -1.2239 H         1 <0>         0.1077
     28 H10         2.0391   -4.2016   -1.2362 H         1 <0>         0.1023
     29 H11         2.0713   -4.4054    0.5318 H         1 <0>         0.1028
     30 H12         3.6000   -6.3077   -0.6113 H         1 <0>         0.4036
     31 H13         2.3215   -8.7437    0.0273 H         1 <0>         0.0599
     32 H14         2.2893   -8.5400   -1.7407 H         1 <0>         0.0591
     33 H15         3.8461   -8.5999   -0.8799 H         1 <0>         0.0744
@<TRIPOS>BOND
     1    1    2 1
     2    1   19 1
     3    1   20 1
     4    1   21 1
     5    2    8 1
     6    2    3 2
     7    3    4 1
     8    3   22 1
     9    4    5 2
    10    4    6 am
    11    6    7 1
    12    6   13 1
    13    7    8 2
    14    7   12 1
    15    8    9 1
    16    9   10 2
    17    9   11 1
    18   12   23 1
    19   12   24 1
    20   12   25 1
    21   13   14 1
    22   13   26 1
    23   13   27 1
    24   14   15 1
    25   14   28 1
    26   14   29 1
    27   15   16 2
    28   15   17 am
    29   17   18 1
    30   17   30 1
    31   18   31 1
    32   18   32 1
    33   18   33 1
@<TRIPOS>MOLECULE
ZINC56214202
   33    34     0     0     0
SMALL
USER_CHARGES

@<TRIPOS>ATOM
      1 C1         -0.0187    1.5258    0.0104 C.3       1 <0>        -0.1209
      2 C2          1.4167    2.0553   -0.0004 C.3       1 <0>        -0.1161
      3 C3          2.1328    1.5619   -1.2592 C.3       1 <0>        -0.1139
      4 C4          2.1536    0.0321   -1.2676 C.3       1 <0>         0.0838
      5 C5          0.7182   -0.4975   -1.2568 C.3       1 <0>        -0.1420
      6 C6          0.0021   -0.0041    0.0020 C.3       1 <0>        -0.1166
      7 O1          2.8225   -0.4288   -2.4434 O.3       1 <0>        -0.3493
      8 C7          3.4920   -1.6804   -2.2783 C.3       1 <0>         0.0988
      9 C8          4.1589   -2.0678   -3.5729 C.2       1 <0>         0.4349
     10 O2          4.8519   -3.2148   -3.6540 O.3       1 <0>        -0.6271
     11 N1          4.0626   -1.2863   -4.6180 N.2       1 <0>        -0.6465
     12 C9          4.6583   -1.6324   -5.7744 C.2       1 <0>         0.6313
     13 N2          4.6095   -0.8778   -6.9127 N.pl3     1 <0>        -0.7371
     14 C10         5.3862   -1.6206   -7.9222 C.3       1 <0>         0.0106
     15 C11         5.8455   -2.8541   -7.1705 C.2       1 <0>         0.4840
     16 O3          6.5234   -3.7645   -7.6056 O.2       1 <0>        -0.5446
     17 N3          5.3618   -2.7369   -5.9383 N.2       1 <0>        -0.6390
     18 H1         -0.5289    1.8773    0.9072 H         1 <0>         0.0585
     19 H2         -0.5459    1.8868   -0.8726 H         1 <0>         0.0626
     20 H3          1.4019    3.1452    0.0056 H         1 <0>         0.0636
     21 H4          1.9439    1.6943    0.8826 H         1 <0>         0.0605
     22 H5          1.6057    1.9230   -2.1423 H         1 <0>         0.0705
     23 H6          3.1554    1.9392   -1.2670 H         1 <0>         0.0676
     24 H7          2.6808   -0.3290   -0.3846 H         1 <0>         0.0534
     25 H8          0.1910   -0.1364   -2.1398 H         1 <0>         0.0705
     26 H9          0.7330   -1.5874   -1.2628 H         1 <0>         0.0624
     27 H10         0.5293   -0.3651    0.8851 H         1 <0>         0.0599
     28 H11        -1.0205   -0.3814    0.0098 H         1 <0>         0.0610
     29 H12         4.2445   -1.5894   -1.4950 H         1 <0>         0.0631
     30 H13         2.7678   -2.4458   -1.9993 H         1 <0>         0.0625
     31 H14         4.7543   -1.8976   -8.7660 H         1 <0>         0.0895
     32 H15         6.2415   -1.0339   -8.2573 H         1 <0>         0.0897
     33 H16         4.1569   -0.0283   -7.0320 H         1 <0>         0.4143
@<TRIPOS>BOND
     1    1    6 1
     2    1    2 1
     3    1   18 1
     4    1   19 1
     5    2    3 1
     6    2   20 1
     7    2   21 1
     8    3    4 1
     9    3   22 1
    10    3   23 1
    11    4    5 1
    12    4    7 1
    13    4   24 1
    14    5    6 1
    15    5   25 1
    16    5   26 1
    17    6   27 1
    18    6   28 1
    19    7    8 1
    20    8    9 1
    21    8   29 1
    22    8   30 1
    23    9   10 1
    24    9   11 2
    25   11   12 1
    26   12   13 1
    27   12   17 2
    28   13   14 1
    29   13   33 1
    30   14   15 1
    31   14   31 1
    32   14   32 1
    33   15   16 2
    34   15   17 1
@<TRIPOS>MOLECULE
ZINC62926331
   40    41     0     0     0
SMALL
USER_CHARGES

@<TRIPOS>ATOM
      1 C1          0.8548    1.8982    0.7777 C.3       1 <0>        -0.1580
      2 C2          0.8279    0.3841    0.5593 C.3       1 <0>        -0.0878
      3 C3          1.2561   -0.3244    1.8459 C.3       1 <0>        -0.1424
      4 C4          0.2346   -0.0527    2.9743 C.3       1 <0>        -0.1063
      5 C5         -0.6690   -1.3107    2.9310 C.3       1 <0>         0.1233
      6 N1          0.2845   -2.4035    2.6302 N.am      1 <0>        -0.6323
      7 C6          1.2361   -1.8515    1.6477 C.3       1 <0>         0.1033
      8 C7          0.2834   -3.6474    3.1489 C.2       1 <0>         0.7323
      9 O1         -0.4527   -3.9180    4.0780 O.2       1 <0>        -0.6038
     10 N2          1.0984   -4.5914    2.6377 N.am      1 <0>        -0.6208
     11 C8          1.8770   -4.3285    1.4198 C.3       1 <0>         0.0603
     12 C9          1.5935   -5.4396    0.4039 C.3       1 <0>        -0.1304
     13 C10         1.8749   -6.7987    1.0487 C.3       1 <0>        -0.1119
     14 C11         0.9492   -6.9962    2.2513 C.3       1 <0>         0.0933
     15 H1         -0.0891   -6.9345    1.9253 H         1 <0>         0.0582
     16 C12         1.2297   -5.9007    3.2913 C.3       1 <0>         0.1012
     17 O2          1.1908   -8.2785    2.8338 O.3       1 <0>        -0.5654
     18 C13         2.6313    0.1316    2.2608 C.2       1 <0>         0.5093
     19 O3          2.8388    1.3107    2.4912 O.co2     1 <0>        -0.6819
     20 O4          3.5362   -0.6786    2.3661 O.co2     1 <0>        -0.6924
     21 H2          1.8649    2.2089    1.0447 H         1 <0>         0.0961
     22 H3          0.5497    2.4030   -0.1389 H         1 <0>         0.0304
     23 H4          0.1689    2.1614    1.5830 H         1 <0>         0.0459
     24 H5         -0.1822    0.0734    0.2923 H         1 <0>         0.0445
     25 H6          1.5138    0.1210   -0.2460 H         1 <0>         0.0527
     26 H7          0.7368    0.0288    3.9382 H         1 <0>         0.0681
     27 H8         -0.3447    0.8460    2.7624 H         1 <0>         0.0796
     28 H9         -1.1483   -1.4733    3.8963 H         1 <0>         0.0775
     29 H10        -1.4141   -1.2220    2.1404 H         1 <0>         0.0634
     30 H11         0.9062   -2.0904    0.6367 H         1 <0>         0.0549
     31 H12         2.2306   -2.2618    1.8232 H         1 <0>         0.1101
     32 H13         1.5846   -3.3661    0.9998 H         1 <0>         0.1284
     33 H14         2.9399   -4.3165    1.6610 H         1 <0>         0.0715
     34 H15         0.5491   -5.3926    0.0953 H         1 <0>         0.0651
     35 H16         2.2368   -5.3096   -0.4664 H         1 <0>         0.0820
     36 H17         1.6975   -7.5899    0.3202 H         1 <0>         0.0688
     37 H18         2.9128   -6.8359    1.3794 H         1 <0>         0.0718
     38 H19         2.2408   -6.0143    3.6820 H         1 <0>         0.0699
     39 H20         0.5100   -5.9760    4.1065 H         1 <0>         0.0923
     40 H21         0.6377   -8.4717    3.6030 H         1 <0>         0.3790
@<TRIPOS>BOND
     1    1    2 1
     2    1   21 1
     3    1   22 1
     4    1   23 1
     5    2    3 1
     6    2   24 1
     7    2   25 1
     8    3    7 1
     9    3    4 1
    10    3   18 1
    11    4    5 1
    12    4   26 1
    13    4   27 1
    14    5    6 1
    15    5   28 1
    16    5   29 1
    17    6    7 1
    18    6    8 am
    19    7   30 1
    20    7   31 1
    21    8    9 2
    22    8   10 am
    23   10   16 1
    24   10   11 1
    25   11   12 1
    26   11   32 1
    27   11   33 1
    28   12   13 1
    29   12   34 1
    30   12   35 1
    31   13   14 1
    32   13   36 1
    33   13   37 1
    34   14   15 1
    35   14   16 1
    36   14   17 1
    37   16   38 1
    38   16   39 1
    39   17   40 1
    40   18   19 2
    41   18   20 1
@<TRIPOS>MOLECULE
ZINC14182256
   41    43     0     0     0
SMALL
USER_CHARGES
2-(1,3-dioxo-2,4-diazaspiro[4.4]nonan-2-yl)-N-[(1S)-1-(2-furyl)ethyl]acetamide
@<TRIPOS>ATOM
      1 C1         -0.5545    3.7999    3.8391 C.3       1 <0>        -0.1641
      2 C2         -1.5479    3.7413    2.6770 C.3       1 <0>         0.2327
      3 H1         -2.3584    3.0564    2.9260 H         1 <0>         0.1166
      4 C3         -2.1113    5.1167    2.4279 C.2       1 <0>        -0.0300
      5 C4         -3.3104    5.5627    2.8435 C.2       1 <0>        -0.1900
      6 C5         -3.4284    6.8984    2.3952 C.2       1 <0>        -0.2122
      7 C6         -2.2979    7.1860    1.7254 C.2       1 <0>        -0.0330
      8 O1         -1.5038    6.1031    1.7485 O.3       1 <0>        -0.1746
      9 N1         -0.8622    3.2689    1.4717 N.am      1 <0>        -0.7224
     10 C7         -0.7232    1.9468    1.2500 C.2       1 <0>         0.5063
     11 O2         -1.1657    1.1482    2.0483 O.2       1 <0>        -0.5234
     12 C8         -0.0178    1.4608    0.0101 C.3       1 <0>         0.0993
     13 N2          0.0021   -0.0041    0.0020 N.am      1 <0>        -0.5640
     14 C9         -0.9601   -0.7734   -0.5514 C.2       1 <0>         0.5404
     15 O3         -1.9667   -0.4005   -1.1148 O.2       1 <0>        -0.4569
     16 C10        -0.5153   -2.1949   -0.3192 C.3       1 <0>         0.1191
     17 C11        -0.3281   -2.9383   -1.6484 C.3       1 <0>        -0.1211
     18 C12        -0.7740   -4.3896   -1.3321 C.3       1 <0>        -0.1223
     19 C13        -1.9673   -4.1807   -0.3657 C.3       1 <0>        -0.1236
     20 C14        -1.5467   -2.9731    0.5012 C.3       1 <0>        -0.1175
     21 N3          0.7543   -2.0689    0.3995 N.am      1 <0>        -0.7132
     22 C15         0.9795   -0.7468    0.5375 C.2       1 <0>         0.7089
     23 O4          1.9576   -0.2814    1.0888 O.2       1 <0>        -0.5377
     24 H2         -0.1470    2.8051    4.0192 H         1 <0>         0.0731
     25 H3          0.2560    4.4849    3.5901 H         1 <0>         0.0645
     26 H4         -1.0647    4.1514    4.7359 H         1 <0>         0.0739
     27 H5         -4.0416    5.0078    3.4125 H         1 <0>         0.1510
     28 H6         -4.2669    7.5597    2.5564 H         1 <0>         0.1517
     29 H7         -2.0679    8.1278    1.2494 H         1 <0>         0.2061
     30 H8         -0.5083    3.9076    0.8332 H         1 <0>         0.4081
     31 H9          1.0048    1.8381    0.0023 H         1 <0>         0.1312
     32 H10        -0.5450    1.8219   -0.8730 H         1 <0>         0.1283
     33 H11        -0.9614   -2.5039   -2.4218 H         1 <0>         0.0907
     34 H12         0.7181   -2.9179   -1.9537 H         1 <0>         0.0858
     35 H13         0.0278   -4.9415   -0.8416 H         1 <0>         0.0734
     36 H14        -1.0969   -4.9005   -2.2392 H         1 <0>         0.0792
     37 H15        -2.1137   -5.0640    0.2559 H         1 <0>         0.0770
     38 H16        -2.8748   -3.9516   -0.9243 H         1 <0>         0.0757
     39 H17        -1.1000   -3.3189    1.4335 H         1 <0>         0.0879
     40 H18        -2.4112   -2.3432    0.7106 H         1 <0>         0.0831
     41 H19         1.3217   -2.7917    0.7102 H         1 <0>         0.4419
@<TRIPOS>BOND
     1    1    2 1
     2    1   24 1
     3    1   25 1
     4    1   26 1
     5    2    3 1
     6    2    4 1
     7    2    9 1
     8    4    8 1
     9    4    5 2
    10    5    6 1
    11    5   27 1
    12    6    7 2
    13    6   28 1
    14    7    8 1
    15    7   29 1
    16    9   10 am
    17    9   30 1
    18   10   11 2
    19   10   12 1
    20   12   13 1
    21   12   31 1
    22   12   32 1
    23   13   22 am
    24   13   14 am
    25   14   15 2
    26   14   16 1
    27   16   20 1
    28   16   17 1
    29   16   21 1
    30   17   18 1
    31   17   33 1
    32   17   34 1
    33   18   19 1
    34   18   35 1
    35   18   36 1
    36   19   20 1
    37   19   37 1
    38   19   38 1
    39   20   39 1
    40   20   40 1
    41   21   22 am
    42   21   41 1
    43   22   23 2
@<TRIPOS>MOLECULE
ZINC39224453
   34    37     0     0     0
SMALL
USER_CHARGES

@<TRIPOS>ATOM
      1 C1         -0.0167    1.3781    0.0096 C.ar      1 <0>        -0.1045
      2 C2          1.1709    2.0855    0.0021 C.ar      1 <0>        -0.1228
      3 C3          2.3773    1.4107   -0.0130 C.ar      1 <0>        -0.0899
      4 C4          2.3960    0.0285   -0.0201 C.ar      1 <0>        -0.1358
      5 C5          1.2084   -0.6789   -0.0117 C.ar      1 <0>        -0.0866
      6 C6          0.0021   -0.0041    0.0020 C.ar      1 <0>        -0.1243
      7 C7          3.7112   -0.7071   -0.0376 C.3       1 <0>         0.3394
      8 H1          4.4733   -0.1134   -0.5424 H         1 <0>         0.1061
      9 N1          3.5607   -2.0190   -0.6921 N.pl3     1 <0>        -0.6634
     10 N2          3.8900   -2.9630    0.2916 N.2       1 <0>        -0.2607
     11 C8          4.1995   -2.3778    1.3892 C.2       1 <0>         0.2337
     12 O1          4.1262   -1.0276    1.2987 O.3       1 <0>        -0.3157
     13 C9          4.6019   -3.1106    2.6430 C.3       1 <0>        -0.0220
     14 S1          4.5723   -4.8979    2.3348 S.3       1 <0>         0.0191
     15 C10         5.0594   -5.6041    3.8739 C.ar      1 <0>         0.1899
     16 N3          5.3456   -4.8294    4.9178 N.ar      1 <0>        -0.5220
     17 C11         5.7115   -5.3514    6.0745 C.ar      1 <0>         0.3172
     18 N4          5.8146   -6.6481    6.2639 N.ar      1 <0>        -0.4836
     19 C12         5.5468   -7.5042    5.2719 C.ar      1 <0>         0.3085
     20 N5          5.5591   -8.8452    5.1539 N.2       1 <0>        -0.4876
     21 C13         5.2078   -9.1850    3.9449 C.2       1 <0>         0.3118
     22 N6          4.9474   -8.0808    3.2093 N.pl3     1 <0>        -0.5733
     23 C14         5.1484   -6.9897    4.0277 C.ar      1 <0>        -0.0527
     24 H2         -0.9591    1.9053    0.0259 H         1 <0>         0.1259
     25 H3          1.1563    3.1654    0.0076 H         1 <0>         0.1277
     26 H4          3.3051    1.9634   -0.0196 H         1 <0>         0.1268
     27 H5          1.2231   -1.7588   -0.0176 H         1 <0>         0.1227
     28 H6         -0.9258   -0.5567    0.0082 H         1 <0>         0.1253
     29 H7          3.2914   -2.1925   -1.6077 H         1 <0>         0.4506
     30 H8          5.6082   -2.8085    2.9333 H         1 <0>         0.1311
     31 H9          3.9044   -2.8686    3.4450 H         1 <0>         0.1302
     32 H10         5.9349   -4.6873    6.8963 H         1 <0>         0.2099
     33 H11         5.1358  -10.2003    3.5838 H         1 <0>         0.2354
     34 H12         4.6675   -8.0603    2.2808 H         1 <0>         0.4338
@<TRIPOS>BOND
     1    1    6 ar
     2    1    2 ar
     3    1   24 1
     4    2    3 ar
     5    2   25 1
     6    3    4 ar
     7    3   26 1
     8    4    5 ar
     9    4    7 1
    10    5    6 ar
    11    5   27 1
    12    6   28 1
    13    7    8 1
    14    7   12 1
    15    7    9 1
    16    9   10 1
    17    9   29 1
    18   10   11 2
    19   11   12 1
    20   11   13 1
    21   13   14 1
    22   13   30 1
    23   13   31 1
    24   14   15 1
    25   15   16 ar
    26   15   23 ar
    27   16   17 ar
    28   17   18 ar
    29   17   32 1
    30   18   19 ar
    31   19   20 1
    32   19   23 ar
    33   20   21 2
    34   21   33 1
    35   21   22 1
    36   22   23 1
    37   22   34 1
@<TRIPOS>MOLECULE
ZINC49441851
   33    35     0     0     0
SMALL
USER_CHARGES

@<TRIPOS>ATOM
      1 C1         -0.0178    1.4608    0.0101 C.3       1 <0>         0.0957
      2 N1          0.0021   -0.0041    0.0020 N.pl3     1 <0>        -0.3622
      3 C2          0.0077   -0.7874   -1.0944 C.2       1 <0>         0.1017
      4 C3          0.0273   -2.0875   -0.6728 C.2       1 <0>        -0.1760
      5 C4          0.0335   -2.0754    0.7375 C.2       1 <0>         0.1036
      6 N2          0.0245   -0.8302    1.1320 N.2       1 <0>        -0.2893
      7 C5          0.0397   -3.2876   -1.5376 C.2       1 <0>         0.2206
      8 N3          0.0532   -4.5689   -1.1984 N.2       1 <0>        -0.4984
      9 C6          0.0629   -5.5151   -2.1103 C.2       1 <0>         0.0728
     10 C7          0.0592   -5.1858   -3.4275 C.2       1 <0>        -0.1831
     11 S1          0.0325   -3.4007   -3.3220 S.3       1 <0>         0.0064
     12 C8          0.0787   -6.9635   -1.6947 C.3       1 <0>        -0.0283
     13 S2         -1.6251   -7.5633   -1.5277 S.3       1 <0>         0.0083
     14 C9         -1.4388   -9.2473   -1.0440 C.2       1 <0>         0.1966
     15 N4         -0.3028   -9.8736   -0.8548 N.2       1 <0>        -0.3024
     16 N5         -0.5929  -11.1918   -0.4791 N.2       1 <0>        -0.3666
     17 C10        -1.8958  -11.3276   -0.4509 C.2       1 <0>         0.4867
     18 N6         -2.4532  -10.1286   -0.7942 N.pl3     1 <0>        -0.5088
     19 C11        -3.8866   -9.8391   -0.8824 C.3       1 <0>         0.0696
     20 N7         -2.5888  -12.4862   -0.1242 N.pl3     1 <0>        -0.8291
     21 H1          1.0048    1.8381    0.0023 H         1 <0>         0.0827
     22 H2         -0.5450    1.8219   -0.8730 H         1 <0>         0.0935
     23 H3         -0.5280    1.8123    0.9069 H         1 <0>         0.0963
     24 H4         -0.0015   -0.4494   -2.1200 H         1 <0>         0.1850
     25 H5          0.0482   -2.9440    1.3792 H         1 <0>         0.1969
     26 H6          0.0657   -5.8250   -4.2980 H         1 <0>         0.2032
     27 H7          0.5989   -7.5526   -2.4500 H         1 <0>         0.1130
     28 H8          0.5937   -7.0617   -0.7390 H         1 <0>         0.1145
     29 H9         -4.2386  -10.0512   -1.8919 H         1 <0>         0.0810
     30 H10        -4.4276  -10.4624   -0.1704 H         1 <0>         0.0869
     31 H11        -4.0600   -8.7883   -0.6504 H         1 <0>         0.0942
     32 H12        -2.1027  -13.2919    0.1113 H         1 <0>         0.4265
     33 H13        -3.5587  -12.4896   -0.1317 H         1 <0>         0.4086
@<TRIPOS>BOND
     1    1    2 1
     2    1   21 1
     3    1   22 1
     4    1   23 1
     5    2    6 1
     6    2    3 1
     7    3    4 2
     8    3   24 1
     9    4    5 1
    10    4    7 1
    11    5    6 2
    12    5   25 1
    13    7   11 1
    14    7    8 2
    15    8    9 1
    16    9   10 2
    17    9   12 1
    18   10   11 1
    19   10   26 1
    20   12   13 1
    21   12   27 1
    22   12   28 1
    23   13   14 1
    24   14   18 1
    25   14   15 2
    26   15   16 1
    27   16   17 2
    28   17   18 1
    29   17   20 1
    30   18   19 1
    31   19   29 1
    32   19   30 1
    33   19   31 1
    34   20   32 1
    35   20   33 1
@<TRIPOS>MOLECULE
ZINC50669567
   34    35     0     0     0
SMALL
USER_CHARGES

@<TRIPOS>ATOM
      1 C1         -0.0067    1.2820   -0.5266 C.3       1 <0>        -0.1453
      2 C2          0.1342   -0.2349   -0.6677 C.3       1 <0>        -0.1022
      3 H1         -0.8351   -0.6945   -0.8613 H         1 <0>         0.0898
      4 C3          1.1443   -0.5904   -1.7905 C.3       1 <0>        -0.1292
      5 C4          1.6430   -1.9831   -1.3307 C.3       1 <0>         0.1157
      6 N1          1.7125   -1.8927    0.1391 N.pl3     1 <0>        -1.0170
      7 C5          0.7844   -0.8425    0.5931 C.3       1 <0>         0.1180
      8 S1          2.6715   -2.8215    1.1189 S.o2      1 <0>         2.7164
      9 O1          2.1281   -2.7253    2.4284 O.2       1 <0>        -0.9329
     10 O2          2.8449   -4.0662    0.4556 O.2       1 <0>        -0.9280
     11 C6          4.2571   -2.0551    1.1741 C.ar      1 <0>        -0.6897
     12 C7          4.4190   -0.7691    0.6914 C.ar      1 <0>         0.0217
     13 C8          5.6601   -0.1654    0.7336 C.ar      1 <0>        -0.1720
     14 C9          6.7469   -0.8511    1.2617 C.ar      1 <0>         0.2686
     15 C10         6.5807   -2.1423    1.7457 C.ar      1 <0>        -0.1451
     16 C11         5.3354   -2.7384    1.7052 C.ar      1 <0>         0.0936
     17 N2          5.1561   -4.1120    2.2263 N.pl3     1 <0>         0.0157
     18 O3          6.1180   -4.7582    2.5710 O.2       1 <0>        -0.1139
     19 O4          4.0476   -4.5880    2.3072 O.3       1 <0>        -0.1502
     20 N3          8.0038   -0.2435    1.3055 N.pl3     1 <0>        -0.8525
     21 H2          0.9738    1.7227   -0.3461 H         1 <0>         0.0571
     22 H3         -0.4273    1.6947   -1.4436 H         1 <0>         0.0627
     23 H4         -0.6669    1.5093    0.3104 H         1 <0>         0.0613
     24 H5          0.6466   -0.6535   -2.7582 H         1 <0>         0.0872
     25 H6          1.9637    0.1277   -1.8205 H         1 <0>         0.0766
     26 H7          0.9363   -2.7570   -1.6302 H         1 <0>         0.0789
     27 H8          2.6300   -2.1885   -1.7453 H         1 <0>         0.0760
     28 H9          1.3334   -0.0723    1.1349 H         1 <0>         0.0689
     29 H10         0.0164   -1.2742    1.2349 H         1 <0>         0.0786
     30 H11         3.5739   -0.2368    0.2806 H         1 <0>         0.1558
     31 H12         5.7860    0.8387    0.3561 H         1 <0>         0.1503
     32 H13         7.4235   -2.6783    2.1565 H         1 <0>         0.1625
     33 H14         8.1187    0.6582    0.9669 H         1 <0>         0.4117
     34 H15         8.7618   -0.7233    1.6745 H         1 <0>         0.4106
@<TRIPOS>BOND
     1    1    2 1
     2    1   21 1
     3    1   22 1
     4    1   23 1
     5    2    3 1
     6    2    7 1
     7    2    4 1
     8    4    5 1
     9    4   24 1
    10    4   25 1
    11    5    6 1
    12    5   26 1
    13    5   27 1
    14    6    7 1
    15    6    8 1
    16    7   28 1
    17    7   29 1
    18    8    9 2
    19    8   10 2
    20    8   11 1
    21   11   16 ar
    22   11   12 ar
    23   12   13 ar
    24   12   30 1
    25   13   14 ar
    26   13   31 1
    27   14   15 ar
    28   14   20 1
    29   15   16 ar
    30   15   32 1
    31   16   17 1
    32   17   18 2
    33   17   19 1
    34   20   33 1
    35   20   34 1
@<TRIPOS>MOLECULE
ZINC64891220
   39    42     0     0     0
SMALL
USER_CHARGES

@<TRIPOS>ATOM
      1 C1         -0.0187    1.5258    0.0104 C.3       1 <0>        -0.1499
      2 C2          0.0021   -0.0041    0.0020 C.3       1 <0>        -0.1432
      3 C3          0.7182   -0.4975   -1.2568 C.3       1 <0>         0.1272
      4 N1          0.7381   -1.9623   -1.2648 N.am      1 <0>        -0.5350
      5 C4          1.7289   -2.7654   -0.7095 C.ar      1 <0>         0.1190
      6 C5          2.9089   -2.4863   -0.0327 C.ar      1 <0>        -0.1048
      7 C6          3.7095   -3.5160    0.4107 C.ar      1 <0>        -0.0723
      8 C7          3.3377   -4.8428    0.1808 C.ar      1 <0>        -0.0424
      9 C8          2.1539   -5.1272   -0.4983 C.ar      1 <0>        -0.0500
     10 C9          1.3514   -4.0911   -0.9421 C.ar      1 <0>         0.0877
     11 N2          0.1415   -4.0494   -1.6323 N.am      1 <0>        -0.6401
     12 H1         -0.3680   -4.8183   -1.9326 H         1 <0>         0.4389
     13 C10        -0.2023   -2.7593   -1.8058 C.2       1 <0>         0.6828
     14 O1         -1.2094   -2.3723   -2.3685 O.2       1 <0>        -0.5453
     15 C11         4.2005   -5.9461    0.6576 C.2       1 <0>         0.3724
     16 N3          3.9422   -7.2018    0.4868 N.2       1 <0>        -0.3442
     17 O2          4.9565   -8.0084    1.0550 O.3       1 <0>        -0.1848
     18 C12         5.9214   -7.1109    1.6251 C.3       1 <0>         0.3637
     19 H2          6.8923   -7.2428    1.1476 H         1 <0>         0.1315
     20 N4          5.3912   -5.7687    1.3386 N.pl3     1 <0>        -0.7478
     21 C13         6.0329   -7.3335    3.1114 C.2       1 <0>        -0.0615
     22 C14         6.8997   -8.1630    3.7197 C.2       1 <0>        -0.1734
     23 C15         6.6585   -8.0605    5.1090 C.2       1 <0>        -0.2167
     24 C16         5.6587   -7.1745    5.2666 C.2       1 <0>        -0.0274
     25 O3          5.2877   -6.7331    4.0537 O.3       1 <0>        -0.1647
     26 H3          1.0039    1.9031    0.0027 H         1 <0>         0.0585
     27 H4         -0.5459    1.8868   -0.8726 H         1 <0>         0.0598
     28 H5         -0.5289    1.8773    0.9072 H         1 <0>         0.0626
     29 H6          0.5293   -0.3651    0.8851 H         1 <0>         0.0687
     30 H7         -1.0205   -0.3814    0.0098 H         1 <0>         0.0707
     31 H8          0.1910   -0.1364   -2.1398 H         1 <0>         0.0977
     32 H9          1.7408   -0.1202   -1.2645 H         1 <0>         0.0931
     33 H10         3.1993   -1.4615    0.1459 H         1 <0>         0.1410
     34 H11         4.6268   -3.2969    0.9369 H         1 <0>         0.1371
     35 H12         1.8643   -6.1521   -0.6773 H         1 <0>         0.1482
     36 H13         5.7976   -4.9222    1.5819 H         1 <0>         0.4306
     37 H14         7.6379   -8.7879    3.2390 H         1 <0>         0.1536
     38 H15         7.1771   -8.5919    5.8933 H         1 <0>         0.1529
     39 H16         5.2298   -6.8672    6.2090 H         1 <0>         0.2057
@<TRIPOS>BOND
     1    1    2 1
     2    1   26 1
     3    1   27 1
     4    1   28 1
     5    2    3 1
     6    2   29 1
     7    2   30 1
     8    3    4 1
     9    3   31 1
    10    3   32 1
    11    4   13 am
    12    4    5 1
    13    5   10 ar
    14    5    6 ar
    15    6    7 ar
    16    6   33 1
    17    7    8 ar
    18    7   34 1
    19    8    9 ar
    20    8   15 1
    21    9   10 ar
    22    9   35 1
    23   10   11 1
    24   11   12 1
    25   11   13 am
    26   13   14 2
    27   15   20 1
    28   15   16 2
    29   16   17 1
    30   17   18 1
    31   18   19 1
    32   18   20 1
    33   18   21 1
    34   20   36 1
    35   21   25 1
    36   21   22 2
    37   22   23 1
    38   22   37 1
    39   23   24 2
    40   23   38 1
    41   24   25 1
    42   24   39 1
@<TRIPOS>MOLECULE
ZINC37796152
   36    38     0     0     0
SMALL
USER_CHARGES

@<TRIPOS>ATOM
      1 C1         -3.4521    6.4128   -3.0691 C.2       1 <0>         0.0459
      2 C2         -2.9651    5.5488   -2.0774 C.2       1 <0>         0.0269
      3 C3         -3.8553    4.5336   -1.9366 C.2       1 <0>        -0.0059
      4 N1         -4.8696    4.7534   -2.8126 N.pl3     1 <0>        -0.3769
      5 N2         -4.5892    5.9369   -3.5073 N.2       1 <0>        -0.2606
      6 C4         -6.0478    3.9028   -2.9986 C.3       1 <0>         0.1335
      7 C5         -7.3152    4.7417   -2.8230 C.3       1 <0>         0.0701
      8 H1         -7.2889    5.2544   -1.8615 H         1 <0>         0.0834
      9 C6         -8.5600    3.8316   -2.8973 C.3       1 <0>        -0.1496
     10 C7         -9.5622    4.7086   -3.6964 C.3       1 <0>        -0.1552
     11 C8         -8.6007    5.4534   -4.6564 C.3       1 <0>         0.0445
     12 O1         -7.4139    5.7006   -3.8825 O.3       1 <0>        -0.3483
     13 N3         -1.7665    5.7063   -1.3563 N.am      1 <0>        -0.6423
     14 C9         -0.9701    6.7668   -1.5963 C.2       1 <0>         0.5616
     15 O2         -1.2863    7.5856   -2.4336 O.2       1 <0>        -0.5214
     16 C10         0.3131    6.9355   -0.8243 C.3       1 <0>        -0.1826
     17 H2          0.2015    7.0501    0.2539 H         1 <0>         0.1186
     18 C11         1.4498    7.7029   -1.5025 C.3       1 <0>        -0.1321
     19 C12         1.5462    6.1848   -1.3311 C.3       1 <0>        -0.1896
     20 H3          2.2461    5.8060   -0.5863 H         1 <0>         0.1004
     21 C13         1.3846    5.3334   -2.5640 C.2       1 <0>         0.5115
     22 O3          1.1628    5.8577   -3.6421 O.co2     1 <0>        -0.6762
     23 O4          1.4757    4.1203   -2.4833 O.co2     1 <0>        -0.6956
     24 H4         -2.9726    7.3187   -3.4095 H         1 <0>         0.2039
     25 H5         -3.7719    3.7020   -1.2525 H         1 <0>         0.1715
     26 H6         -6.0318    3.4740   -4.0005 H         1 <0>         0.0845
     27 H7         -6.0374    3.1012   -2.2600 H         1 <0>         0.1015
     28 H8         -8.3357    2.9107   -3.4354 H         1 <0>         0.0810
     29 H9         -8.9430    3.6160   -1.8998 H         1 <0>         0.0847
     30 H10       -10.2698    4.0913   -4.2499 H         1 <0>         0.0826
     31 H11       -10.0822    5.4073   -3.0410 H         1 <0>         0.0778
     32 H12        -8.3677    4.8284   -5.5185 H         1 <0>         0.0592
     33 H13        -9.0436    6.3954   -4.9798 H         1 <0>         0.0842
     34 H14        -1.5136    5.0516   -0.6868 H         1 <0>         0.4082
     35 H15         1.2695    8.0858   -2.5070 H         1 <0>         0.1108
     36 H16         2.0863    8.3221   -0.8704 H         1 <0>         0.0895
@<TRIPOS>BOND
     1    1    5 2
     2    1    2 1
     3    1   24 1
     4    2    3 2
     5    2   13 1
     6    3    4 1
     7    3   25 1
     8    4    5 1
     9    4    6 1
    10    6    7 1
    11    6   26 1
    12    6   27 1
    13    7    8 1
    14    7   12 1
    15    7    9 1
    16    9   10 1
    17    9   28 1
    18    9   29 1
    19   10   11 1
    20   10   30 1
    21   10   31 1
    22   11   12 1
    23   11   32 1
    24   11   33 1
    25   13   14 am
    26   13   34 1
    27   14   15 2
    28   14   16 1
    29   16   17 1
    30   16   19 1
    31   16   18 1
    32   18   19 1
    33   18   35 1
    34   18   36 1
    35   19   20 1
    36   19   21 1
    37   21   22 2
    38   21   23 1
@<TRIPOS>MOLECULE
ZINC43707046
   34    36     0     0     0
SMALL
USER_CHARGES

@<TRIPOS>ATOM
      1 C1         -0.0178    1.5450    0.0107 C.3       1 <0>        -0.1129
      2 C2          1.4877    1.8795   -0.0045 C.3       1 <0>        -0.0431
      3 C3          2.1812    0.6769    0.6315 C.2       1 <0>         0.0805
      4 C4          1.3181   -0.3650    0.6198 C.2       1 <0>        -0.2665
      5 S1          2.2696   -1.6590    1.3795 S.3       1 <0>         0.1334
      6 C5          3.6758   -0.7745    1.6499 C.2       1 <0>         0.3103
      7 N1          3.3777    0.4093    1.1733 N.2       1 <0>        -0.5197
      8 N2          4.8635   -1.1966    2.2358 N.am      1 <0>        -0.6332
      9 C6          5.8925   -0.3364    2.3685 C.2       1 <0>         0.7004
     10 O1          5.8157    0.7809    1.8951 O.2       1 <0>        -0.5220
     11 N3          7.0065   -0.7146    3.0260 N.am      1 <0>        -0.6217
     12 C7          7.1723   -2.0968    3.5028 C.3       1 <0>         0.0740
     13 C8          8.5366   -2.6112    3.0296 C.3       1 <0>         0.0400
     14 O2          9.5505   -1.6804    3.4161 O.3       1 <0>        -0.3448
     15 C9          9.4127   -0.3860    2.8250 C.3       1 <0>         0.0118
     16 H1          9.4100   -0.4800    1.7391 H         1 <0>         0.0563
     17 C10         8.0957    0.2409    3.2829 C.3       1 <0>         0.1202
     18 C11        10.5643    0.4874    3.2518 C.2       1 <0>         0.5088
     19 O3         11.4240    0.0432    3.9935 O.co2     1 <0>        -0.6691
     20 O4         10.6363    1.6381    2.8553 O.co2     1 <0>        -0.6833
     21 C12         0.0002   -0.0006    0.0072 C.3       1 <0>        -0.0202
     22 H2         -0.4929    1.9271    0.9143 H         1 <0>         0.0782
     23 H3         -0.5119    1.9311   -0.8808 H         1 <0>         0.0874
     24 H4          1.8332    2.0153   -1.0293 H         1 <0>         0.0870
     25 H5          1.6799    2.7785    0.5810 H         1 <0>         0.0824
     26 H6          4.9517   -2.1104    2.5492 H         1 <0>         0.4189
     27 H7          7.1299   -2.1171    4.5918 H         1 <0>         0.0824
     28 H8          6.3809   -2.7241    3.0925 H         1 <0>         0.0736
     29 H9          8.7387   -3.5801    3.4861 H         1 <0>         0.1011
     30 H10         8.5307   -2.7133    1.9444 H         1 <0>         0.0471
     31 H11         7.9156    1.1610    2.7270 H         1 <0>         0.1078
     32 H12         8.1479    0.4601    4.3494 H         1 <0>         0.0746
     33 H13        -0.8199   -0.3916    0.6093 H         1 <0>         0.0772
     34 H14        -0.0622   -0.3790   -1.0131 H         1 <0>         0.0829
@<TRIPOS>BOND
     1    1   21 1
     2    1    2 1
     3    1   22 1
     4    1   23 1
     5    2    3 1
     6    2   24 1
     7    2   25 1
     8    3    7 1
     9    3    4 2
    10    4    5 1
    11    4   21 1
    12    5    6 1
    13    6    7 2
    14    6    8 1
    15    8    9 am
    16    8   26 1
    17    9   10 2
    18    9   11 am
    19   11   17 1
    20   11   12 1
    21   12   13 1
    22   12   27 1
    23   12   28 1
    24   13   14 1
    25   13   29 1
    26   13   30 1
    27   14   15 1
    28   15   16 1
    29   15   17 1
    30   15   18 1
    31   17   31 1
    32   17   32 1
    33   18   19 2
    34   18   20 1
    35   21   33 1
    36   21   34 1
@<TRIPOS>MOLECULE
ZINC48732910
   31    33     0     0     0
SMALL
USER_CHARGES

@<TRIPOS>ATOM
      1 C1         -0.0167    1.3823    0.0096 C.ar      1 <0>        -0.1599
      2 C2          1.1808    2.0721    0.0019 C.ar      1 <0>         0.0954
      3 N1          2.3308    1.4269   -0.0130 N.ar      1 <0>        -0.4897
      4 C3          2.3867    0.1094   -0.0206 C.ar      1 <0>         0.0977
      5 C4          1.2303   -0.6473   -0.0132 C.ar      1 <0>        -0.1518
      6 C5          0.0021   -0.0041    0.0020 C.ar      1 <0>        -0.0377
      7 C6         -1.2819   -0.7930    0.0105 C.3       1 <0>         0.1776
      8 H1         -2.0959   -0.1720    0.3843 H         1 <0>         0.0883
      9 C7         -1.6072   -1.2815   -1.4167 C.3       1 <0>        -0.1204
     10 C8         -2.1786   -2.7037   -1.1755 C.3       1 <0>        -0.1336
     11 C9         -1.3194   -3.1854    0.0201 C.3       1 <0>         0.1016
     12 N2         -1.1313   -1.9840    0.8593 N.am      1 <0>        -0.6087
     13 C10        -0.8647   -1.9785    2.1804 C.2       1 <0>         0.6338
     14 O1         -0.7278   -0.9234    2.7684 O.2       1 <0>        -0.5117
     15 C11        -0.7387   -3.2556    2.9144 C.2       1 <0>         0.1962
     16 N3         -0.8595   -4.4559    2.3896 N.2       1 <0>        -0.3524
     17 N4         -0.6676   -5.3768    3.4322 N.pl3     1 <0>        -0.5423
     18 C12        -0.4372   -4.6508    4.5486 C.2       1 <0>         0.5340
     19 O2         -0.2002   -5.1491    5.7853 O.3       1 <0>        -0.7093
     20 N5         -0.4763   -3.3813    4.2258 N.2       1 <0>        -0.5879
     21 H2         -0.9553    1.9163    0.0259 H         1 <0>         0.1328
     22 H3          1.1748    3.1521    0.0078 H         1 <0>         0.1532
     23 H4          3.3473   -0.3840   -0.0331 H         1 <0>         0.1529
     24 H5          1.2825   -1.7260   -0.0195 H         1 <0>         0.1305
     25 H6         -2.3546   -0.6396   -1.8831 H         1 <0>         0.0844
     26 H7         -0.7033   -1.3270   -2.0242 H         1 <0>         0.0786
     27 H8         -3.2338   -2.6602   -0.9058 H         1 <0>         0.0770
     28 H9         -2.0257   -3.3394   -2.0476 H         1 <0>         0.0846
     29 H10        -1.8468   -3.9582    0.5793 H         1 <0>         0.1047
     30 H11        -0.3574   -3.5593   -0.3303 H         1 <0>         0.0672
     31 H12        -0.6950   -6.3440    3.3645 H         1 <0>         0.4153
@<TRIPOS>BOND
     1    1    6 ar
     2    1    2 ar
     3    1   21 1
     4    2    3 ar
     5    2   22 1
     6    3    4 ar
     7    4    5 ar
     8    4   23 1
     9    5    6 ar
    10    5   24 1
    11    6    7 1
    12    7    8 1
    13    7   12 1
    14    7    9 1
    15    9   10 1
    16    9   25 1
    17    9   26 1
    18   10   11 1
    19   10   27 1
    20   10   28 1
    21   11   12 1
    22   11   29 1
    23   11   30 1
    24   12   13 am
    25   13   14 2
    26   13   15 1
    27   15   20 1
    28   15   16 2
    29   16   17 1
    30   17   18 1
    31   17   31 1
    32   18   19 1
    33   18   20 2
@<TRIPOS>MOLECULE
ZINC61705710
   31    33     0     0     0
SMALL
USER_CHARGES

@<TRIPOS>ATOM
      1 C1         -0.0159    1.3943    0.0895 C.ar      1 <0>        -0.1160
      2 C2          1.1674    2.0981    0.0677 C.ar      1 <0>        -0.0562
      3 C3          2.3844    1.4158    0.0023 C.ar      1 <0>        -0.1613
      4 C4          2.4004    0.0198   -0.0410 C.ar      1 <0>        -0.1223
      5 C5          1.2165   -0.6830   -0.0192 C.ar      1 <0>        -0.1156
      6 C6          0.0006   -0.0007    0.0461 C.ar      1 <0>         0.0808
      7 C7         -1.2716   -0.7567    0.0700 C.2       1 <0>         0.0660
      8 N1         -2.5027   -0.2459    0.1253 N.2       1 <0>        -0.3620
      9 N2         -3.3319   -1.2331    0.1281 N.2       1 <0>        -0.1878
     10 N3         -2.6756   -2.3390    0.0770 N.2       1 <0>        -0.1881
     11 N4         -1.4128   -2.0828    0.0346 N.2       1 <0>        -0.3627
     12 C8          3.6548    2.1708   -0.0216 C.2       1 <0>         0.5838
     13 O1          3.6401    3.3823   -0.1198 O.2       1 <0>        -0.5421
     14 N5          4.8296    1.5159    0.0654 N.am      1 <0>        -0.6166
     15 C9          4.9987    0.0555    0.0629 C.3       1 <0>         0.0906
     16 C10         6.5126   -0.2306    0.1529 C.3       1 <0>        -0.1278
     17 C11         7.1466    1.0858   -0.3690 C.3       1 <0>         0.0892
     18 H1          7.1729    1.1016   -1.4585 H         1 <0>         0.0760
     19 C12         6.1583    2.1455    0.1725 C.3       1 <0>         0.0765
     20 O2          8.4544    1.2753    0.1750 O.3       1 <0>        -0.5554
     21 H2         -0.9568    1.9217    0.1446 H         1 <0>         0.1360
     22 H3          1.1545    3.1775    0.1008 H         1 <0>         0.1315
     23 H4          3.3411   -0.5082   -0.0919 H         1 <0>         0.1541
     24 H5          1.2288   -1.7624   -0.0530 H         1 <0>         0.1347
     25 H6          4.4877   -0.3784    0.9224 H         1 <0>         0.0890
     26 H7          4.5967   -0.3627   -0.8600 H         1 <0>         0.0864
     27 H8          6.8088   -0.4187    1.1849 H         1 <0>         0.0888
     28 H9          6.7851   -1.0700   -0.4868 H         1 <0>         0.0910
     29 H10         6.2000    3.0493   -0.4353 H         1 <0>         0.0812
     30 H11         6.3860    2.3764    1.2132 H         1 <0>         0.0756
     31 H12         8.8906    2.0853   -0.1226 H         1 <0>         0.3824
@<TRIPOS>BOND
     1    1    6 ar
     2    1    2 ar
     3    1   21 1
     4    2    3 ar
     5    2   22 1
     6    3    4 ar
     7    3   12 1
     8    4    5 ar
     9    4   23 1
    10    5    6 ar
    11    5   24 1
    12    6    7 1
    13    7   11 2
    14    7    8 1
    15    8    9 1
    16    9   10 2
    17   10   11 1
    18   12   13 2
    19   12   14 am
    20   14   19 1
    21   14   15 1
    22   15   16 1
    23   15   25 1
    24   15   26 1
    25   16   17 1
    26   16   27 1
    27   16   28 1
    28   17   18 1
    29   17   19 1
    30   17   20 1
    31   19   29 1
    32   19   30 1
    33   20   31 1
@<TRIPOS>MOLECULE
ZINC63952335
   38    40     0     0     0
SMALL
USER_CHARGES

@<TRIPOS>ATOM
      1 C1         -0.0184    1.5028    0.0103 C.3       1 <0>        -0.1029
      2 C2          0.0021   -0.0041    0.0020 C.2       1 <0>         0.0019
      3 C3         -1.0477   -0.7958    0.0025 C.2       1 <0>        -0.2866
      4 C4         -0.5729   -2.2480    0.0066 C.3       1 <0>         0.1175
      5 H1         -0.6367   -2.6843    1.0034 H         1 <0>         0.0831
      6 C5         -1.4856   -2.9787   -0.9765 C.3       1 <0>        -0.1118
      7 C6         -2.9391   -2.9435   -0.5369 C.3       1 <0>        -0.0515
      8 C7         -3.3361   -1.7517    0.3170 C.3       1 <0>        -0.1511
      9 C8         -2.4947   -0.5303   -0.0320 C.2       1 <0>         0.4261
     10 O1         -2.9665    0.5580   -0.2870 O.2       1 <0>        -0.4523
     11 C9         -3.2317   -4.2195    0.2550 C.3       1 <0>        -0.1433
     12 C10        -3.8191   -2.9513   -1.7884 C.3       1 <0>        -0.1461
     13 O2          0.7855   -2.1842   -0.4469 O.3       1 <0>        -0.3360
     14 C11         1.2378   -0.8844   -0.0150 C.3       1 <0>         0.1347
     15 H2          1.6668   -0.9508    0.9848 H         1 <0>         0.0995
     16 C12         2.2541   -0.3366   -0.9835 C.2       1 <0>         0.4296
     17 O3          1.8848   -0.0190   -2.2395 O.3       1 <0>        -0.6468
     18 N1          3.4893   -0.1703   -0.6064 N.2       1 <0>        -0.6580
     19 C13         4.4089    0.3254   -1.4827 C.2       1 <0>         0.5182
     20 N2          5.7208    0.5424   -1.2260 N.pl3     1 <0>        -0.5161
     21 H3          6.1854    0.3776   -0.3906 H         1 <0>         0.4238
     22 N3          6.2741    1.0536   -2.4111 N.2       1 <0>        -0.3771
     23 C14         5.3080    1.1174   -3.2892 C.2       1 <0>         0.1915
     24 N4          4.1815    0.6745   -2.7353 N.2       1 <0>        -0.5602
     25 H4          1.0042    1.8801    0.0026 H         1 <0>         0.0737
     26 H5         -0.5455    1.8639   -0.8728 H         1 <0>         0.0860
     27 H6         -0.5286    1.8543    0.9071 H         1 <0>         0.0749
     28 H7         -1.4001   -2.5085   -1.9561 H         1 <0>         0.0757
     29 H8         -1.1639   -4.0172   -1.0542 H         1 <0>         0.0760
     30 H9         -4.3865   -1.5202    0.1403 H         1 <0>         0.0885
     31 H10        -3.1994   -2.0046    1.3684 H         1 <0>         0.0994
     32 H11        -2.5783   -4.2643    1.1263 H         1 <0>         0.0583
     33 H12        -4.2719   -4.2145    0.5807 H         1 <0>         0.0555
     34 H13        -3.0533   -5.0888   -0.3780 H         1 <0>         0.0595
     35 H14        -3.6242   -3.8562   -2.3640 H         1 <0>         0.0594
     36 H15        -4.8685   -2.9263   -1.4949 H         1 <0>         0.0571
     37 H16        -3.5914   -2.0769   -2.3981 H         1 <0>         0.0569
     38 H17         5.4087    1.4701   -4.3050 H         1 <0>         0.1928
@<TRIPOS>BOND
     1    1    2 1
     2    1   25 1
     3    1   26 1
     4    1   27 1
     5    2   14 1
     6    2    3 2
     7    3    9 1
     8    3    4 1
     9    4    5 1
    10    4    6 1
    11    4   13 1
    12    6    7 1
    13    6   28 1
    14    6   29 1
    15    7    8 1
    16    7   11 1
    17    7   12 1
    18    8    9 1
    19    8   30 1
    20    8   31 1
    21    9   10 2
    22   11   32 1
    23   11   33 1
    24   11   34 1
    25   12   35 1
    26   12   36 1
    27   12   37 1
    28   13   14 1
    29   14   15 1
    30   14   16 1
    31   16   17 1
    32   16   18 2
    33   18   19 1
    34   19   24 2
    35   19   20 1
    36   20   21 1
    37   20   22 1
    38   22   23 2
    39   23   24 1
    40   23   38 1
@<TRIPOS>MOLECULE
ZINC13261250
   41    43     0     0     0
SMALL
USER_CHARGES
5-chloro-4-[[1-(4-fluorophenyl)-5-methyl-1,2,4-triazole-3-carbonyl]amino]-2-methoxy-benzoic acid
@<TRIPOS>ATOM
      1 C1         -3.4051    4.8641    0.0061 C.3       1 <0>        -0.0787
      2 C2         -2.7509    3.5065    0.0058 C.2       1 <0>         0.2262
      3 N1         -1.4640    3.2686    0.0124 N.2       1 <0>        -0.4715
      4 C3         -1.3042    1.9324    0.0052 C.2       1 <0>         0.1585
      5 N2         -2.4991    1.3812    0.0037 N.2       1 <0>        -0.2443
      6 N3         -3.3855    2.3164    0.0040 N.pl3     1 <0>        -0.2531
      7 C4         -4.7747    2.1286    0.0028 C.ar      1 <0>         0.1129
      8 C5         -5.5956    3.0074    0.6969 C.ar      1 <0>        -0.0854
      9 C6         -6.9642    2.8229    0.6913 C.ar      1 <0>        -0.1342
     10 C7         -7.5173    1.7570    0.0015 C.ar      1 <0>         0.1138
     11 C8         -6.6998    0.8766   -0.6875 C.ar      1 <0>        -0.1350
     12 C9         -5.3311    1.0602   -0.6878 C.ar      1 <0>        -0.0635
     13 F1         -8.8561    1.5755    0.0010 F         1 <0>        -0.1300
     14 C10        -0.0143    1.2112    0.0053 C.2       1 <0>         0.6164
     15 O1          0.0025   -0.0043    0.0040 O.2       1 <0>        -0.4910
     16 N4          1.1435    1.9012    0.0014 N.am      1 <0>        -0.6418
     17 C11         2.3584    1.2242    0.0913 C.ar      1 <0>         0.1828
     18 C12         2.5036   -0.0194   -0.5096 C.ar      1 <0>        -0.2191
     19 C13         3.7101   -0.6917   -0.4272 C.ar      1 <0>         0.1803
     20 C14         4.7818   -0.1179    0.2751 C.ar      1 <0>        -0.1432
     21 C15         4.6241    1.1330    0.8822 C.ar      1 <0>        -0.0127
     22 C16         3.4217    1.7953    0.7891 C.ar      1 <0>        -0.1074
     23 Cl1         3.2278    3.3468    1.5433 Cl        1 <0>        -0.0795
     24 C17         6.0659   -0.8295    0.3729 C.2       1 <0>         0.4940
     25 O2          6.2005   -1.9159   -0.1552 O.co2     1 <0>        -0.6084
     26 O3          3.8554   -1.9039   -1.0188 O.3       1 <0>        -0.2640
     27 C18         2.7223   -2.4255   -1.7160 C.3       1 <0>         0.0192
     28 H1         -3.5642    5.1905    1.0338 H         1 <0>         0.0958
     29 H2         -2.7604    5.5782   -0.5063 H         1 <0>         0.1041
     30 H3         -4.3639    4.8054   -0.5090 H         1 <0>         0.0874
     31 H4         -5.1643    3.8364    1.2383 H         1 <0>         0.1491
     32 H5         -7.6032    3.5080    1.2286 H         1 <0>         0.1524
     33 H6         -7.1330    0.0457   -1.2245 H         1 <0>         0.1513
     34 H7         -4.6939    0.3730   -1.2246 H         1 <0>         0.1500
     35 H8          1.1312    2.8689   -0.0641 H         1 <0>         0.4213
     36 H9          1.6758   -0.4598   -1.0454 H         1 <0>         0.1516
     37 H10         5.4458    1.5784    1.4232 H         1 <0>         0.1542
     38 H11         2.9729   -3.3975   -2.1408 H         1 <0>         0.0970
     39 H12         1.8884   -2.5360   -1.0229 H         1 <0>         0.0547
     40 H13         2.4413   -1.7408   -2.5163 H         1 <0>         0.0479
     41 O4          7.0931   -0.2765    1.0482 O.co2     1 <0>        -0.7580
@<TRIPOS>BOND
     1    1    2 1
     2    1   28 1
     3    1   29 1
     4    1   30 1
     5    2    6 1
     6    2    3 2
     7    3    4 1
     8    4    5 2
     9    4   14 1
    10    5    6 1
    11    6    7 1
    12    7   12 ar
    13    7    8 ar
    14    8    9 ar
    15    8   31 1
    16    9   10 ar
    17    9   32 1
    18   10   11 ar
    19   10   13 1
    20   11   12 ar
    21   11   33 1
    22   12   34 1
    23   14   15 2
    24   14   16 am
    25   16   17 1
    26   16   35 1
    27   17   22 ar
    28   17   18 ar
    29   18   19 ar
    30   18   36 1
    31   19   20 ar
    32   19   26 1
    33   20   21 ar
    34   20   24 1
    35   21   22 ar
    36   21   37 1
    37   22   23 1
    38   24   25 2
    39   24   41 1
    40   26   27 1
    41   27   38 1
    42   27   39 1
    43   27   40 1
@<TRIPOS>MOLECULE
ZINC00778710
   43    45     0     0     0
SMALL
USER_CHARGES

@<TRIPOS>ATOM
      1 C1         -0.0169    1.3945    0.0097 C.ar      1 <0>        -0.0710
      2 C2          1.1669    2.0970    0.0022 C.ar      1 <0>        -0.1034
      3 C3          2.3808    1.4180   -0.0135 C.ar      1 <0>         0.0909
      4 C4          2.4041    0.0272   -0.0212 C.ar      1 <0>        -0.1224
      5 C5          1.2249   -0.6830   -0.0133 C.ar      1 <0>        -0.0640
      6 C6          0.0021   -0.0041    0.0020 C.ar      1 <0>        -0.1073
      7 C7         -1.2623   -0.7599    0.0105 C.2       1 <0>         0.5183
      8 O1         -2.3308   -0.1645    0.0243 O.co2     1 <0>        -0.6791
      9 O2         -1.2438   -1.9830    0.0038 O.co2     1 <0>        -0.6780
     10 N1          3.5806    2.1352   -0.0221 N.pl3     1 <0>        -0.2908
     11 C8          4.7548    1.7939    0.5806 C.2       1 <0>         0.1933
     12 N2          5.6153    2.7527    0.3132 N.2       1 <0>        -0.3391
     13 N3          5.0669    3.6623   -0.4081 N.2       1 <0>        -0.0399
     14 N4          3.8390    3.3617   -0.6591 N.2       1 <0>        -0.0717
     15 S1          5.0615    0.3454    1.5357 S.3       1 <0>         0.1322
     16 C9          6.7979    0.5084    2.0350 C.3       1 <0>        -0.1679
     17 C10         7.1945   -0.6821    2.8695 C.2       1 <0>         0.5371
     18 O3          6.3855   -1.5546    3.1044 O.2       1 <0>        -0.5159
     19 N5          8.4482   -0.7772    3.3549 N.am      1 <0>        -0.7210
     20 C11         8.8338   -1.9345    4.1662 C.3       1 <0>         0.1454
     21 C12         9.2593   -3.0820    3.2480 C.3       1 <0>        -0.1308
     22 C13         9.6620   -4.2906    4.0952 C.3       1 <0>        -0.1180
     23 C14        10.8291   -3.9079    5.0075 C.3       1 <0>        -0.1223
     24 C15        10.4036   -2.7604    5.9257 C.3       1 <0>        -0.1163
     25 C16        10.0009   -1.5517    5.0785 C.3       1 <0>        -0.1263
     26 H1         -0.9589    1.9225    0.0260 H         1 <0>         0.1438
     27 H2          1.1532    3.1769    0.0081 H         1 <0>         0.1307
     28 H3          3.3487   -0.4962   -0.0338 H         1 <0>         0.1319
     29 H4          1.2439   -1.7628   -0.0197 H         1 <0>         0.1456
     30 H5          7.4283    0.5559    1.1470 H         1 <0>         0.1291
     31 H6          6.9239    1.4199    2.6192 H         1 <0>         0.1285
     32 H7          9.0953   -0.0793    3.1670 H         1 <0>         0.4031
     33 H8          7.9861   -2.2508    4.7740 H         1 <0>         0.0918
     34 H9          8.4279   -3.3547    2.5980 H         1 <0>         0.0701
     35 H10        10.1070   -2.7657    2.6401 H         1 <0>         0.0640
     36 H11         8.8143   -4.6069    4.7031 H         1 <0>         0.0659
     37 H12         9.9651   -5.1081    3.4411 H         1 <0>         0.0657
     38 H13        11.1160   -4.7689    5.6112 H         1 <0>         0.0637
     39 H14        11.6768   -3.5916    4.3997 H         1 <0>         0.0622
     40 H15         9.5559   -3.0766    6.5336 H         1 <0>         0.0663
     41 H16        11.2351   -2.4877    6.5757 H         1 <0>         0.0671
     42 H17        10.8486   -1.2354    4.4706 H         1 <0>         0.0686
     43 H18         9.6978   -0.7342    5.7326 H         1 <0>         0.0698
@<TRIPOS>BOND
     1    1    6 ar
     2    1    2 ar
     3    1   26 1
     4    2    3 ar
     5    2   27 1
     6    3    4 ar
     7    3   10 1
     8    4    5 ar
     9    4   28 1
    10    5    6 ar
    11    5   29 1
    12    6    7 1
    13    7    8 2
    14    7    9 1
    15   10   14 1
    16   10   11 1
    17   11   12 2
    18   11   15 1
    19   12   13 1
    20   13   14 2
    21   15   16 1
    22   16   17 1
    23   16   30 1
    24   16   31 1
    25   17   18 2
    26   17   19 am
    27   19   20 1
    28   19   32 1
    29   20   25 1
    30   20   21 1
    31   20   33 1
    32   21   22 1
    33   21   34 1
    34   21   35 1
    35   22   23 1
    36   22   36 1
    37   22   37 1
    38   23   24 1
    39   23   38 1
    40   23   39 1
    41   24   25 1
    42   24   40 1
    43   24   41 1
    44   25   42 1
    45   25   43 1
@<TRIPOS>MOLECULE
ZINC51032772
   45    46     0     0     0
SMALL
USER_CHARGES

@<TRIPOS>ATOM
      1 C1         -0.0493    1.5609   -0.0192 C.3       1 <0>        -0.1446
      2 C2         -0.0197    0.0312   -0.0257 C.3       1 <0>        -0.0113
      3 C3          0.7279   -0.4697    1.2117 C.3       1 <0>        -0.1455
      4 C4         -1.4304   -0.4986   -0.0090 C.2       1 <0>         0.2553
      5 N1         -1.9781   -1.2820   -0.9449 N.2       1 <0>        -0.5451
      6 C5         -3.2123   -1.5609   -0.6290 C.2       1 <0>         0.3091
      7 O1         -3.4947   -0.9570    0.5322 O.3       1 <0>        -0.1066
      8 N2         -2.3129   -0.2729    0.9214 N.2       1 <0>        -0.3495
      9 C6         -4.1581   -2.4157   -1.4327 C.3       1 <0>        -0.0273
     10 C7         -4.0306   -3.8740   -0.9879 C.3       1 <0>        -0.1215
     11 C8         -4.9764   -4.7288   -1.7916 C.2       1 <0>         0.3506
     12 O2         -6.2575   -4.8580   -1.4066 O.3       1 <0>        -0.6036
     13 C9         -4.5323   -5.3710   -2.9092 C.2       1 <0>        -0.4158
     14 C10        -3.1673   -5.2334   -3.3194 C.1       1 <0>         0.2928
     15 N3         -2.0844   -5.1241   -3.6448 N.1       1 <0>        -0.5266
     16 C11        -5.4548   -6.2048   -3.6931 C.2       1 <0>         0.5895
     17 O3         -6.6147   -6.3218   -3.3446 O.2       1 <0>        -0.5233
     18 N4         -5.0159   -6.8397   -4.7980 N.am      1 <0>        -0.6932
     19 C12        -5.8670   -7.7106   -5.4900 C.ar      1 <0>         0.1412
     20 C13        -7.2245   -7.4317   -5.5771 C.ar      1 <0>        -0.0853
     21 C14        -8.0631   -8.2908   -6.2595 C.ar      1 <0>        -0.1304
     22 C15        -7.5496   -9.4322   -6.8578 C.ar      1 <0>         0.0903
     23 C16        -6.1936   -9.7114   -6.7712 C.ar      1 <0>        -0.1885
     24 C17        -5.3529   -8.8503   -6.0940 C.ar      1 <0>        -0.1232
     25 O4         -8.3760  -10.2779   -7.5292 O.3       1 <0>        -0.3223
     26 C18        -7.7797  -11.4339   -8.1209 C.3       1 <0>         0.0299
     27 H1          0.9710    1.9441   -0.0313 H         1 <0>         0.0722
     28 H2         -0.5819    1.9178   -0.9007 H         1 <0>         0.0598
     29 H3         -0.5581    1.9106    0.8791 H         1 <0>         0.0632
     30 H4          0.4892   -0.3185   -0.9240 H         1 <0>         0.1060
     31 H5          0.2190   -0.1200    2.1099 H         1 <0>         0.0632
     32 H6          0.7490   -1.5595    1.2070 H         1 <0>         0.0608
     33 H7          1.7482   -0.0865    1.1996 H         1 <0>         0.0723
     34 H8         -5.1810   -2.0750   -1.2725 H         1 <0>         0.1118
     35 H9         -3.9100   -2.3356   -2.4911 H         1 <0>         0.1150
     36 H10        -3.0077   -4.2146   -1.1481 H         1 <0>         0.0761
     37 H11        -4.2787   -3.9541    0.0705 H         1 <0>         0.0820
     38 H12        -4.1105   -6.6936   -5.1139 H         1 <0>         0.3992
     39 H13        -7.6245   -6.5434   -5.1111 H         1 <0>         0.1507
     40 H14        -9.1190   -8.0742   -6.3271 H         1 <0>         0.1289
     41 H15        -5.7945  -10.6002   -7.2372 H         1 <0>         0.1241
     42 H16        -4.2964   -9.0653   -6.0307 H         1 <0>         0.1227
     43 H17        -7.0266  -11.1239   -8.8453 H         1 <0>         0.0514
     44 H18        -7.3102  -12.0381   -7.3446 H         1 <0>         0.0518
     45 H19        -8.5476  -12.0216   -8.6240 H         1 <0>         0.0940
@<TRIPOS>BOND
     1    1    2 1
     2    1   27 1
     3    1   28 1
     4    1   29 1
     5    2    3 1
     6    2    4 1
     7    2   30 1
     8    3   31 1
     9    3   32 1
    10    3   33 1
    11    4    8 2
    12    4    5 1
    13    5    6 2
    14    6    7 1
    15    6    9 1
    16    7    8 1
    17    9   10 1
    18    9   34 1
    19    9   35 1
    20   10   11 1
    21   10   36 1
    22   10   37 1
    23   11   12 1
    24   11   13 2
    25   13   14 1
    26   13   16 1
    27   14   15 3
    28   16   17 2
    29   16   18 am
    30   18   19 1
    31   18   38 1
    32   19   24 ar
    33   19   20 ar
    34   20   21 ar
    35   20   39 1
    36   21   22 ar
    37   21   40 1
    38   22   23 ar
    39   22   25 1
    40   23   24 ar
    41   23   41 1
    42   24   42 1
    43   25   26 1
    44   26   43 1
    45   26   44 1
    46   26   45 1
@<TRIPOS>MOLECULE
ZINC62674066
   32    33     0     0     0
SMALL
USER_CHARGES

@<TRIPOS>ATOM
      1 C1         -0.0099    1.3885    0.0143 C.ar      1 <0>        -0.0245
      2 C2          1.1658    2.0611   -0.2652 C.ar      1 <0>        -0.1920
      3 C3          2.3683    1.3789   -0.2850 C.ar      1 <0>        -0.0130
      4 C4          2.3990    0.0226   -0.0256 C.ar      1 <0>        -0.1369
      5 C5          1.2202   -0.6559    0.2554 C.ar      1 <0>         0.2849
      6 C6          0.0136    0.0326    0.2745 C.ar      1 <0>        -0.2049
      7 N1          1.2475   -2.0276    0.5178 N.pl3     1 <0>        -0.6947
      8 C7         -0.0063   -2.7663    0.6862 C.3       1 <0>         0.1489
      9 C8          0.2980   -4.2170    0.9578 C.2       1 <0>         0.4820
     10 O1         -0.7099   -5.0937    1.1475 O.3       1 <0>        -0.7112
     11 N2          1.5225   -4.6208    1.0090 N.2       1 <0>        -1.0615
     12 S1          1.8569   -6.2150    1.3075 S.o2      1 <0>         2.6891
     13 O2          1.4257   -6.4787    2.6355 O.2       1 <0>        -0.9942
     14 O3          1.3733   -6.9475    0.1899 O.2       1 <0>        -0.9924
     15 C9          3.6103   -6.3892    1.3033 C.2       1 <0>        -0.6932
     16 C10         4.4813   -6.2808    2.3362 C.2       1 <0>        -0.0371
     17 C11         5.8308   -6.4602    2.0967 C.2       1 <0>        -0.1827
     18 C12         6.2432   -6.7391    0.8360 C.2       1 <0>        -0.1623
     19 S2          4.6998   -6.7619   -0.0610 S.3       1 <0>         0.1531
     20 N3          3.6866   -0.7069   -0.0475 N.pl3     1 <0>         0.0432
     21 O4          4.6880   -0.1785    0.3761 O.2       1 <0>        -0.1742
     22 O5          3.7368   -1.8313   -0.4891 O.3       1 <0>        -0.1601
     23 H1         -0.9469    1.9252    0.0335 H         1 <0>         0.1355
     24 H2          1.1446    3.1215   -0.4687 H         1 <0>         0.1353
     25 H3          3.2845    1.9071   -0.5040 H         1 <0>         0.1391
     26 H4         -0.9048   -0.4919    0.4930 H         1 <0>         0.1444
     27 H5          2.0967   -2.4910    0.5884 H         1 <0>         0.4308
     28 H6         -0.5641   -2.3489    1.5246 H         1 <0>         0.0886
     29 H7         -0.6015   -2.6839   -0.2232 H         1 <0>         0.0915
     30 H8          4.1262   -6.0573    3.3314 H         1 <0>         0.1423
     31 H9          6.5459   -6.3789    2.9019 H         1 <0>         0.1370
     32 H10         7.2452   -6.9078    0.4699 H         1 <0>         0.1894
@<TRIPOS>BOND
     1    1    6 ar
     2    1    2 ar
     3    1   23 1
     4    2    3 ar
     5    2   24 1
     6    3    4 ar
     7    3   25 1
     8    4    5 ar
     9    4   20 1
    10    5    6 ar
    11    5    7 1
    12    6   26 1
    13    7    8 1
    14    7   27 1
    15    8    9 1
    16    8   28 1
    17    8   29 1
    18    9   10 1
    19    9   11 2
    20   11   12 1
    21   12   13 2
    22   12   14 2
    23   12   15 1
    24   15   19 1
    25   15   16 2
    26   16   17 1
    27   16   30 1
    28   17   18 2
    29   17   31 1
    30   18   19 1
    31   18   32 1
    32   20   21 2
    33   20   22 1
@<TRIPOS>MOLECULE
ZINC66915601
   49    51     0     0     0
SMALL
USER_CHARGES

@<TRIPOS>ATOM
      1 C1         -0.0187    1.5258    0.0104 C.3       1 <0>        -0.1568
      2 C2          0.0021   -0.0041    0.0020 C.3       1 <0>         0.1247
      3 H1          0.5123   -0.3556   -0.8948 H         1 <0>         0.0669
      4 C3         -1.4117   -0.5257    0.0127 C.2       1 <0>         0.4263
      5 O1         -1.9973   -0.8604    1.1787 O.3       1 <0>        -0.6467
      6 N1         -2.0673   -0.6528   -1.1053 N.2       1 <0>        -0.6685
      7 C4         -3.3465   -1.1248   -1.0956 C.2       1 <0>         0.5212
      8 N2         -4.0331   -1.4860   -0.0290 N.2       1 <0>        -0.5464
      9 H2         -3.9144   -1.1175   -3.1082 H         1 <0>         0.4229
     10 C5         -5.2527   -1.8978   -0.3962 C.2       1 <0>         0.2460
     11 N3         -5.3629   -1.8054   -1.7032 N.2       1 <0>        -0.3307
     12 N4         -4.1436   -1.3012   -2.1838 N.pl3     1 <0>        -0.5211
     13 C6         -6.3107   -2.3814    0.5242 C.ar      1 <0>        -0.0211
     14 C7         -6.0761   -2.4289    1.8965 C.ar      1 <0>        -0.0386
     15 C8         -7.0638   -2.8792    2.7488 C.ar      1 <0>        -0.1654
     16 C9         -8.2873   -3.2846    2.2452 C.ar      1 <0>        -0.0823
     17 C10        -8.5304   -3.2420    0.8855 C.ar      1 <0>        -0.2218
     18 C11        -7.5497   -2.7861    0.0189 C.ar      1 <0>         0.1463
     19 O2         -7.7895   -2.7381   -1.3173 O.3       1 <0>        -0.2838
     20 C12        -9.0783   -3.1674   -1.7609 C.3       1 <0>         0.0264
     21 O3          0.6932   -0.4774    1.1597 O.3       1 <0>        -0.3497
     22 C13         2.0985   -0.6511    0.9672 C.3       1 <0>         0.0661
     23 C14         2.7322   -1.1581    2.2642 C.3       1 <0>         0.0947
     24 H3          2.4860   -0.4775    3.0793 H         1 <0>         0.0648
     25 C15         4.2524   -1.2260    2.0972 C.3       1 <0>        -0.1486
     26 C16         4.8742   -1.7910    3.3781 C.3       1 <0>        -0.1201
     27 C17         4.2594   -3.1635    3.6686 C.3       1 <0>        -0.1573
     28 C18         2.7389   -3.0208    3.7749 C.3       1 <0>         0.0589
     29 O4          2.2282   -2.4615    2.5631 O.3       1 <0>        -0.3618
     30 H4          1.0039    1.9031    0.0027 H         1 <0>         0.0499
     31 H5         -0.5459    1.8868   -0.8726 H         1 <0>         0.0685
     32 H6         -0.5289    1.8773    0.9072 H         1 <0>         0.0619
     33 H7         -5.1222   -2.1140    2.2930 H         1 <0>         0.1469
     34 H8         -6.8810   -2.9156    3.8126 H         1 <0>         0.1237
     35 H9         -9.0556   -3.6362    2.9178 H         1 <0>         0.1198
     36 H10        -9.4870   -3.5603    0.4983 H         1 <0>         0.1251
     37 H11        -9.8464   -2.5443   -1.3029 H         1 <0>         0.0493
     38 H12        -9.1374   -3.0785   -2.8457 H         1 <0>         0.0950
     39 H13        -9.2341   -4.2070   -1.4726 H         1 <0>         0.0493
     40 H14         2.2694   -1.3764    0.1716 H         1 <0>         0.0522
     41 H15         2.5481    0.3029    0.6919 H         1 <0>         0.0570
     42 H16         4.4979   -1.8747    1.2563 H         1 <0>         0.0726
     43 H17         4.6437   -0.2255    1.9130 H         1 <0>         0.0738
     44 H18         5.9512   -1.8945    3.2456 H         1 <0>         0.0658
     45 H19         4.6710   -1.1169    4.2102 H         1 <0>         0.0636
     46 H20         4.5050   -3.8513    2.8595 H         1 <0>         0.0700
     47 H21         4.6557   -3.5486    4.6082 H         1 <0>         0.0701
     48 H22         2.2923   -4.0015    3.9392 H         1 <0>         0.0921
     49 H23         2.4929   -2.3647    4.6099 H         1 <0>         0.0486
@<TRIPOS>BOND
     1    1    2 1
     2    1   30 1
     3    1   31 1
     4    1   32 1
     5    2    3 1
     6    2    4 1
     7    2   21 1
     8    4    5 1
     9    4    6 2
    10    6    7 1
    11    7    8 2
    12    7   12 1
    13    8   10 1
    14    9   12 1
    15   10   13 1
    16   10   11 2
    17   11   12 1
    18   13   18 ar
    19   13   14 ar
    20   14   15 ar
    21   14   33 1
    22   15   16 ar
    23   15   34 1
    24   16   17 ar
    25   16   35 1
    26   17   18 ar
    27   17   36 1
    28   18   19 1
    29   19   20 1
    30   20   37 1
    31   20   38 1
    32   20   39 1
    33   21   22 1
    34   22   23 1
    35   22   40 1
    36   22   41 1
    37   23   24 1
    38   23   29 1
    39   23   25 1
    40   25   26 1
    41   25   42 1
    42   25   43 1
    43   26   27 1
    44   26   44 1
    45   26   45 1
    46   27   28 1
    47   27   46 1
    48   27   47 1
    49   28   29 1
    50   28   48 1
    51   28   49 1
@<TRIPOS>MOLECULE
ZINC00565664
   38    41     0     0     0
SMALL
USER_CHARGES
(2R)-2-(3-nitrophenyl)-2,3,5,6,7,8-hexahydro-1H-benzothiopheno[3,2-e]pyrimidin-4-one
@<TRIPOS>ATOM
      1 C1         -1.2188    1.7505    0.0173 C.ar      1 <0>        -0.1162
      2 C2         -1.2375    3.1329    0.0294 C.ar      1 <0>        -0.0439
      3 C3         -0.0501    3.8402    0.0223 C.ar      1 <0>        -0.1279
      4 C4          1.1565    3.1653    0.0081 C.ar      1 <0>        -0.0299
      5 C5          1.1752    1.7833    0.0004 C.ar      1 <0>        -0.0433
      6 C6         -0.0126    1.0758    0.0080 C.ar      1 <0>        -0.0477
      7 N1          2.4670    1.0608   -0.0154 N.pl3     1 <0>         0.0256
      8 O1          2.4835   -0.1571   -0.0217 O.2       1 <0>        -0.1548
      9 O2          3.5134    1.6841   -0.0220 O.3       1 <0>        -0.1532
     10 C7         -0.0705    5.3471    0.0307 C.3       1 <0>         0.4409
     11 H1         -0.0916    5.7657   -0.9863 H         1 <0>         0.1285
     12 N2         -1.2771    5.8096    0.7403 N.pl3     1 <0>        -0.7048
     13 C8         -1.2039    5.8636    2.1084 C.2       1 <0>         0.1291
     14 C9          0.0087    5.9790    2.8042 C.2       1 <0>        -0.2817
     15 C10        -0.0946    6.0323    4.2539 C.2       1 <0>        -0.0240
     16 C11        -1.3481    5.9558    4.7536 C.2       1 <0>        -0.2064
     17 S1         -2.4002    5.8186    3.3323 S.3       1 <0>         0.1370
     18 C12        -1.7503    5.9829    6.1955 C.3       1 <0>        -0.0326
     19 C13        -0.4997    5.7397    7.0526 C.3       1 <0>        -0.1142
     20 C14         0.6263    6.6475    6.5493 C.3       1 <0>        -0.1216
     21 C15         1.1087    6.1666    5.1799 C.3       1 <0>        -0.0617
     22 C16         1.2545    6.0329    2.0051 C.2       1 <0>         0.5947
     23 O3          2.3338    6.2447    2.5270 O.2       1 <0>        -0.5250
     24 N3          1.1436    5.8379    0.6745 N.am      1 <0>        -0.7595
     25 H2         -2.1467    1.1979    0.0188 H         1 <0>         0.1516
     26 H3         -2.1800    3.6602    0.0410 H         1 <0>         0.1426
     27 H4          2.0843    3.7180    0.0025 H         1 <0>         0.1548
     28 H5          0.0021   -0.0041    0.0020 H         1 <0>         0.1564
     29 H6         -2.1759    6.0903    0.1717 H         1 <0>         0.4518
     30 H7         -2.1863    6.9637    6.4361 H         1 <0>         0.0799
     31 H8         -2.4943    5.1948    6.3835 H         1 <0>         0.0777
     32 H9         -0.7248    5.9723    8.1039 H         1 <0>         0.0743
     33 H10        -0.1958    4.6860    6.9672 H         1 <0>         0.0676
     34 H11         0.2542    7.6789    6.4616 H         1 <0>         0.0662
     35 H12         1.4653    6.6196    7.2602 H         1 <0>         0.0709
     36 H13         1.6041    5.1897    5.2814 H         1 <0>         0.0761
     37 H14         1.8169    6.8947    4.7576 H         1 <0>         0.0884
     38 H15         2.0320    6.0699    0.0688 H         1 <0>         0.4341
@<TRIPOS>BOND
     1    1    6 ar
     2    1    2 ar
     3    1   25 1
     4    2    3 ar
     5    2   26 1
     6    3    4 ar
     7    3   10 1
     8    4    5 ar
     9    4   27 1
    10    5    6 ar
    11    5    7 1
    12    6   28 1
    13    7    8 2
    14    7    9 1
    15   10   11 1
    16   10   24 1
    17   10   12 1
    18   12   13 1
    19   12   29 1
    20   13   17 1
    21   13   14 2
    22   14   15 1
    23   14   22 1
    24   15   21 1
    25   15   16 2
    26   16   17 1
    27   16   18 1
    28   18   19 1
    29   18   30 1
    30   18   31 1
    31   19   20 1
    32   19   32 1
    33   19   33 1
    34   20   21 1
    35   20   34 1
    36   20   35 1
    37   21   36 1
    38   21   37 1
    39   22   23 2
    40   22   24 am
    41   24   38 1
@<TRIPOS>MOLECULE
ZINC12377189
   32    35     0     0     0
SMALL
USER_CHARGES

@<TRIPOS>ATOM
      1 C1         -0.0167    1.3810    0.0096 C.ar      1 <0>        -0.1498
      2 C2          1.1673    2.0893    0.0021 C.ar      1 <0>        -0.0168
      3 C3          2.3820    1.4042   -0.0132 C.ar      1 <0>        -0.1309
      4 C4          2.4036   -0.0007   -0.0209 C.ar      1 <0>         0.1769
      5 C5          1.1998   -0.6933   -0.0123 C.ar      1 <0>        -0.1454
      6 C6          0.0021   -0.0041    0.0020 C.ar      1 <0>        -0.0528
      7 N1          3.7225   -0.4413   -0.0364 N.am      1 <0>        -0.6555
      8 C7          4.5834    0.5909   -0.0393 C.2       1 <0>         0.5277
      9 O1          5.7961    0.5119   -0.0523 O.2       1 <0>        -0.4531
     10 C8          3.7885    1.8446   -0.0247 C.2       1 <0>         0.1942
     11 N2          4.2431    3.0854   -0.0225 N.2       1 <0>        -0.2719
     12 N3          5.5139    3.3067   -0.0339 N.2       1 <0>        -0.2719
     13 C9          5.9685    4.5475   -0.0317 C.2       1 <0>         0.1942
     14 C10         5.1737    5.8012   -0.0106 C.2       1 <0>         0.5277
     15 O2          3.9611    5.8801    0.0086 O.2       1 <0>        -0.4531
     16 N4          6.0346    6.8333   -0.0161 N.am      1 <0>        -0.6555
     17 C11         7.3534    6.3928   -0.0392 C.ar      1 <0>         0.1770
     18 C12         7.3750    4.9879   -0.0433 C.ar      1 <0>        -0.1309
     19 C13         8.5897    4.3028   -0.0594 C.ar      1 <0>        -0.0168
     20 C14         9.7737    5.0111   -0.0678 C.ar      1 <0>        -0.1498
     21 C15         9.7549    6.3962   -0.0602 C.ar      1 <0>        -0.0528
     22 C16         8.5571    7.0854   -0.0530 C.ar      1 <0>        -0.1454
     23 H1         -0.9597    1.9073    0.0260 H         1 <0>         0.1379
     24 H2          1.1536    3.1692    0.0077 H         1 <0>         0.1408
     25 H3          1.1997   -1.7733   -0.0182 H         1 <0>         0.1363
     26 H4         -0.9291   -0.5511    0.0080 H         1 <0>         0.1388
     27 H5          3.9873   -1.3744   -0.0437 H         1 <0>         0.4237
     28 H6          5.7698    7.7664   -0.0053 H         1 <0>         0.4237
     29 H7          8.6034    3.2229   -0.0650 H         1 <0>         0.1408
     30 H8         10.7167    4.4848   -0.0799 H         1 <0>         0.1379
     31 H9         10.6861    6.9432   -0.0664 H         1 <0>         0.1388
     32 H10         8.5572    8.1654   -0.0455 H         1 <0>         0.1363
@<TRIPOS>BOND
     1    1    6 ar
     2    1    2 ar
     3    1   23 1
     4    2    3 ar
     5    2   24 1
     6    3   10 1
     7    3    4 ar
     8    4    5 ar
     9    4    7 1
    10    5    6 ar
    11    5   25 1
    12    6   26 1
    13    7    8 am
    14    7   27 1
    15    8    9 2
    16    8   10 1
    17   10   11 2
    18   11   12 1
    19   12   13 2
    20   13   18 1
    21   13   14 1
    22   14   15 2
    23   14   16 am
    24   16   17 1
    25   16   28 1
    26   17   22 ar
    27   17   18 ar
    28   18   19 ar
    29   19   20 ar
    30   19   29 1
    31   20   21 ar
    32   20   30 1
    33   21   22 ar
    34   21   31 1
    35   22   32 1
@<TRIPOS>MOLECULE
ZINC40734182
   46    48     0     0     0
SMALL
USER_CHARGES

@<TRIPOS>ATOM
      1 C1          2.5696    2.6777   -2.3407 C.3       1 <0>        -0.1481
      2 C2          1.1736    2.0647   -2.2125 C.3       1 <0>        -0.1299
      3 C3          1.2726    0.5422   -2.3271 C.3       1 <0>         0.1774
      4 H1          1.7907    0.2781   -3.2491 H         1 <0>         0.0631
      5 C4          2.0448   -0.0141   -1.1267 C.3       1 <0>        -0.1315
      6 C5          2.0206   -1.5435   -1.1740 C.3       1 <0>        -0.1162
      7 C6          0.5740   -2.0355   -1.0877 C.3       1 <0>        -0.1361
      8 C7         -0.2149   -1.5021   -2.2877 C.3       1 <0>         0.1474
      9 N1         -0.0764   -0.0398   -2.3362 N.pl3     1 <0>        -0.6501
     10 C8         -1.1990    0.7765   -2.3857 C.ar      1 <0>         0.3727
     11 C9         -1.8088    1.0731   -3.6096 C.ar      1 <0>         0.1345
     12 C10        -2.9325    1.8974   -3.6021 C.ar      1 <0>         0.3304
     13 N2         -3.3796    2.3674   -2.4404 N.ar      1 <0>        -0.5041
     14 C11        -2.7767    2.0644   -1.3097 C.ar      1 <0>         0.2669
     15 N3         -1.7147    1.2842   -1.2705 N.ar      1 <0>        -0.4944
     16 N4         -3.5797    2.2256   -4.7965 N.pl3     1 <0>        -0.3149
     17 C12        -4.6051    3.1056   -4.9357 C.2       1 <0>         0.1211
     18 C13        -4.9430    3.1368   -6.2454 C.2       1 <0>        -0.2689
     19 C14        -4.1020    2.2516   -6.9294 C.2       1 <0>         0.1054
     20 N5         -3.2827    1.7103   -6.0650 N.2       1 <0>        -0.3102
     21 C15        -4.1314    1.9738   -8.4103 C.3       1 <0>        -0.0773
     22 C16        -5.2497    3.9029   -3.8312 C.3       1 <0>        -0.1019
     23 N6         -1.3030    0.5559   -4.8103 N.pl3     1 <0>        -0.8428
     24 H2          3.1820    2.3666   -1.4943 H         1 <0>         0.0600
     25 H3          3.0316    2.3383   -3.2677 H         1 <0>         0.0553
     26 H4          2.4895    3.7647   -2.3512 H         1 <0>         0.0564
     27 H5          0.7481    2.3292   -1.2445 H         1 <0>         0.0730
     28 H6          0.5340    2.4481   -3.0075 H         1 <0>         0.0554
     29 H7          3.0768    0.3348   -1.1646 H         1 <0>         0.0701
     30 H8          1.5780    0.3288   -0.2033 H         1 <0>         0.0695
     31 H9          2.4652   -1.8850   -2.1087 H         1 <0>         0.0609
     32 H10         2.5903   -1.9418   -0.3343 H         1 <0>         0.0629
     33 H11         0.5591   -3.1253   -1.0979 H         1 <0>         0.0692
     34 H12         0.1211   -1.6736   -0.1647 H         1 <0>         0.0684
     35 H13         0.1806   -1.9350   -3.2066 H         1 <0>         0.0561
     36 H14        -1.2669   -1.7663   -2.1801 H         1 <0>         0.0667
     37 H15        -3.1668    2.4640   -0.3852 H         1 <0>         0.2026
     38 H16        -5.7243    3.7386   -6.6855 H         1 <0>         0.1576
     39 H17        -3.4650    2.6672   -8.9233 H         1 <0>         0.0831
     40 H18        -3.8032    0.9508   -8.5946 H         1 <0>         0.0759
     41 H19        -5.1472    2.1024   -8.7840 H         1 <0>         0.0842
     42 H20        -4.7314    4.8555   -3.7206 H         1 <0>         0.0801
     43 H21        -6.2958    4.0849   -4.0774 H         1 <0>         0.0810
     44 H22        -5.1880    3.3451   -2.8968 H         1 <0>         0.1031
     45 H23        -0.4742    0.0518   -4.8103 H         1 <0>         0.3991
     46 H24        -1.7818    0.7019   -5.6412 H         1 <0>         0.4167
@<TRIPOS>BOND
     1    1    2 1
     2    1   24 1
     3    1   25 1
     4    1   26 1
     5    2    3 1
     6    2   27 1
     7    2   28 1
     8    3    4 1
     9    3    9 1
    10    3    5 1
    11    5    6 1
    12    5   29 1
    13    5   30 1
    14    6    7 1
    15    6   31 1
    16    6   32 1
    17    7    8 1
    18    7   33 1
    19    7   34 1
    20    8    9 1
    21    8   35 1
    22    8   36 1
    23    9   10 1
    24   10   15 ar
    25   10   11 ar
    26   11   12 ar
    27   11   23 1
    28   12   13 ar
    29   12   16 1
    30   13   14 ar
    31   14   15 ar
    32   14   37 1
    33   16   20 1
    34   16   17 1
    35   17   18 2
    36   17   22 1
    37   18   19 1
    38   18   38 1
    39   19   20 2
    40   19   21 1
    41   21   39 1
    42   21   40 1
    43   21   41 1
    44   22   42 1
    45   22   43 1
    46   22   44 1
    47   23   45 1
    48   23   46 1
@<TRIPOS>MOLECULE
ZINC58452637
   33    35     0     0     0
SMALL
USER_CHARGES

@<TRIPOS>ATOM
      1 C1         -0.0166    1.3766    0.0096 C.ar      1 <0>        -0.0616
      2 C2          1.1707    2.0859    0.0021 C.ar      1 <0>        -0.1213
      3 C3          2.3799    1.4157   -0.0130 C.ar      1 <0>        -0.0522
      4 C4          2.4059    0.0347   -0.0206 C.ar      1 <0>        -0.0621
      5 C5          1.2154   -0.6807   -0.0131 C.ar      1 <0>         0.2457
      6 C6          0.0021   -0.0041    0.0020 C.ar      1 <0>        -0.1262
      7 N1          1.2380   -2.0772   -0.0212 N.pl3     1 <0>        -0.6708
      8 C7          1.2564   -2.8463    1.2323 C.3       1 <0>         0.1510
      9 C8         -0.0295   -3.6680    1.3489 C.3       1 <0>        -0.0802
     10 C9         -0.2822   -4.3882    0.0328 C.2       1 <0>        -0.0169
     11 C10         0.2993   -3.9862   -1.1177 C.2       1 <0>        -0.2334
     12 S1         -0.2960   -5.1126   -2.3434 S.3       1 <0>         0.2070
     13 C11        -1.2742   -6.0859   -1.3863 C.2       1 <0>         0.1415
     14 C12        -1.1483   -5.5464   -0.1156 C.2       1 <0>        -0.2028
     15 C13        -1.8423   -6.1069    1.0046 C.1       1 <0>         0.2768
     16 N2         -2.3928   -6.5516    1.8933 N.1       1 <0>        -0.4434
     17 N3         -2.0323   -7.1760   -1.7766 N.pl3     1 <0>        -0.8098
     18 C14         1.2381   -2.8349   -1.2886 C.3       1 <0>         0.2368
     19 N4          3.7008   -0.6819   -0.0373 N.pl3     1 <0>         0.0366
     20 O1          4.7366   -0.0584   -0.0442 O.2       1 <0>        -0.1809
     21 O2          3.7227   -1.8906   -0.0439 O.3       1 <0>        -0.1297
     22 H1         -0.9594    1.9032    0.0259 H         1 <0>         0.1433
     23 H2          1.1532    3.1658    0.0077 H         1 <0>         0.1471
     24 H3          3.3052    1.9726   -0.0192 H         1 <0>         0.1530
     25 H4         -0.9254   -0.5574    0.0082 H         1 <0>         0.1464
     26 H5          2.1165   -3.5158    1.2348 H         1 <0>         0.0774
     27 H6          1.3274   -2.1615    2.0773 H         1 <0>         0.0721
     28 H7          0.0770   -4.3996    2.1499 H         1 <0>         0.0839
     29 H8         -0.8667   -3.0054    1.5682 H         1 <0>         0.0807
     30 H9         -2.0360   -7.4567   -2.7051 H         1 <0>         0.4154
     31 H10        -2.5599   -7.6593   -1.1217 H         1 <0>         0.4121
     32 H11         0.8976   -2.1961   -2.1035 H         1 <0>         0.0802
     33 H12         2.2412   -3.2055   -1.4999 H         1 <0>         0.0844
@<TRIPOS>BOND
     1    1    6 ar
     2    1    2 ar
     3    1   22 1
     4    2    3 ar
     5    2   23 1
     6    3    4 ar
     7    3   24 1
     8    4    5 ar
     9    4   19 1
    10    5    6 ar
    11    5    7 1
    12    6   25 1
    13    7   18 1
    14    7    8 1
    15    8    9 1
    16    8   26 1
    17    8   27 1
    18    9   10 1
    19    9   28 1
    20    9   29 1
    21   10   14 1
    22   10   11 2
    23   11   12 1
    24   11   18 1
    25   12   13 1
    26   13   14 2
    27   13   17 1
    28   14   15 1
    29   15   16 3
    30   17   30 1
    31   17   31 1
    32   18   32 1
    33   18   33 1
    34   19   20 2
    35   19   21 1
@<TRIPOS>MOLECULE
ZINC04457944
   35    38     0     0     0
SMALL
USER_CHARGES

@<TRIPOS>ATOM
      1 C1         -0.0167    1.3790    0.0096 C.ar      1 <0>        -0.1053
      2 C2          1.1687    2.0918    0.0021 C.ar      1 <0>        -0.1200
      3 C3          2.3774    1.4256   -0.0130 C.ar      1 <0>        -0.0858
      4 C4          2.4021    0.0326   -0.0207 C.ar      1 <0>        -0.0220
      5 C5          1.2052   -0.6804   -0.0131 C.ar      1 <0>        -0.0914
      6 C6          0.0021   -0.0041    0.0020 C.ar      1 <0>        -0.1185
      7 C7          3.6989   -0.6892   -0.0375 C.2       1 <0>         0.1655
      8 C8          3.9720   -1.9046    0.5971 C.2       1 <0>        -0.2599
      9 C9          5.2718   -2.2324    0.3406 C.2       1 <0>         0.2862
     10 N1          5.7976   -1.2557   -0.4275 N.pl3     1 <0>        -0.4435
     11 H1          6.7067   -1.2219   -0.7640 H         1 <0>         0.4498
     12 N2          4.7960   -0.2999   -0.6587 N.2       1 <0>        -0.2482
     13 O1          5.8488   -3.3645    0.8153 O.3       1 <0>        -0.2273
     14 C10         5.0372   -4.3122    1.3269 C.2       1 <0>         0.4503
     15 C11         3.7375   -4.1036    1.6333 C.2       1 <0>        -0.2676
     16 C12         3.0641   -2.7687    1.4335 C.3       1 <0>         0.1641
     17 H2          2.1137   -2.9098    0.9188 H         1 <0>         0.1182
     18 C13         2.8272   -2.1131    2.7696 C.2       1 <0>        -0.0011
     19 C14         1.6317   -1.7445    3.2641 C.2       1 <0>        -0.1975
     20 C15         1.8725   -1.1739    4.5350 C.2       1 <0>        -0.2104
     21 C16         3.2006   -1.2279    4.7412 C.2       1 <0>        -0.0441
     22 O2          3.7732   -1.8030    3.6711 O.3       1 <0>        -0.1683
     23 C17         2.9717   -5.1895    2.1672 C.1       1 <0>         0.2698
     24 N3          2.3642   -6.0510    2.5906 N.1       1 <0>        -0.4328
     25 N4          5.5614   -5.5613    1.5489 N.pl3     1 <0>        -0.8276
     26 H3         -0.9602    1.9042    0.0260 H         1 <0>         0.1250
     27 H4          1.1483    3.1716    0.0078 H         1 <0>         0.1267
     28 H5          3.3023    1.9832   -0.0192 H         1 <0>         0.1270
     29 H6          1.2187   -1.7603   -0.0194 H         1 <0>         0.1267
     30 H7         -0.9264   -0.5558    0.0083 H         1 <0>         0.1282
     31 H8          0.6722   -1.8615    2.7823 H         1 <0>         0.1460
     32 H9          1.1321   -0.7715    5.2106 H         1 <0>         0.1465
     33 H10         3.7183   -0.8727    5.6200 H         1 <0>         0.1996
     34 H11         6.4910   -5.7416    1.3386 H         1 <0>         0.4128
     35 H12         5.0022   -6.2637    1.9161 H         1 <0>         0.4290
@<TRIPOS>BOND
     1    1    6 ar
     2    1    2 ar
     3    1   26 1
     4    2    3 ar
     5    2   27 1
     6    3    4 ar
     7    3   28 1
     8    4    5 ar
     9    4    7 1
    10    5    6 ar
    11    5   29 1
    12    6   30 1
    13    7   12 2
    14    7    8 1
    15    8   16 1
    16    8    9 2
    17    9   10 1
    18    9   13 1
    19   10   11 1
    20   10   12 1
    21   13   14 1
    22   14   15 2
    23   14   25 1
    24   15   16 1
    25   15   23 1
    26   16   17 1
    27   16   18 1
    28   18   22 1
    29   18   19 2
    30   19   20 1
    31   19   31 1
    32   20   21 2
    33   20   32 1
    34   21   22 1
    35   21   33 1
    36   23   24 3
    37   25   34 1
    38   25   35 1
@<TRIPOS>MOLECULE
ZINC05769406
   40    42     0     0     0
SMALL
USER_CHARGES
1-(phenylcarbamoyl)bicyclo[2.2.2]octane-5,6-dicarboxylic acid
@<TRIPOS>ATOM
      1 C1          4.7751   -0.1255    0.2698 C.ar      1 <0>        -0.1572
      2 C2          4.7224    1.1210   -0.3266 C.ar      1 <0>        -0.1043
      3 C3          3.5200    1.7945   -0.4172 C.ar      1 <0>        -0.1609
      4 C4          2.3633    1.2187    0.0917 C.ar      1 <0>         0.1776
      5 C5          2.4207   -0.0306    0.6955 C.ar      1 <0>        -0.1262
      6 C6          3.6251   -0.7015    0.7775 C.ar      1 <0>        -0.0993
      7 N1          1.1435    1.8984    0.0013 N.am      1 <0>        -0.6877
      8 C7         -0.0028    1.2075   -0.1573 C.2       1 <0>         0.5371
      9 O1          0.0307    0.0057   -0.3175 O.2       1 <0>        -0.4836
     10 C8         -1.3257    1.9290   -0.1417 C.3       1 <0>        -0.0452
     11 C9         -1.3544    2.9659   -1.2663 C.3       1 <0>        -0.1107
     12 C10        -2.6976    3.6984   -1.2505 C.3       1 <0>        -0.1072
     13 C11        -3.5643    3.1498   -0.1153 C.3       1 <0>        -0.0655
     14 C12        -2.8505    3.3646    1.2209 C.3       1 <0>        -0.1142
     15 C13        -1.5074    2.6320    1.2050 C.3       1 <0>        -0.1015
     16 C14        -3.8017    1.6540   -0.3320 C.3       1 <0>        -0.1012
     17 H1         -4.3102    1.5010   -1.2839 H         1 <0>         0.0699
     18 C15        -2.4586    0.9215   -0.3479 C.3       1 <0>        -0.0782
     19 H2         -2.4381    0.1827    0.4533 H         1 <0>         0.0720
     20 C16        -2.2797    0.2290   -1.6743 C.2       1 <0>         0.4865
     21 O2         -1.3423    0.5122   -2.3821 O.co2     1 <0>        -0.6529
     22 C17        -4.6554    1.1136    0.7861 C.2       1 <0>         0.4725
     23 O3         -5.0350    1.8494    1.6661 O.co2     1 <0>        -0.6593
     24 H3          5.7166   -0.6501    0.3395 H         1 <0>         0.1138
     25 H4          5.6224    1.5683   -0.7221 H         1 <0>         0.1168
     26 H5          3.4795    2.7680   -0.8831 H         1 <0>         0.1202
     27 H6          1.5237   -0.4789    1.0965 H         1 <0>         0.1354
     28 H7          3.6696   -1.6752    1.2427 H         1 <0>         0.1193
     29 H8          1.1229    2.8668    0.0529 H         1 <0>         0.4030
     30 H9         -0.5474    3.6837   -1.1194 H         1 <0>         0.0378
     31 H10        -1.2250    2.4650   -2.2257 H         1 <0>         0.1047
     32 H11        -3.2061    3.5454   -2.2024 H         1 <0>         0.0545
     33 H12        -2.5285    4.7641   -1.0960 H         1 <0>         0.0472
     34 H13        -4.5212    3.6717   -0.1040 H         1 <0>         0.0613
     35 H14        -3.4680    2.9737    2.0296 H         1 <0>         0.1015
     36 H15        -2.6814    4.4302    1.3753 H         1 <0>         0.0396
     37 H16        -1.4869    1.8933    2.0063 H         1 <0>         0.0559
     38 H17        -0.7003    3.3498    1.3519 H         1 <0>         0.0469
     39 O4         -3.1617   -0.7025   -2.0695 O.co2     1 <0>        -0.7624
     40 O5         -4.9941   -0.1851    0.8045 O.co2     1 <0>        -0.7559
@<TRIPOS>BOND
     1    1    6 ar
     2    1    2 ar
     3    1   24 1
     4    2    3 ar
     5    2   25 1
     6    3    4 ar
     7    3   26 1
     8    4    5 ar
     9    4    7 1
    10    5    6 ar
    11    5   27 1
    12    6   28 1
    13    7    8 am
    14    7   29 1
    15    8    9 2
    16    8   10 1
    17   10   15 1
    18   10   18 1
    19   10   11 1
    20   11   12 1
    21   11   30 1
    22   11   31 1
    23   12   13 1
    24   12   32 1
    25   12   33 1
    26   13   14 1
    27   13   16 1
    28   13   34 1
    29   14   15 1
    30   14   35 1
    31   14   36 1
    32   15   37 1
    33   15   38 1
    34   16   17 1
    35   16   18 1
    36   16   22 1
    37   18   19 1
    38   18   20 1
    39   20   21 2
    40   20   39 1
    41   22   23 2
    42   22   40 1
@<TRIPOS>MOLECULE
ZINC22130276
   24    25     0     0     0
SMALL
USER_CHARGES
1-[2-(trifluoromethyl)phenyl]hexahydropyrimidine-2,4,6-trione
@<TRIPOS>ATOM
      1 C1         -1.2199    1.7503    0.0173 C.ar      1 <0>        -0.1520
      2 C2         -0.0126    1.0758    0.0080 C.ar      1 <0>        -0.0882
      3 C3          1.1743    1.7818    0.0004 C.ar      1 <0>        -0.1184
      4 C4          1.1547    3.1702    0.0076 C.ar      1 <0>         0.2539
      5 C5         -0.0586    3.8443    0.0223 C.ar      1 <0>        -0.1849
      6 C6         -1.2426    3.1326    0.0298 C.ar      1 <0>        -0.0758
      7 C7         -0.0842    5.3510    0.0307 C.3       1 <0>         0.5050
      8 F1         -1.4109    5.7948    0.0452 F         1 <0>        -0.1961
      9 F2          0.5777    5.8224    1.1695 F         1 <0>        -0.1667
     10 F3          0.5567    5.8347   -1.1149 F         1 <0>        -0.1604
     11 N1          2.3579    3.8897    0.0004 N.am      1 <0>        -0.5806
     12 C8          2.9276    4.2245    1.1776 C.2       1 <0>         0.5110
     13 O1          2.4182    3.9148    2.2332 O.3       1 <0>        -0.6166
     14 C9          4.2311    4.9991    1.1304 C.2       1 <0>        -0.5956
     15 C10         4.7637    5.3318   -0.2505 C.2       1 <0>         0.5088
     16 O2          5.7963    5.9507   -0.3938 O.3       1 <0>        -0.6395
     17 N2          4.0454    4.9128   -1.3139 N.2       1 <0>        -0.7529
     18 C11         2.9044    4.2286   -1.1728 C.2       1 <0>         0.6658
     19 O3          2.3221    3.8901   -2.1839 O.2       1 <0>        -0.6514
     20 H1         -2.1469    1.1960    0.0187 H         1 <0>         0.1227
     21 H2          0.0021   -0.0041    0.0020 H         1 <0>         0.1231
     22 H3          2.1168    1.2546   -0.0114 H         1 <0>         0.1268
     23 H4         -2.1869    3.6565    0.0413 H         1 <0>         0.1279
     24 H5          4.0867    5.9336    1.6725 H         1 <0>         0.0343
@<TRIPOS>BOND
     1    1    6 ar
     2    1    2 ar
     3    1   20 1
     4    2    3 ar
     5    2   21 1
     6    3    4 ar
     7    3   22 1
     8    4    5 ar
     9    4   11 1
    10    5    6 ar
    11    5    7 1
    12    6   23 1
    13    7    8 1
    14    7    9 1
    15    7   10 1
    16   11   18 am
    17   11   12 1
    18   12   13 1
    19   12   14 2
    20   14   15 1
    21   14   24 1
    22   15   16 1
    23   15   17 2
    24   17   18 1
    25   18   19 2
@<TRIPOS>MOLECULE
ZINC41894605
   29    30     0     0     0
SMALL
USER_CHARGES

@<TRIPOS>ATOM
      1 C1          0.1966    1.5132   -0.0275 C.3       1 <0>        -0.1409
      2 C2          0.0021   -0.0041    0.0020 C.3       1 <0>         0.1537
      3 C3          0.6026   -0.5630    1.2661 C.ar      1 <0>        -0.0080
      4 C4          1.2840    0.2692    2.1345 C.ar      1 <0>        -0.1094
      5 C5          1.8349   -0.2433    3.2940 C.ar      1 <0>        -0.1358
      6 C6          1.7048   -1.5884    3.5860 C.ar      1 <0>        -0.1282
      7 C7          1.0238   -2.4214    2.7187 C.ar      1 <0>        -0.1273
      8 C8          0.4672   -1.9078    1.5606 C.ar      1 <0>         0.0199
      9 Cl1        -0.3940   -2.9522    0.4738 Cl        1 <0>        -0.0386
     10 C9         -1.4703   -0.3226   -0.0381 C.2       1 <0>         0.5206
     11 O1         -1.9144   -1.0433   -0.9155 O.co2     1 <0>        -0.6542
     12 O2         -2.2175    0.1405    0.8068 O.co2     1 <0>        -0.7078
     13 N1          0.6633   -0.6039   -1.1595 N.am      1 <0>        -0.3575
     14 C10         0.2793   -0.2575   -2.4046 C.2       1 <0>         0.4923
     15 O3         -0.6178    0.5545   -2.5678 O.2       1 <0>        -0.5877
     16 C11         0.9213   -0.8393   -3.5166 C.2       1 <0>        -0.1988
     17 C12         1.9185   -1.7413   -3.3122 C.2       1 <0>        -0.1081
     18 C13         2.2948   -2.0806   -1.9994 C.2       1 <0>         0.3434
     19 O4          3.2906   -2.9813   -1.7951 O.3       1 <0>        -0.7508
     20 N2          1.6957   -1.5305   -0.9732 N.2       1 <0>        -0.3598
     21 H1          1.2616    1.7436    0.0015 H         1 <0>         0.0391
     22 H2         -0.2377    1.9175   -0.9419 H         1 <0>         0.0748
     23 H3         -0.2953    1.9595    0.8367 H         1 <0>         0.0646
     24 H4          1.3863    1.3199    1.9067 H         1 <0>         0.1239
     25 H5          2.3675    0.4072    3.9719 H         1 <0>         0.1132
     26 H6          2.1357   -1.9884    4.4920 H         1 <0>         0.1147
     27 H7          0.9225   -3.4721    2.9467 H         1 <0>         0.1191
     28 H8          0.6243   -0.5719   -4.5199 H         1 <0>         0.1245
     29 H9          2.4195   -2.1957   -4.1543 H         1 <0>         0.1088
@<TRIPOS>BOND
     1    1    2 1
     2    1   21 1
     3    1   22 1
     4    1   23 1
     5    2    3 1
     6    2   10 1
     7    2   13 1
     8    3    8 ar
     9    3    4 ar
    10    4    5 ar
    11    4   24 1
    12    5    6 ar
    13    5   25 1
    14    6    7 ar
    15    6   26 1
    16    7    8 ar
    17    7   27 1
    18    8    9 1
    19   10   11 2
    20   10   12 1
    21   13   20 1
    22   13   14 am
    23   14   15 2
    24   14   16 1
    25   16   17 2
    26   16   28 1
    27   17   18 1
    28   17   29 1
    29   18   19 1
    30   18   20 2
@<TRIPOS>MOLECULE
ZINC18046806
   33    36     0     0     0
SMALL
USER_CHARGES

@<TRIPOS>ATOM
      1 C1         -0.0184    1.5028    0.0103 C.3       1 <0>        -0.1108
      2 C2          0.0021   -0.0041    0.0020 C.ar      1 <0>        -0.0900
      3 C3          0.0057   -0.6887   -1.1989 C.ar      1 <0>        -0.1173
      4 C4          0.0245   -2.0709   -1.2065 C.ar      1 <0>        -0.0879
      5 C5          0.0400   -2.7685   -0.0132 C.ar      1 <0>        -0.0706
      6 C6          0.0373   -2.0839    1.1877 C.ar      1 <0>        -0.0973
      7 C7          0.0229   -0.7016    1.1953 C.ar      1 <0>        -0.1214
      8 C8          0.0595   -4.2753   -0.0215 C.3       1 <0>         0.0495
      9 H1          0.0580   -4.6043   -1.0606 H         1 <0>         0.0971
     10 C9          1.3260   -4.7199    0.5974 C.2       1 <0>        -0.1811
     11 C10         1.5554   -5.7418    1.4432 C.2       1 <0>         0.0877
     12 N1          2.8681   -5.9266    1.8031 N.am      1 <0>        -0.6365
     13 C11         3.8132   -5.0851    1.3444 C.2       1 <0>         0.4711
     14 S1          2.9436   -4.0121    0.3856 S.3       1 <0>         0.0634
     15 O1          5.0105   -5.0979    1.5697 O.2       1 <0>        -0.4779
     16 S2          0.2045   -6.7228    2.0468 S.3       1 <0>        -0.0026
     17 C12        -1.1803   -6.2489    1.0255 C.3       1 <0>        -0.1784
     18 H2         -2.0908   -6.4638    1.5849 H         1 <0>         0.1397
     19 C13        -1.2288   -4.7679    0.6317 C.3       1 <0>        -0.1180
     20 H3         -1.5792   -4.1181    1.4337 H         1 <0>         0.1157
     21 C14        -2.1978   -4.9042   -0.5650 C.2       1 <0>         0.4792
     22 O2         -3.0057   -3.9449   -1.0416 O.3       1 <0>        -0.6190
     23 N2         -2.0892   -6.1227   -1.0301 N.2       1 <0>        -0.6912
     24 C15        -1.3027   -6.9323   -0.3027 C.2       1 <0>         0.5266
     25 O3         -0.8098   -7.9880   -0.6442 O.2       1 <0>        -0.5095
     26 H4          1.0042    1.8801    0.0026 H         1 <0>         0.0663
     27 H5         -0.5455    1.8639   -0.8728 H         1 <0>         0.0638
     28 H6         -0.5286    1.8543    0.9071 H         1 <0>         0.0629
     29 H7         -0.0064   -0.1436   -2.1312 H         1 <0>         0.1198
     30 H8          0.0266   -2.6057   -2.1448 H         1 <0>         0.1211
     31 H9          0.0491   -2.6289    2.1200 H         1 <0>         0.1178
     32 H10         0.0245   -0.1667    2.1335 H         1 <0>         0.1182
     33 H11         3.1134   -6.6616    2.3866 H         1 <0>         0.4094
@<TRIPOS>BOND
     1    1    2 1
     2    1   26 1
     3    1   27 1
     4    1   28 1
     5    2    7 ar
     6    2    3 ar
     7    3    4 ar
     8    3   29 1
     9    4    5 ar
    10    4   30 1
    11    5    6 ar
    12    5    8 1
    13    6    7 ar
    14    6   31 1
    15    7   32 1
    16    8    9 1
    17    8   19 1
    18    8   10 1
    19   10   11 2
    20   10   14 1
    21   11   12 1
    22   11   16 1
    23   12   13 am
    24   12   33 1
    25   13   14 1
    26   13   15 2
    27   16   17 1
    28   17   18 1
    29   17   24 1
    30   17   19 1
    31   19   20 1
    32   19   21 1
    33   21   22 1
    34   21   23 2
    35   23   24 1
    36   24   25 2
@<TRIPOS>MOLECULE
ZINC62317803
   34    35     0     0     0
SMALL
USER_CHARGES

@<TRIPOS>ATOM
      1 C1         -0.3225    1.8345    0.0691 C.3       1 <0>        -0.1111
      2 C2         -0.1258    0.3514   -0.1116 C.ar      1 <0>        -0.0521
      3 C3         -0.2024   -0.2078   -1.3706 C.ar      1 <0>        -0.1327
      4 C4         -0.0221   -1.5692   -1.5383 C.ar      1 <0>        -0.1216
      5 C5          0.2360   -2.3791   -0.4462 C.ar      1 <0>        -0.1258
      6 C6          0.3157   -1.8330    0.8178 C.ar      1 <0>        -0.0583
      7 C7          0.1400   -0.4589    0.9936 C.ar      1 <0>         0.0251
      8 C8          0.2289    0.1337    2.3439 C.2       1 <0>         0.1208
      9 C9         -0.8270    0.3971    3.2123 C.2       1 <0>        -0.0903
     10 N1         -0.3190    0.9351    4.3345 N.2       1 <0>        -0.2253
     11 N2          0.9601    1.0280    4.2372 N.2       1 <0>        -0.1209
     12 N3          1.3607    0.5265    2.9913 N.pl3     1 <0>        -0.3133
     13 C10         2.7320    0.4438    2.4824 C.3       1 <0>         0.0943
     14 C11         2.8460    1.2544    1.1897 C.3       1 <0>        -0.1373
     15 C12         3.6981    1.0089    3.5255 C.3       1 <0>        -0.1223
     16 C13         3.0787   -0.9962    2.2045 C.2       1 <0>         0.5061
     17 O1          3.7698   -1.2820    1.2416 O.co2     1 <0>        -0.6808
     18 O2          2.6682   -1.8754    2.9427 O.co2     1 <0>        -0.6714
     19 C14        -2.2471    0.1341    2.9482 C.2       1 <0>         0.5647
     20 O3         -2.5898   -0.3611    1.8827 O.co2     1 <0>        -0.6785
     21 O4         -3.0882    0.4101    3.7935 O.co2     1 <0>        -0.6886
     22 H1          0.6463    2.3340    0.0544 H         1 <0>         0.0598
     23 H2         -0.9424    2.2202   -0.7402 H         1 <0>         0.0603
     24 H3         -0.8135    2.0222    1.0240 H         1 <0>         0.0695
     25 H4         -0.4039    0.4185   -2.2270 H         1 <0>         0.1130
     26 H5         -0.0835   -2.0019   -2.5259 H         1 <0>         0.1107
     27 H6          0.3751   -3.4412   -0.5841 H         1 <0>         0.1140
     28 H7          0.5168   -2.4663    1.6692 H         1 <0>         0.1235
     29 H8          2.5952    2.2959    1.3907 H         1 <0>         0.0413
     30 H9          3.8662    1.1929    0.8111 H         1 <0>         0.0761
     31 H10         2.1577    0.8518    0.4465 H         1 <0>         0.0680
     32 H11         3.6168    0.4315    4.4464 H         1 <0>         0.0642
     33 H12         4.7183    0.9474    3.1469 H         1 <0>         0.0639
     34 H13         3.4473    2.0505    3.7265 H         1 <0>         0.0547
@<TRIPOS>BOND
     1    1    2 1
     2    1   22 1
     3    1   23 1
     4    1   24 1
     5    2    7 ar
     6    2    3 ar
     7    3    4 ar
     8    3   25 1
     9    4    5 ar
    10    4   26 1
    11    5    6 ar
    12    5   27 1
    13    6    7 ar
    14    6   28 1
    15    7    8 1
    16    8   12 1
    17    8    9 2
    18    9   10 1
    19    9   19 1
    20   10   11 2
    21   11   12 1
    22   12   13 1
    23   13   14 1
    24   13   15 1
    25   13   16 1
    26   14   29 1
    27   14   30 1
    28   14   31 1
    29   15   32 1
    30   15   33 1
    31   15   34 1
    32   16   17 2
    33   16   18 1
    34   19   20 2
    35   19   21 1
@<TRIPOS>MOLECULE
ZINC04718528
   42    45     0     0     0
SMALL
USER_CHARGES
nitro-(4-nitrophenyl)-BLAHcarboxylic acid
@<TRIPOS>ATOM
      1 C1         -2.3318    2.1321   -0.1464 C.ar      1 <0>        -0.1092
      2 C2         -0.9974    1.7743   -0.1924 C.ar      1 <0>        -0.0504
      3 C3         -0.0263    2.7457   -0.3482 C.ar      1 <0>        -0.0469
      4 C4         -0.3894    4.0755   -0.4527 C.ar      1 <0>        -0.0435
      5 C5         -1.7241    4.4327   -0.4119 C.ar      1 <0>        -0.1179
      6 C6         -2.6952    3.4613   -0.2566 C.ar      1 <0>        -0.0537
      7 C7         -4.1501    3.8513   -0.2068 C.3       1 <0>         0.1308
      8 H1         -4.7585    3.0757   -0.6719 H         1 <0>         0.1225
      9 C8         -4.5811    4.0554    1.2310 C.3       1 <0>        -0.0905
     10 H2         -5.5812    4.4849    1.2901 H         1 <0>         0.1100
     11 C9         -4.3744    2.8855    2.1948 C.3       1 <0>        -0.0896
     12 C10        -4.1979    3.6320    3.5193 C.2       1 <0>        -0.1662
     13 C11        -3.7173    4.8498    3.2920 C.2       1 <0>        -0.1541
     14 C12        -3.5002    5.0058    1.8337 C.3       1 <0>        -0.0530
     15 H3         -2.5223    4.5903    1.5903 H         1 <0>         0.1031
     16 C13        -3.6363    6.3030    1.1365 C.ar      1 <0>        -0.0978
     17 C14        -3.3724    7.4976    1.7704 C.ar      1 <0>         0.0053
     18 C15        -3.4848    8.7010    1.0940 C.ar      1 <0>        -0.1185
     19 C16        -3.8626    8.7108   -0.2304 C.ar      1 <0>        -0.0395
     20 C17        -4.1389    7.5128   -0.8872 C.ar      1 <0>        -0.1192
     21 C18        -4.0387    6.2830   -0.2020 C.ar      1 <0>         0.1776
     22 N1         -4.3503    5.1316   -0.9043 N.pl3     1 <0>        -0.6011
     23 C19        -4.5375    7.5304   -2.3050 C.2       1 <0>         0.4916
     24 O1         -4.7789    6.4881   -2.8813 O.co2     1 <0>        -0.6085
     25 N2         -2.9628    7.4948    3.1927 N.pl3     1 <0>         0.0292
     26 O2         -3.5295    8.2193    3.9911 O.2       1 <0>        -0.1598
     27 O3         -2.0590    6.7679    3.5648 O.3       1 <0>        -0.1542
     28 N3          1.4026    2.3627   -0.3971 N.pl3     1 <0>         0.0309
     29 O4          1.7228    1.1915   -0.3000 O.2       1 <0>        -0.1633
     30 O5          2.2579    3.2181   -0.5394 O.3       1 <0>        -0.1601
     31 H4         -3.0905    1.3732   -0.0246 H         1 <0>         0.1523
     32 H5         -0.7135    0.7359   -0.1063 H         1 <0>         0.1553
     33 H6          0.3696    4.8348   -0.5700 H         1 <0>         0.1553
     34 H7         -2.0080    5.4712   -0.4977 H         1 <0>         0.1449
     35 H8         -3.4833    2.3076    1.9499 H         1 <0>         0.0848
     36 H9         -5.2573    2.2468    2.2205 H         1 <0>         0.0789
     37 H10        -4.4293    3.2286    4.4941 H         1 <0>         0.1323
     38 H11        -3.5189    5.6000    4.0431 H         1 <0>         0.1356
     39 H12        -3.2770    9.6299    1.6042 H         1 <0>         0.1404
     40 H13        -3.9449    9.6480   -0.7608 H         1 <0>         0.1568
     41 H14        -3.9000    5.1257   -1.8072 H         1 <0>         0.3976
     42 O6         -4.6345    8.7024   -2.9632 O.co2     1 <0>        -0.7381
@<TRIPOS>BOND
     1    1    6 ar
     2    1    2 ar
     3    1   31 1
     4    2    3 ar
     5    2   32 1
     6    3    4 ar
     7    3   28 1
     8    4    5 ar
     9    4   33 1
    10    5    6 ar
    11    5   34 1
    12    6    7 1
    13    7    8 1
    14    7   22 1
    15    7    9 1
    16    9   10 1
    17    9   14 1
    18    9   11 1
    19   11   12 1
    20   11   35 1
    21   11   36 1
    22   12   13 2
    23   12   37 1
    24   13   14 1
    25   13   38 1
    26   14   15 1
    27   14   16 1
    28   16   21 ar
    29   16   17 ar
    30   17   18 ar
    31   17   25 1
    32   18   19 ar
    33   18   39 1
    34   19   20 ar
    35   19   40 1
    36   20   21 ar
    37   20   23 1
    38   21   22 1
    39   22   41 1
    40   23   24 2
    41   23   42 1
    42   25   26 2
    43   25   27 1
    44   28   29 2
    45   28   30 1
@<TRIPOS>MOLECULE
ZINC10296102
   40    44     0     0     0
SMALL
USER_CHARGES
(4-nitrophenyl)-phenyl-BLAHol
@<TRIPOS>ATOM
      1 C1          0.2344    1.1150    4.9584 C.ar      1 <0>        -0.1074
      2 C2          1.2564    1.3054    4.0473 C.ar      1 <0>        -0.1189
      3 C3          1.0768    2.1600    2.9757 C.ar      1 <0>        -0.0916
      4 C4         -0.1250    2.8239    2.8150 C.ar      1 <0>        -0.0947
      5 C5         -1.1452    2.6375    3.7290 C.ar      1 <0>        -0.0889
      6 C6         -0.9671    1.7796    4.7982 C.ar      1 <0>        -0.1175
      7 C7         -0.3208    3.7555    1.6468 C.3       1 <0>         0.2539
      8 H1          0.5943    3.8192    1.0397 H         1 <0>         0.1198
      9 C8         -1.4674    3.2598    0.8076 C.ar      1 <0>        -0.1217
     10 C9         -2.6924    3.9057    0.7720 C.ar      1 <0>         0.0804
     11 C10        -3.7032    3.3692   -0.0339 C.ar      1 <0>         0.3743
     12 N1         -3.4628    2.2762   -0.7392 N.ar      1 <0>        -0.3259
     13 N2         -2.3261    1.6815   -0.7152 N.ar      1 <0>        -0.1797
     14 C11        -1.3100    2.1163    0.0198 C.ar      1 <0>        -0.0099
     15 C12        -0.0168    1.3893    0.0097 C.ar      1 <0>         0.0736
     16 C13         1.1742    2.0836   -0.1936 C.ar      1 <0>        -0.1280
     17 C14         2.3738    1.4014   -0.2082 C.ar      1 <0>        -0.0498
     18 C15         2.3954    0.0310   -0.0209 C.ar      1 <0>        -0.0560
     19 C16         1.2162   -0.6632    0.1817 C.ar      1 <0>        -0.0464
     20 C17         0.0108    0.0088    0.1977 C.ar      1 <0>        -0.0927
     21 N3          3.6850   -0.6953   -0.0380 N.pl3     1 <0>         0.0346
     22 O1          3.7066   -1.9020    0.1262 O.2       1 <0>        -0.1685
     23 O2          4.7247   -0.0863   -0.2163 O.3       1 <0>        -0.1695
     24 O3         -4.9210    3.9663   -0.0917 O.3       1 <0>        -0.6632
     25 N4         -2.9292    5.0648    1.5181 N.pl3     1 <0>        -0.6053
     26 C18        -1.8275    5.6921    2.0793 C.2       1 <0>         0.4917
     27 N5         -0.6092    5.0966    2.1400 N.pl3     1 <0>        -0.4070
     28 N6          0.2299    6.0272    2.7541 N.2       1 <0>        -0.0827
     29 N7         -0.4981    7.0642    3.0145 N.2       1 <0>        -0.0284
     30 N8         -1.7102    6.8722    2.6208 N.2       1 <0>        -0.3620
     31 H2          0.3744    0.4468    5.7952 H         1 <0>         0.1241
     32 H3          2.1951    0.7861    4.1725 H         1 <0>         0.1239
     33 H4          1.8753    2.3087    2.2639 H         1 <0>         0.1222
     34 H5         -2.0826    3.1596    3.6058 H         1 <0>         0.1136
     35 H6         -1.7657    1.6306    5.5098 H         1 <0>         0.1239
     36 H7          1.1585    3.1535   -0.3402 H         1 <0>         0.1446
     37 H8          3.2975    1.9384   -0.3656 H         1 <0>         0.1534
     38 H9          1.2389   -1.7331    0.3274 H         1 <0>         0.1527
     39 H10        -0.9093   -0.5343    0.3554 H         1 <0>         0.1505
     40 H11        -3.9558    5.4411    1.6388 H         1 <0>         0.4787
@<TRIPOS>BOND
     1    1    6 ar
     2    1    2 ar
     3    1   31 1
     4    2    3 ar
     5    2   32 1
     6    3    4 ar
     7    3   33 1
     8    4    5 ar
     9    4    7 1
    10    5    6 ar
    11    5   34 1
    12    6   35 1
    13    7    8 1
    14    7   27 1
    15    7    9 1
    16    9   14 ar
    17    9   10 ar
    18   10   11 ar
    19   10   25 1
    20   11   12 ar
    21   11   24 1
    22   12   13 ar
    23   13   14 ar
    24   14   15 1
    25   15   20 ar
    26   15   16 ar
    27   16   17 ar
    28   16   36 1
    29   17   18 ar
    30   17   37 1
    31   18   19 ar
    32   18   21 1
    33   19   20 ar
    34   19   38 1
    35   20   39 1
    36   21   22 2
    37   21   23 1
    38   25   26 1
    39   25   40 1
    40   26   30 2
    41   26   27 1
    42   27   28 1
    43   28   29 2
    44   29   30 1
@<TRIPOS>MOLECULE
ZINC00979420
   36    38     0     0     0
SMALL
USER_CHARGES

@<TRIPOS>ATOM
      1 C1         -1.2901   -1.0276    0.8707 C.3       1 <0>         0.0229
      2 O1         -1.0872   -2.3843    0.4703 O.3       1 <0>        -0.3067
      3 C2         -0.3182   -2.5941   -0.6288 C.ar      1 <0>         0.1327
      4 C3          0.2346   -1.5122   -1.3044 C.ar      1 <0>        -0.1585
      5 C4          1.0151   -1.7200   -2.4195 C.ar      1 <0>        -0.0494
      6 C5          1.2514   -3.0223   -2.8723 C.ar      1 <0>         0.0275
      7 C6          0.6931   -4.1075   -2.1893 C.ar      1 <0>         0.0014
      8 C7         -0.0816   -3.8900   -1.0716 C.ar      1 <0>        -0.0909
      9 N1          0.9390   -5.4879   -2.6637 N.pl3     1 <0>         0.0322
     10 O2          0.4559   -6.4253   -2.0726 O.2       1 <0>        -0.1653
     11 O3          1.6230   -5.6780   -3.6423 O.3       1 <0>        -0.1213
     12 C8          2.0856   -3.2499   -4.0655 C.2       1 <0>         0.0234
     13 C9          1.9416   -2.6121   -5.2837 C.2       1 <0>        -0.1862
     14 C10         2.9251   -3.1159   -6.1274 C.2       1 <0>        -0.1767
     15 C11         3.6447   -4.0535   -5.3915 C.2       1 <0>         0.0440
     16 O4          3.1164   -4.1077   -4.1489 O.3       1 <0>        -0.0626
     17 C12         4.7280   -4.8045   -5.8557 C.2       1 <0>         0.0686
     18 C13         5.8440   -5.0008   -5.0376 C.2       1 <0>        -0.2263
     19 C14         5.9937   -4.2945   -3.8125 C.2       1 <0>         0.4861
     20 O5          5.0525   -3.4131   -3.4116 O.3       1 <0>        -0.6211
     21 N2          7.0667   -4.5125   -3.0706 N.2       1 <0>        -0.6682
     22 C15         8.0142   -5.3734   -3.4330 C.2       1 <0>         0.6670
     23 O6          8.9760   -5.5243   -2.7001 O.2       1 <0>        -0.5780
     24 N3          7.9563   -6.0837   -4.5714 N.am      1 <0>        -0.6954
     25 C16         6.9048   -5.9505   -5.4089 C.2       1 <0>         0.5669
     26 O7          6.8393   -6.5927   -6.4411 O.2       1 <0>        -0.5317
     27 H1         -0.3278   -0.5670    1.0943 H         1 <0>         0.0618
     28 H2         -1.7766   -0.4795    0.0639 H         1 <0>         0.0602
     29 H3         -1.9205   -1.0016    1.7595 H         1 <0>         0.1062
     30 H4          0.0513   -0.5071   -0.9543 H         1 <0>         0.1513
     31 H5          1.4439   -0.8788   -2.9439 H         1 <0>         0.1566
     32 H6         -0.5096   -4.7276   -0.5409 H         1 <0>         0.1631
     33 H7          1.2041   -1.8635   -5.5330 H         1 <0>         0.1481
     34 H8          3.0977   -2.8343   -7.1557 H         1 <0>         0.1539
     35 H9          4.7028   -5.2332   -6.8467 H         1 <0>         0.1631
     36 H10         8.6726   -6.6994   -4.7919 H         1 <0>         0.4014
@<TRIPOS>BOND
     1    1    2 1
     2    1   27 1
     3    1   28 1
     4    1   29 1
     5    2    3 1
     6    3    8 ar
     7    3    4 ar
     8    4    5 ar
     9    4   30 1
    10    5    6 ar
    11    5   31 1
    12    6    7 ar
    13    6   12 1
    14    7    8 ar
    15    7    9 1
    16    8   32 1
    17    9   10 2
    18    9   11 1
    19   12   16 1
    20   12   13 2
    21   13   14 1
    22   13   33 1
    23   14   15 2
    24   14   34 1
    25   15   16 1
    26   15   17 1
    27   17   18 2
    28   17   35 1
    29   18   25 1
    30   18   19 1
    31   19   20 1
    32   19   21 2
    33   21   22 1
    34   22   23 2
    35   22   24 am
    36   24   25 am
    37   24   36 1
    38   25   26 2
@<TRIPOS>MOLECULE
ZINC60330318
   46    48     0     0     0
SMALL
USER_CHARGES

@<TRIPOS>ATOM
      1 C1         -0.0173    1.4248    0.0099 C.3       1 <0>         0.0277
      2 O1          0.0021   -0.0041    0.0020 O.3       1 <0>        -0.3201
      3 C2         -1.2000   -0.6373    0.0101 C.ar      1 <0>         0.1631
      4 C3         -2.3739    0.1053    0.0195 C.ar      1 <0>        -0.2495
      5 C4         -3.5969   -0.5315    0.0277 C.ar      1 <0>         0.0009
      6 C5         -3.6573   -1.9236    0.0262 C.ar      1 <0>        -0.0573
      7 C6         -2.4753   -2.6708    0.0162 C.ar      1 <0>         0.1865
      8 C7         -1.2515   -2.0232    0.0031 C.ar      1 <0>        -0.2528
      9 O2         -2.5275   -4.0281    0.0150 O.3       1 <0>        -0.2780
     10 C8         -1.2802   -4.7254    0.0047 C.3       1 <0>         0.0239
     11 C9         -4.9715   -2.6109    0.0355 C.2       1 <0>         0.2523
     12 N1         -6.1648   -2.0044    0.0457 N.2       1 <0>        -0.5457
     13 H1         -6.9870   -4.9970    0.0479 H         1 <0>         0.4243
     14 C10        -7.1234   -2.9104    0.0520 C.2       1 <0>         0.5178
     15 N2         -6.5370   -4.1377    0.0456 N.pl3     1 <0>        -0.5183
     16 N3         -5.1508   -3.9137    0.0293 N.2       1 <0>        -0.3289
     17 N4         -8.4638   -2.6611    0.0633 N.2       1 <0>        -0.6590
     18 C11        -8.8977   -1.4333    0.0684 C.2       1 <0>         0.4307
     19 O3         -8.0223   -0.4095    0.0626 O.3       1 <0>        -0.6672
     20 C12       -10.3793   -1.1577    0.0809 C.3       1 <0>        -0.0590
     21 H2        -10.6144   -0.2727   -0.5104 H         1 <0>         0.0995
     22 C13       -11.1747   -2.3854   -0.4200 C.3       1 <0>        -0.1405
     23 C14       -12.4166   -2.4005    0.4438 C.2       1 <0>         0.5253
     24 O4        -13.4260   -3.0263    0.1982 O.2       1 <0>        -0.5285
     25 N5        -12.2383   -1.6197    1.5233 N.am      1 <0>        -0.6229
     26 C15       -10.9022   -1.0112    1.5272 C.3       1 <0>         0.1208
     27 C16       -13.2480   -1.4029    2.5625 C.3       1 <0>         0.0892
     28 C17       -13.0868   -2.4585    3.6583 C.3       1 <0>         0.4297
     29 F1        -11.8098   -2.3561    4.2202 F         1 <0>        -0.1795
     30 F2        -14.0510   -2.2514    4.6506 F         1 <0>        -0.1858
     31 F3        -13.2524   -3.7331    3.1059 F         1 <0>        -0.1750
     32 H3          1.0053    1.8021    0.0021 H         1 <0>         0.0961
     33 H4         -0.5445    1.7859   -0.8732 H         1 <0>         0.0568
     34 H5         -0.5275    1.7763    0.9067 H         1 <0>         0.0568
     35 H6         -2.3285    1.1844    0.0207 H         1 <0>         0.1302
     36 H7         -4.5079    0.0486    0.0357 H         1 <0>         0.1506
     37 H8         -0.3368   -2.5974   -0.0083 H         1 <0>         0.1351
     38 H9         -0.7192   -4.4531   -0.8893 H         1 <0>         0.0521
     39 H10        -0.7056   -4.4552    0.8906 H         1 <0>         0.0521
     40 H11        -1.4645   -5.7997    0.0048 H         1 <0>         0.0973
     41 H12       -11.4417   -2.2645   -1.4699 H         1 <0>         0.0989
     42 H13       -10.5980   -3.2988   -0.2749 H         1 <0>         0.1364
     43 H14       -10.2485   -1.5411    2.2201 H         1 <0>         0.0812
     44 H15       -10.9674    0.0422    1.7998 H         1 <0>         0.0847
     45 H16       -13.1190   -0.4098    2.9929 H         1 <0>         0.1236
     46 H17       -14.2430   -1.4827    2.1247 H         1 <0>         0.1246
@<TRIPOS>BOND
     1    1    2 1
     2    1   32 1
     3    1   33 1
     4    1   34 1
     5    2    3 1
     6    3    8 ar
     7    3    4 ar
     8    4    5 ar
     9    4   35 1
    10    5    6 ar
    11    5   36 1
    12    6    7 ar
    13    6   11 1
    14    7    8 ar
    15    7    9 1
    16    8   37 1
    17    9   10 1
    18   10   38 1
    19   10   39 1
    20   10   40 1
    21   11   12 1
    22   11   16 2
    23   12   14 2
    24   13   15 1
    25   14   17 1
    26   14   15 1
    27   15   16 1
    28   17   18 2
    29   18   19 1
    30   18   20 1
    31   20   21 1
    32   20   26 1
    33   20   22 1
    34   22   23 1
    35   22   41 1
    36   22   42 1
    37   23   24 2
    38   23   25 am
    39   25   26 1
    40   25   27 1
    41   26   43 1
    42   26   44 1
    43   27   28 1
    44   27   45 1
    45   27   46 1
    46   28   29 1
    47   28   30 1
    48   28   31 1
@<TRIPOS>MOLECULE
ZINC63466060
   40    43     0     0     0
SMALL
USER_CHARGES

@<TRIPOS>ATOM
      1 C1         -0.0168    1.3892    0.0097 C.ar      1 <0>        -0.0657
      2 C2          1.1697    2.0933    0.0021 C.ar      1 <0>        -0.1616
      3 C3          2.3788    1.4170   -0.0135 C.ar      1 <0>         0.0935
      4 C4          2.4022    0.0317   -0.0212 C.ar      1 <0>        -0.1588
      5 C5          1.2204   -0.6803   -0.0133 C.ar      1 <0>        -0.0480
      6 C6          0.0021   -0.0041    0.0020 C.ar      1 <0>         0.0012
      7 C7         -1.2715   -0.7655    0.0106 C.2       1 <0>         0.2479
      8 N1         -1.3777   -2.0996    0.0045 N.2       1 <0>        -0.5435
      9 C8         -2.6523   -2.4440    0.0161 C.2       1 <0>         0.5245
     10 N2         -3.3921   -1.3006    0.0301 N.pl3     1 <0>        -0.5104
     11 N3         -2.4752   -0.2370    0.0311 N.2       1 <0>        -0.3497
     12 N4         -3.1391   -3.7126    0.0140 N.2       1 <0>        -0.6410
     13 C9         -2.3125   -4.7331   -0.0003 C.2       1 <0>         0.4862
     14 O1         -0.9780   -4.5215   -0.0128 O.3       1 <0>        -0.6340
     15 C10        -2.8407   -6.1099   -0.0026 C.2       1 <0>         0.1431
     16 C11        -4.2046   -6.4758    0.0037 C.2       1 <0>        -0.1914
     17 C12        -4.2725   -7.8233   -0.0011 C.2       1 <0>         0.0237
     18 N5         -3.0017   -8.3071   -0.0101 N.pl3     1 <0>        -0.3489
     19 N6         -2.1218   -7.2171   -0.0166 N.2       1 <0>        -0.2402
     20 C13        -2.6363   -9.6594   -0.0173 C.ar      1 <0>         0.2436
     21 C14        -3.6149  -10.6446   -0.0213 C.ar      1 <0>        -0.1551
     22 C15        -3.2514  -11.9770   -0.0284 C.ar      1 <0>        -0.0215
     23 C16        -1.9145  -12.3305   -0.0315 C.ar      1 <0>        -0.0805
     24 C17        -0.9376  -11.3518   -0.0276 C.ar      1 <0>        -0.0231
     25 C18        -1.2946  -10.0176   -0.0263 C.ar      1 <0>        -0.1299
     26 N7         -1.5284  -13.7594   -0.0386 N.pl3     1 <0>         0.0411
     27 O2         -2.3815  -14.6161   -0.0417 O.2       1 <0>        -0.1669
     28 O3         -0.3599  -14.0699   -0.0414 O.3       1 <0>        -0.1642
     29 F1          3.5384    2.1102   -0.0217 F         1 <0>        -0.1453
     30 H1         -0.9588    1.9172    0.0260 H         1 <0>         0.1387
     31 H2          1.1560    3.1732    0.0081 H         1 <0>         0.1342
     32 H3          3.3469   -0.4916   -0.0337 H         1 <0>         0.1359
     33 H4          1.2395   -1.7601   -0.0196 H         1 <0>         0.1509
     34 H5         -5.0446   -5.7972    0.0111 H         1 <0>         0.1686
     35 H6         -5.1768   -8.4137    0.0021 H         1 <0>         0.1812
     36 H7         -4.6592  -10.3692   -0.0185 H         1 <0>         0.1535
     37 H8         -4.0121  -12.7437   -0.0312 H         1 <0>         0.1599
     38 H9          0.1057  -11.6310   -0.0297 H         1 <0>         0.1603
     39 H10        -0.5312   -9.2537   -0.0281 H         1 <0>         0.1638
     40 H11        -4.3597   -1.2341    0.0407 H         1 <0>         0.4280
@<TRIPOS>BOND
     1    1    6 ar
     2    1    2 ar
     3    1   30 1
     4    2    3 ar
     5    2   31 1
     6    3    4 ar
     7    3   29 1
     8    4    5 ar
     9    4   32 1
    10    5    6 ar
    11    5   33 1
    12    6    7 1
    13    7    8 1
    14    7   11 2
    15    8    9 2
    16    9   12 1
    17    9   10 1
    18   10   11 1
    19   10   40 1
    20   12   13 2
    21   13   14 1
    22   13   15 1
    23   15   19 2
    24   15   16 1
    25   16   17 2
    26   16   34 1
    27   17   18 1
    28   17   35 1
    29   18   19 1
    30   18   20 1
    31   20   25 ar
    32   20   21 ar
    33   21   22 ar
    34   21   36 1
    35   22   23 ar
    36   22   37 1
    37   23   24 ar
    38   23   26 1
    39   24   25 ar
    40   24   38 1
    41   25   39 1
    42   26   27 2
    43   26   28 1
@<TRIPOS>MOLECULE
ZINC66927484
   40    44     0     0     0
SMALL
USER_CHARGES

@<TRIPOS>ATOM
      1 C1         -0.0162    1.3431    0.0094 C.2       1 <0>        -0.2094
      2 C2          1.3255    1.7742   -0.0011 C.2       1 <0>        -0.2129
      3 C3          2.0965    0.6546   -0.0144 C.2       1 <0>         0.1320
      4 O1          1.2801   -0.4167   -0.0124 O.3       1 <0>        -0.1674
      5 C4          0.0021   -0.0041    0.0020 C.2       1 <0>        -0.0709
      6 C5          3.5740    0.6191   -0.0292 C.2       1 <0>         0.1835
      7 N1          4.3288   -0.4906   -0.0423 N.2       1 <0>        -0.6115
      8 C6          5.6000   -0.1602   -0.0531 C.2       1 <0>         0.3452
      9 N2          5.6842    1.1877   -0.0470 N.2       1 <0>        -0.3739
     10 N3          4.3657    1.6705   -0.0373 N.2       1 <0>        -0.3591
     11 N4          6.6699   -1.0422   -0.0682 N.am      1 <0>        -0.5982
     12 C7          7.9323   -0.5702   -0.0782 C.2       1 <0>         0.5763
     13 O2          8.1331    0.6294   -0.0740 O.2       1 <0>        -0.4884
     14 C8          9.0684   -1.5068   -0.0942 C.2       1 <0>         0.0056
     15 C9         10.3552   -1.0375   -0.0992 C.2       1 <0>        -0.1947
     16 S1         11.2601   -2.4566   -0.1171 S.3       1 <0>         0.1559
     17 C10         9.9080   -3.6206   -0.1174 C.2       1 <0>         0.1058
     18 N5          8.8600   -2.8168   -0.0985 N.2       1 <0>        -0.4492
     19 C11         9.9497   -5.0984   -0.1298 C.ar      1 <0>        -0.0024
     20 C12         8.7625   -5.8320   -0.1340 C.ar      1 <0>        -0.0639
     21 C13         8.8044   -7.2099   -0.1448 C.ar      1 <0>        -0.1107
     22 C14        10.0248   -7.8730   -0.1517 C.ar      1 <0>         0.0657
     23 C15        11.2120   -7.1472   -0.1500 C.ar      1 <0>         0.0512
     24 C16        11.1761   -5.7635   -0.1432 C.ar      1 <0>        -0.0899
     25 O3         12.4163   -7.7819   -0.1646 O.3       1 <0>        -0.3050
     26 C17        12.4186   -9.1665    0.1992 C.3       1 <0>         0.0204
     27 C18        11.2696   -9.8605   -0.5448 C.3       1 <0>         0.0190
     28 O4         10.0420   -9.2338   -0.1579 O.3       1 <0>        -0.3040
     29 H1         -0.8931    1.9733    0.0252 H         1 <0>         0.1421
     30 H2          1.6739    2.7965    0.0008 H         1 <0>         0.1483
     31 H3         -0.8667   -0.6456    0.0072 H         1 <0>         0.1951
     32 H4          6.5098   -1.9989   -0.0716 H         1 <0>         0.4142
     33 H5         10.7018   -0.0147   -0.0935 H         1 <0>         0.2114
     34 H6          7.8113   -5.3205   -0.1286 H         1 <0>         0.1500
     35 H7          7.8847   -7.7760   -0.1474 H         1 <0>         0.1446
     36 H8         12.0968   -5.1991   -0.1442 H         1 <0>         0.1400
     37 H9         13.3680   -9.6199   -0.0858 H         1 <0>         0.1234
     38 H10        12.2721   -9.2643    1.2748 H         1 <0>         0.0792
     39 H11        11.4123   -9.7566   -1.6204 H         1 <0>         0.0797
     40 H12        11.2434  -10.9168   -0.2773 H         1 <0>         0.1232
@<TRIPOS>BOND
     1    1    5 2
     2    1    2 1
     3    1   29 1
     4    2    3 2
     5    2   30 1
     6    3    4 1
     7    3    6 1
     8    4    5 1
     9    5   31 1
    10    6    7 1
    11    6   10 2
    12    7    8 2
    13    8   11 1
    14    8    9 1
    15    9   10 1
    16   11   12 am
    17   11   32 1
    18   12   13 2
    19   12   14 1
    20   14   18 1
    21   14   15 2
    22   15   16 1
    23   15   33 1
    24   16   17 1
    25   17   18 2
    26   17   19 1
    27   19   24 ar
    28   19   20 ar
    29   20   21 ar
    30   20   34 1
    31   21   22 ar
    32   21   35 1
    33   22   28 1
    34   22   23 ar
    35   23   24 ar
    36   23   25 1
    37   24   36 1
    38   25   26 1
    39   26   27 1
    40   26   37 1
    41   26   38 1
    42   27   28 1
    43   27   39 1
    44   27   40 1
@<TRIPOS>MOLECULE
ZINC02763015
   45    47     0     0     0
SMALL
USER_CHARGES
N-(3-carbamoyl-6-methyl-4,5,6,7-tetrahydrobenzothiophen-2-yl)-1,5-dimethyl-4-nitro-pyrazole-3-carboxamide
@<TRIPOS>ATOM
      1 C1          3.5783  -10.1566   -5.7541 C.3       1 <0>        -0.1047
      2 C2          3.1756   -9.2307   -4.6354 C.2       1 <0>         0.0979
      3 C3          2.9228   -7.9052   -4.7417 C.2       1 <0>        -0.1012
      4 C4          2.5876   -7.4780   -3.4348 C.2       1 <0>         0.0383
      5 N1          2.6636   -8.5366   -2.6529 N.2       1 <0>        -0.2264
      6 N2          3.0001   -9.5688   -3.3398 N.pl3     1 <0>        -0.2587
      7 C5          3.1746  -10.9174   -2.7947 C.3       1 <0>         0.0766
      8 C6          2.2275   -6.1061   -3.0241 C.2       1 <0>         0.5976
      9 O1          2.1993   -5.2125   -3.8480 O.2       1 <0>        -0.4748
     10 N3          1.9299   -5.8446   -1.7359 N.am      1 <0>        -0.6007
     11 C7          1.5920   -4.5574   -1.3505 C.2       1 <0>         0.0627
     12 C8          1.2580   -4.0957   -0.0848 C.2       1 <0>        -0.2173
     13 C9          0.9413   -2.6843    0.0531 C.2       1 <0>        -0.0675
     14 C10         1.0083   -1.9655   -1.0886 C.2       1 <0>        -0.2006
     15 S1          1.4838   -3.1333   -2.3314 S.3       1 <0>         0.2387
     16 C11         0.7357   -0.5020   -1.2518 C.3       1 <0>        -0.0317
     17 C12         0.0021   -0.0041    0.0020 C.3       1 <0>        -0.0875
     18 H1         -1.0198   -0.3833    0.0048 H         1 <0>         0.0770
     19 C13         0.7423   -0.5142    1.2418 C.3       1 <0>        -0.1137
     20 C14         0.5567   -2.0270    1.3728 C.3       1 <0>        -0.0599
     21 C15        -0.0187    1.5258    0.0104 C.3       1 <0>        -0.1476
     22 C16         1.2255   -4.9985    1.0698 C.2       1 <0>         0.5837
     23 O2          0.1969   -5.5823    1.3571 O.2       1 <0>        -0.5310
     24 N4          2.3347   -5.1820    1.8131 N.am      1 <0>        -0.8475
     25 N5          2.9848   -7.0768   -5.9669 N.pl3     1 <0>         0.0532
     26 O3          4.0261   -6.5271   -6.2783 O.2       1 <0>        -0.1196
     27 O4          1.9944   -6.9449   -6.6636 O.3       1 <0>        -0.1210
     28 H2          4.6650  -10.1760   -5.8363 H         1 <0>         0.1029
     29 H3          3.2117  -11.1614   -5.5440 H         1 <0>         0.0953
     30 H4          3.1493   -9.8020   -6.6914 H         1 <0>         0.0955
     31 H5          4.2076  -11.0481   -2.4723 H         1 <0>         0.1024
     32 H6          2.5081  -11.0541   -1.9432 H         1 <0>         0.1125
     33 H7          2.9379  -11.6533   -3.5632 H         1 <0>         0.1096
     34 H8          1.9524   -6.5576   -1.0785 H         1 <0>         0.4265
     35 H9          0.1117   -0.3405   -2.1308 H         1 <0>         0.0829
     36 H10         1.6766    0.0364   -1.3649 H         1 <0>         0.0852
     37 H11         1.8042   -0.2864    1.1489 H         1 <0>         0.0674
     38 H12         0.3440   -0.0224    2.1293 H         1 <0>         0.0713
     39 H13         1.1964   -2.4059    2.1699 H         1 <0>         0.0726
     40 H14        -0.4852   -2.2486    1.6039 H         1 <0>         0.0799
     41 H15         1.0039    1.9031    0.0027 H         1 <0>         0.0572
     42 H16        -0.5459    1.8868   -0.8726 H         1 <0>         0.0583
     43 H17        -0.5289    1.8773    0.9072 H         1 <0>         0.0586
     44 H18         3.1545   -4.7167    1.5842 H         1 <0>         0.4039
     45 H19         2.3132   -5.7794    2.5771 H         1 <0>         0.4037
@<TRIPOS>BOND
     1    1    2 1
     2    1   28 1
     3    1   29 1
     4    1   30 1
     5    2    6 1
     6    2    3 2
     7    3    4 1
     8    3   25 1
     9    4    5 2
    10    4    8 1
    11    5    6 1
    12    6    7 1
    13    7   31 1
    14    7   32 1
    15    7   33 1
    16    8    9 2
    17    8   10 am
    18   10   11 1
    19   10   34 1
    20   11   15 1
    21   11   12 2
    22   12   13 1
    23   12   22 1
    24   13   20 1
    25   13   14 2
    26   14   15 1
    27   14   16 1
    28   16   17 1
    29   16   35 1
    30   16   36 1
    31   17   18 1
    32   17   19 1
    33   17   21 1
    34   19   20 1
    35   19   37 1
    36   19   38 1
    37   20   39 1
    38   20   40 1
    39   21   41 1
    40   21   42 1
    41   21   43 1
    42   22   23 2
    43   22   24 am
    44   24   44 1
    45   24   45 1
    46   25   26 2
    47   25   27 1
@<TRIPOS>MOLECULE
ZINC25703808
   54    56     0     0     0
SMALL
USER_CHARGES
(2S)-N-[3-(dimethylsulfamoyl)phenyl]-2-[[(2R)-2-methyl-3-oxo-4H-1,4-benzoxazin-6-yl]amino]propanamide
@<TRIPOS>ATOM
      1 C1         -4.6541    0.4591    0.9644 C.3       1 <0>        -0.1362
      2 C2         -3.3551    1.1940    1.3014 C.3       1 <0>         0.0776
      3 H1         -3.0250    0.9879    2.3303 H         1 <0>         0.1012
      4 C3         -3.5498    2.6753    1.1000 C.2       1 <0>         0.4951
      5 O1         -4.6489    3.1692    1.2384 O.2       1 <0>        -0.5079
      6 N1         -2.4953    3.4503    0.7654 N.am      1 <0>        -0.6738
      7 C4         -1.2424    2.8496    0.5777 C.ar      1 <0>         0.1510
      8 C5         -0.0888    3.6151    0.5510 C.ar      1 <0>        -0.2004
      9 C6          1.1422    3.0005    0.3632 C.ar      1 <0>         0.2379
     10 C7          1.2143    1.6229    0.2023 C.ar      1 <0>        -0.1990
     11 C8          0.0622    0.8588    0.2291 C.ar      1 <0>        -0.0541
     12 C9         -1.1671    1.4676    0.4115 C.ar      1 <0>         0.0152
     13 O2         -2.3083    0.7266    0.4467 O.3       1 <0>        -0.3070
     14 N2          2.3107    3.7698    0.3355 N.pl3     1 <0>        -0.7418
     15 C10         3.6096    3.1219    0.1369 C.3       1 <0>         0.1390
     16 H2          3.5774    2.1499    0.6509 H         1 <0>         0.1105
     17 C11         3.8668    2.9433   -1.3607 C.3       1 <0>        -0.1677
     18 C12         4.6953    3.9796    0.7341 C.2       1 <0>         0.5160
     19 O3          4.4120    5.0288    1.2727 O.2       1 <0>        -0.5155
     20 N3          5.9811    3.5809    0.6698 N.am      1 <0>        -0.6825
     21 C13         6.9993    4.4261    1.1246 C.ar      1 <0>         0.1338
     22 C14         6.8737    5.8026    0.9887 C.ar      1 <0>        -0.0675
     23 C15         7.8780    6.6343    1.4433 C.ar      1 <0>        -0.1173
     24 C16         9.0129    6.0973    2.0235 C.ar      1 <0>        -0.0351
     25 C17         9.1432    4.7272    2.1555 C.ar      1 <0>        -0.6567
     26 C18         8.1399    3.8902    1.7076 C.ar      1 <0>        -0.0488
     27 S1         10.5910    4.0482    2.8954 S.o2      1 <0>         2.6949
     28 O4         11.1377    5.0640    3.7252 O.2       1 <0>        -0.9495
     29 O5         10.2293    2.7684    3.3959 O.2       1 <0>        -0.9515
     30 N4         11.6862    3.7891    1.6806 N.pl3     1 <0>        -1.0052
     31 C19        12.6334    4.8439    1.3111 C.3       1 <0>         0.0843
     32 C20        11.7080    2.5052    0.9755 C.3       1 <0>         0.0853
     33 H3         -5.4597    0.8183    1.6216 H         1 <0>         0.0920
     34 H4         -4.5133   -0.6216    1.1139 H         1 <0>         0.0810
     35 H5         -4.9231    0.6522   -0.0846 H         1 <0>         0.0719
     36 H6         -2.6269    4.5356    0.6441 H         1 <0>         0.4403
     37 H7         -0.1463    4.6863    0.6761 H         1 <0>         0.1316
     38 H8          2.1727    1.1472    0.0555 H         1 <0>         0.1307
     39 H9          0.1212   -0.2122    0.1033 H         1 <0>         0.1386
     40 H10         2.2541    4.8609    0.4628 H         1 <0>         0.4318
     41 H11         4.8421    2.4568   -1.5098 H         1 <0>         0.0711
     42 H12         3.8689    3.9274   -1.8523 H         1 <0>         0.0679
     43 H13         3.0743    2.3173   -1.7967 H         1 <0>         0.0795
     44 H14         6.2301    2.5910    0.2598 H         1 <0>         0.4400
     45 H15         5.9898    6.2223    0.5317 H         1 <0>         0.1415
     46 H16         7.7793    7.7049    1.3413 H         1 <0>         0.1384
     47 H17         9.7991    6.7497    2.3739 H         1 <0>         0.1426
     48 H18         8.2423    2.8200    1.8109 H         1 <0>         0.1438
     49 H19        13.2753    4.4895    0.4912 H         1 <0>         0.0849
     50 H20        13.2567    5.0982    2.1811 H         1 <0>         0.0716
     51 H21        12.0793    5.7360    0.9836 H         1 <0>         0.0610
     52 H22        12.4966    2.5213    0.2088 H         1 <0>         0.0849
     53 H23        10.7332    2.3340    0.4954 H         1 <0>         0.0593
     54 H24        11.9106    1.6963    1.6929 H         1 <0>         0.0712
@<TRIPOS>BOND
     1    1    2 1
     2    1   33 1
     3    1   34 1
     4    1   35 1
     5    2    3 1
     6    2   13 1
     7    2    4 1
     8    4    5 2
     9    4    6 am
    10    6    7 1
    11    6   36 1
    12    7   12 ar
    13    7    8 ar
    14    8    9 ar
    15    8   37 1
    16    9   10 ar
    17    9   14 1
    18   10   11 ar
    19   10   38 1
    20   11   12 ar
    21   11   39 1
    22   12   13 1
    23   14   15 1
    24   14   40 1
    25   15   16 1
    26   15   17 1
    27   15   18 1
    28   17   41 1
    29   17   42 1
    30   17   43 1
    31   18   19 2
    32   18   20 am
    33   20   21 1
    34   20   44 1
    35   21   26 ar
    36   21   22 ar
    37   22   23 ar
    38   22   45 1
    39   23   24 ar
    40   23   46 1
    41   24   25 ar
    42   24   47 1
    43   25   26 ar
    44   25   27 1
    45   26   48 1
    46   27   28 2
    47   27   29 2
    48   27   30 1
    49   30   31 1
    50   30   32 1
    51   31   49 1
    52   31   50 1
    53   31   51 1
    54   32   52 1
    55   32   53 1
    56   32   54 1
@<TRIPOS>MOLECULE
ZINC50056962
   47    49     0     0     0
SMALL
USER_CHARGES

@<TRIPOS>ATOM
      1 C1         -0.0070    1.5649    0.0271 C.3       1 <0>        -0.1664
      2 C2          0.0167    0.0351    0.0337 C.3       1 <0>         0.2536
      3 H1          0.5504   -0.3163    0.9167 H         1 <0>         0.1419
      4 C3         -1.3960   -0.4891    0.0589 C.2       1 <0>         0.2875
      5 N1         -1.9995   -1.0009    1.0934 N.2       1 <0>        -0.5199
      6 C4         -3.2512   -1.3660    0.7625 C.2       1 <0>         0.3020
      7 N2         -3.4494   -1.0831   -0.5015 N.2       1 <0>        -0.3256
      8 O1         -2.2445   -0.5019   -0.9772 O.3       1 <0>        -0.0977
      9 C5         -4.2422   -1.9858    1.6765 C.ar      1 <0>        -0.0552
     10 C6         -3.9079   -2.2313    3.0069 C.ar      1 <0>        -0.0330
     11 C7         -4.8325   -2.8073    3.8534 C.ar      1 <0>        -0.1586
     12 C8         -6.0921   -3.1417    3.3825 C.ar      1 <0>         0.1308
     13 C9         -6.4284   -2.8998    2.0602 C.ar      1 <0>        -0.1579
     14 C10        -5.5118   -2.3189    1.2084 C.ar      1 <0>        -0.0448
     15 F1         -6.9946   -3.7056    4.2148 F         1 <0>        -0.1301
     16 N3          0.6954   -0.4479   -1.1715 N.am      1 <0>        -0.7412
     17 C11         2.0386   -0.5560   -1.1909 C.2       1 <0>         0.7132
     18 O2          2.6872   -0.2525   -0.2082 O.2       1 <0>        -0.5615
     19 N4          2.6630   -1.0003   -2.2996 N.am      1 <0>        -0.6807
     20 C12         4.0630   -1.0213   -2.3545 C.ar      1 <0>         0.1485
     21 C13         4.7151   -0.7506   -3.5501 C.ar      1 <0>        -0.1238
     22 C14         6.0945   -0.7713   -3.6042 C.ar      1 <0>        -0.1194
     23 C15         6.8297   -1.0628   -2.4630 C.ar      1 <0>         0.1400
     24 C16         6.1777   -1.3336   -1.2674 C.ar      1 <0>        -0.0987
     25 C17         4.7984   -1.3072   -1.2119 C.ar      1 <0>        -0.0978
     26 N5          8.2298   -1.0843   -2.5180 N.am      1 <0>        -0.6490
     27 C18         8.9200   -1.9701   -1.7728 C.2       1 <0>         0.6463
     28 O3          8.3345   -2.6930   -0.9909 O.2       1 <0>        -0.5507
     29 O4         10.2584   -2.0542   -1.8946 O.3       1 <0>        -0.3625
     30 C19        10.9255   -3.0151   -1.0738 C.3       1 <0>         0.0527
     31 H2          1.0148    1.9440    0.0089 H         1 <0>         0.0908
     32 H3         -0.5407    1.9162   -0.8559 H         1 <0>         0.0702
     33 H4         -0.5119    1.9243    0.9238 H         1 <0>         0.0808
     34 H5         -2.9263   -1.9712    3.3747 H         1 <0>         0.1510
     35 H6         -4.5742   -2.9981    4.8845 H         1 <0>         0.1483
     36 H7         -7.4111   -3.1623    1.6971 H         1 <0>         0.1475
     37 H8         -5.7764   -2.1263    0.1791 H         1 <0>         0.1434
     38 H9          0.1779   -0.6900   -1.9554 H         1 <0>         0.4058
     39 H10         2.1432   -1.3057   -3.0595 H         1 <0>         0.4095
     40 H11         4.1432   -0.5241   -4.4379 H         1 <0>         0.1328
     41 H12         6.6016   -0.5610   -4.5343 H         1 <0>         0.1335
     42 H13         6.7496   -1.5607   -0.3798 H         1 <0>         0.1447
     43 H14         4.2914   -1.5131   -0.2808 H         1 <0>         0.1467
     44 H15         8.7022   -0.4616   -3.0925 H         1 <0>         0.4184
     45 H16        10.7407   -2.7871   -0.0241 H         1 <0>         0.0639
     46 H17        10.5475   -4.0119   -1.3011 H         1 <0>         0.0636
     47 H18        11.9970   -2.9793   -1.2703 H         1 <0>         0.1070
@<TRIPOS>BOND
     1    1    2 1
     2    1   31 1
     3    1   32 1
     4    1   33 1
     5    2    3 1
     6    2    4 1
     7    2   16 1
     8    4    8 1
     9    4    5 2
    10    5    6 1
    11    6    7 2
    12    6    9 1
    13    7    8 1
    14    9   14 ar
    15    9   10 ar
    16   10   11 ar
    17   10   34 1
    18   11   12 ar
    19   11   35 1
    20   12   13 ar
    21   12   15 1
    22   13   14 ar
    23   13   36 1
    24   14   37 1
    25   16   17 am
    26   16   38 1
    27   17   18 2
    28   17   19 am
    29   19   20 1
    30   19   39 1
    31   20   25 ar
    32   20   21 ar
    33   21   22 ar
    34   21   40 1
    35   22   23 ar
    36   22   41 1
    37   23   24 ar
    38   23   26 1
    39   24   25 ar
    40   24   42 1
    41   25   43 1
    42   26   27 am
    43   26   44 1
    44   27   28 2
    45   27   29 1
    46   29   30 1
    47   30   45 1
    48   30   46 1
    49   30   47 1
@<TRIPOS>MOLECULE
ZINC09340732
   53    56     0     0     0
SMALL
USER_CHARGES

@<TRIPOS>ATOM
      1 C1         -0.0187    1.5258    0.0104 C.3       1 <0>        -0.1606
      2 C2          0.0021   -0.0041    0.0020 C.3       1 <0>         0.1461
      3 H1          0.5124   -0.3544   -0.8951 H         1 <0>         0.1113
      4 C3         -1.4333   -0.5318    0.0090 C.3       1 <0>        -0.1514
      5 C4         -1.4484   -1.9870    0.3958 C.2       1 <0>         0.5287
      6 O1         -1.6231   -2.8347   -0.4541 O.2       1 <0>        -0.5144
      7 N1         -1.2682   -2.3544    1.6831 N.am      1 <0>        -0.6779
      8 C5         -0.9697   -1.3967    2.6590 C.ar      1 <0>         0.1373
      9 C6         -1.6731   -1.3541    3.8514 C.ar      1 <0>        -0.1193
     10 C7         -1.3445   -0.4137    4.8106 C.ar      1 <0>        -0.0898
     11 C8         -0.3156    0.4824    4.5843 C.ar      1 <0>        -0.1101
     12 C9          0.3852    0.4523    3.3927 C.ar      1 <0>        -0.1007
     13 C10         0.0544   -0.4790    2.4221 C.ar      1 <0>         0.1035
     14 N2          0.7137   -0.4875    1.1867 N.am      1 <0>        -0.5660
     15 C11         1.9823   -0.9323    1.0914 C.2       1 <0>         0.5093
     16 O2          2.5451   -0.9345    0.0169 O.2       1 <0>        -0.4927
     17 C12         2.7018   -1.4268    2.3197 C.3       1 <0>         0.0304
     18 H2          2.7053   -0.6659    3.1002 H         1 <0>         0.1430
     19 C13         2.0765   -2.7453    2.8346 C.3       1 <0>        -0.1380
     20 C14         2.9361   -3.8010    2.1656 C.2       1 <0>         0.1319
     21 N3          4.0067   -3.2303    1.7230 N.2       1 <0>        -0.2751
     22 O3          4.0446   -1.8431    1.9988 O.3       1 <0>        -0.1622
     23 C15         2.6060   -5.2336    2.0424 C.ar      1 <0>        -0.0831
     24 C16         1.4060   -5.7233    2.5635 C.ar      1 <0>        -0.0435
     25 C17         1.1014   -7.0619    2.4458 C.ar      1 <0>        -0.1466
     26 C18         1.9859   -7.9243    1.8105 C.ar      1 <0>         0.1533
     27 C19         3.1804   -7.4415    1.2908 C.ar      1 <0>        -0.2123
     28 C20         3.4901   -6.1033    1.3991 C.ar      1 <0>        -0.0320
     29 O4          1.6823   -9.2431    1.6974 O.3       1 <0>        -0.2849
     30 C21         2.6363  -10.0738    1.0325 C.3       1 <0>         0.0359
     31 C22         2.1318  -11.4936    1.0029 C.2       1 <0>         0.5198
     32 O5          1.0609  -11.7671    1.5019 O.2       1 <0>        -0.5162
     33 N4          2.8709  -12.4593    0.4218 N.am      1 <0>        -0.8493
     34 H3          1.0039    1.9031    0.0027 H         1 <0>         0.0680
     35 H4         -0.5459    1.8868   -0.8726 H         1 <0>         0.0770
     36 H5         -0.5289    1.8773    0.9072 H         1 <0>         0.0642
     37 H6         -2.0245    0.0386    0.7253 H         1 <0>         0.0988
     38 H7         -1.8651   -0.4176   -0.9853 H         1 <0>         0.1197
     39 H8         -1.3466   -3.2884    1.9329 H         1 <0>         0.4114
     40 H9         -2.4764   -2.0531    4.0314 H         1 <0>         0.1379
     41 H10        -1.8936   -0.3788    5.7399 H         1 <0>         0.1365
     42 H11        -0.0588    1.2088    5.3412 H         1 <0>         0.1362
     43 H12         1.1882    1.1533    3.2190 H         1 <0>         0.1353
     44 H13         2.1550   -2.8129    3.9196 H         1 <0>         0.1203
     45 H14         1.0382   -2.8319    2.5145 H         1 <0>         0.1052
     46 H15         0.7181   -5.0537    3.0582 H         1 <0>         0.1339
     47 H16         0.1738   -7.4413    2.8484 H         1 <0>         0.1430
     48 H17         3.8653   -8.1153    0.7976 H         1 <0>         0.1369
     49 H18         4.4169   -5.7279    0.9910 H         1 <0>         0.1386
     50 H19         2.7796   -9.7177    0.0124 H         1 <0>         0.0988
     51 H20         3.5855  -10.0366    1.5671 H         1 <0>         0.0989
     52 H21         3.7274  -12.2405    0.0226 H         1 <0>         0.4042
     53 H22         2.5462  -13.3731    0.4027 H         1 <0>         0.4110
@<TRIPOS>BOND
     1    1    2 1
     2    1   34 1
     3    1   35 1
     4    1   36 1
     5    2    3 1
     6    2   14 1
     7    2    4 1
     8    4    5 1
     9    4   37 1
    10    4   38 1
    11    5    6 2
    12    5    7 am
    13    7    8 1
    14    7   39 1
    15    8   13 ar
    16    8    9 ar
    17    9   10 ar
    18    9   40 1
    19   10   11 ar
    20   10   41 1
    21   11   12 ar
    22   11   42 1
    23   12   13 ar
    24   12   43 1
    25   13   14 1
    26   14   15 am
    27   15   16 2
    28   15   17 1
    29   17   18 1
    30   17   22 1
    31   17   19 1
    32   19   20 1
    33   19   44 1
    34   19   45 1
    35   20   21 2
    36   20   23 1
    37   21   22 1
    38   23   28 ar
    39   23   24 ar
    40   24   25 ar
    41   24   46 1
    42   25   26 ar
    43   25   47 1
    44   26   27 ar
    45   26   29 1
    46   27   28 ar
    47   27   48 1
    48   28   49 1
    49   29   30 1
    50   30   31 1
    51   30   50 1
    52   30   51 1
    53   31   32 2
    54   31   33 am
    55   33   52 1
    56   33   53 1
@<TRIPOS>MOLECULE
ZINC66470142
   52    54     0     0     0
SMALL
USER_CHARGES

@<TRIPOS>ATOM
      1 C1         -0.0184    1.5028    0.0103 C.3       1 <0>        -0.0868
      2 C2          0.0021   -0.0041    0.0020 C.2       1 <0>         0.2576
      3 N1          0.0082   -0.7734   -1.0551 N.2       1 <0>        -0.3283
      4 N2          0.0264   -2.0114   -0.7140 N.2       1 <0>        -0.0301
      5 N3          0.0331   -2.1192    0.5709 N.2       1 <0>        -0.0783
      6 N4          0.0233   -0.8105    1.0851 N.pl3     1 <0>        -0.3331
      7 C3          0.0316   -0.4252    2.4342 C.ar      1 <0>         0.1672
      8 C4          0.7053    0.7246    2.8238 C.ar      1 <0>        -0.1461
      9 C5          0.7142    1.1061    4.1521 C.ar      1 <0>        -0.0804
     10 C6          0.0521    0.3440    5.0974 C.ar      1 <0>         0.0433
     11 C7         -0.6244   -0.8089    4.7122 C.ar      1 <0>         0.2113
     12 C8         -0.6382   -1.1897    3.3783 C.ar      1 <0>        -0.1583
     13 N5         -1.2940   -1.5800    5.6675 N.pl3     1 <0>        -0.7263
     14 C9         -2.0061   -2.7939    5.2608 C.3       1 <0>         0.1043
     15 C10        -2.6372   -3.4351    6.4698 C.2       1 <0>         0.5160
     16 O1         -2.5051   -2.9282    7.5631 O.2       1 <0>        -0.4563
     17 N6         -3.3483   -4.5721    6.3356 N.am      1 <0>        -0.6889
     18 C11        -3.9127   -5.1455    7.4169 C.2       1 <0>         0.6941
     19 O2         -3.7803   -4.6373    8.5130 O.2       1 <0>        -0.5254
     20 N7         -4.6239   -6.2825    7.2827 N.am      1 <0>        -0.7251
     21 C12        -5.2373   -6.9058    8.4581 C.3       1 <0>         0.1670
     22 H1         -4.5906   -6.7636    9.3239 H         1 <0>         0.0919
     23 C13        -6.5979   -6.2596    8.7263 C.3       1 <0>        -0.1342
     24 C14        -7.5058   -6.4591    7.5110 C.3       1 <0>        -0.1176
     25 C15        -7.6936   -7.9558    7.2549 C.3       1 <0>        -0.1225
     26 C16        -6.3329   -8.6020    6.9867 C.3       1 <0>        -0.1153
     27 C17        -5.4251   -8.4025    8.2020 C.3       1 <0>        -0.0998
     28 H2         -5.8815   -8.8662    9.0765 H         1 <0>         0.0895
     29 C18        -4.0645   -9.0487    7.9338 C.3       1 <0>        -0.1485
     30 F1          0.0628    0.7190    6.3953 F         1 <0>        -0.1293
     31 H3          1.0042    1.8801    0.0026 H         1 <0>         0.1049
     32 H4         -0.5455    1.8639   -0.8728 H         1 <0>         0.1095
     33 H5         -0.5286    1.8543    0.9071 H         1 <0>         0.0958
     34 H6          1.2235    1.3215    2.0879 H         1 <0>         0.1451
     35 H7          1.2394    2.0008    4.4524 H         1 <0>         0.1548
     36 H8         -1.1661   -2.0821    3.0759 H         1 <0>         0.1459
     37 H9         -1.2870   -1.3111    6.5995 H         1 <0>         0.4217
     38 H10        -2.7819   -2.5358    4.5399 H         1 <0>         0.1031
     39 H11        -1.3038   -3.4915    4.8045 H         1 <0>         0.1053
     40 H12        -3.4540   -4.9777    5.4609 H         1 <0>         0.4121
     41 H13        -4.7295   -6.6881    6.4080 H         1 <0>         0.3973
     42 H14        -7.0544   -6.7233    9.6008 H         1 <0>         0.0753
     43 H15        -6.4641   -5.1933    8.9087 H         1 <0>         0.0693
     44 H16        -8.4751   -5.9987    7.7021 H         1 <0>         0.0631
     45 H17        -7.0493   -5.9953    6.6365 H         1 <0>         0.0588
     46 H18        -8.1500   -8.4195    8.1294 H         1 <0>         0.0652
     47 H19        -8.3403   -8.0979    6.3891 H         1 <0>         0.0637
     48 H20        -6.4667   -9.6682    6.8043 H         1 <0>         0.0688
     49 H21        -5.8765   -8.1382    6.1122 H         1 <0>         0.0582
     50 H22        -3.4177   -8.9065    8.7996 H         1 <0>         0.0576
     51 H23        -4.1983  -10.1149    7.7514 H         1 <0>         0.0595
     52 H24        -3.6081   -8.5849    7.0593 H         1 <0>         0.0535
@<TRIPOS>BOND
     1    1    2 1
     2    1   31 1
     3    1   32 1
     4    1   33 1
     5    2    6 1
     6    2    3 2
     7    3    4 1
     8    4    5 2
     9    5    6 1
    10    6    7 1
    11    7   12 ar
    12    7    8 ar
    13    8    9 ar
    14    8   34 1
    15    9   10 ar
    16    9   35 1
    17   10   11 ar
    18   10   30 1
    19   11   12 ar
    20   11   13 1
    21   12   36 1
    22   13   14 1
    23   13   37 1
    24   14   15 1
    25   14   38 1
    26   14   39 1
    27   15   16 2
    28   15   17 am
    29   17   18 am
    30   17   40 1
    31   18   19 2
    32   18   20 am
    33   20   21 1
    34   20   41 1
    35   21   22 1
    36   21   27 1
    37   21   23 1
    38   23   24 1
    39   23   42 1
    40   23   43 1
    41   24   25 1
    42   24   44 1
    43   24   45 1
    44   25   26 1
    45   25   46 1
    46   25   47 1
    47   26   27 1
    48   26   48 1
    49   26   49 1
    50   27   28 1
    51   27   29 1
    52   29   50 1
    53   29   51 1
    54   29   52 1
@<TRIPOS>MOLECULE
ZINC08163647
   49    50     0     0     0
SMALL
USER_CHARGES
N'-[2-(2,6-dimethylphenoxy)propanoyl]cyclohexanecarbohydrazide
@<TRIPOS>ATOM
      1 C1         -6.8020    0.5884   -2.3976 C.3       1 <0>        -0.1195
      2 C2         -7.8902    1.1516   -1.5201 C.ar      1 <0>        -0.0967
      3 C3         -9.2089    1.0869   -1.9266 C.ar      1 <0>        -0.1155
      4 C4        -10.2072    1.6082   -1.1245 C.ar      1 <0>        -0.1111
      5 C5         -9.8890    2.1910    0.0883 C.ar      1 <0>        -0.1161
      6 C6         -8.5724    2.2534    0.5018 C.ar      1 <0>        -0.0867
      7 C7         -7.5689    1.7307   -0.3011 C.ar      1 <0>         0.0827
      8 O1         -6.2729    1.7908    0.1034 O.3       1 <0>        -0.2956
      9 C8         -5.7324    0.6230    0.7247 C.3       1 <0>         0.0876
     10 H1         -6.2098   -0.2641    0.3084 H         1 <0>         0.0950
     11 C9         -5.9902    0.6812    2.2317 C.3       1 <0>        -0.1804
     12 C10        -4.2482    0.5604    0.4710 C.2       1 <0>         0.5165
     13 O2         -3.6913    1.4746   -0.0991 O.2       1 <0>        -0.5115
     14 N1         -3.5396   -0.5115    0.8778 N.am      1 <0>        -0.5231
     15 N2         -2.1598   -0.5697    0.6420 N.am      1 <0>        -0.5215
     16 C11        -1.4513   -1.6416    1.0488 C.2       1 <0>         0.5193
     17 O3         -2.0081   -2.5558    1.6190 O.2       1 <0>        -0.5352
     18 C12         0.0318   -1.7069    0.7896 C.3       1 <0>        -0.0938
     19 C13         0.2899   -1.6367   -0.7168 C.3       1 <0>        -0.1145
     20 C14         1.7957   -1.7031   -0.9799 C.3       1 <0>        -0.1184
     21 C15         2.3525   -3.0169   -0.4278 C.3       1 <0>        -0.1241
     22 C16         2.0944   -3.0871    1.0787 C.3       1 <0>        -0.1205
     23 C17         0.5886   -3.0207    1.3418 C.3       1 <0>        -0.0991
     24 C18        -8.2264    2.8883    1.8240 C.3       1 <0>        -0.1262
     25 H2         -6.6410   -0.4605   -2.1486 H         1 <0>         0.0668
     26 H3         -7.0985    0.6723   -3.4431 H         1 <0>         0.0718
     27 H4         -5.8796    1.1461   -2.2356 H         1 <0>         0.0757
     28 H5         -9.4599    0.6322   -2.8735 H         1 <0>         0.1274
     29 H6        -11.2371    1.5604   -1.4459 H         1 <0>         0.1270
     30 H7        -10.6706    2.5975    0.7131 H         1 <0>         0.1282
     31 H8         -7.0622    0.6212    2.4194 H         1 <0>         0.0824
     32 H9         -5.4886   -0.1550    2.7187 H         1 <0>         0.0770
     33 H10        -5.6034    1.6190    2.6305 H         1 <0>         0.0802
     34 H11        -3.9850   -1.2427    1.3338 H         1 <0>         0.4321
     35 H12        -1.7145    0.1615    0.1860 H         1 <0>         0.4328
     36 H13         0.5240   -0.8683    1.2821 H         1 <0>         0.1048
     37 H14        -0.2023   -2.4754   -1.2092 H         1 <0>         0.0715
     38 H15        -0.1067   -0.7008   -1.1101 H         1 <0>         0.0683
     39 H16         2.2879   -0.8645   -0.4875 H         1 <0>         0.0667
     40 H17         1.9795   -1.6531   -2.0531 H         1 <0>         0.0687
     41 H18         3.4252   -3.0642   -0.6152 H         1 <0>         0.0652
     42 H19         1.8603   -3.8556   -0.9202 H         1 <0>         0.0638
     43 H20         2.5866   -2.2484    1.5711 H         1 <0>         0.0644
     44 H21         2.4910   -4.0231    1.4720 H         1 <0>         0.0686
     45 H22         0.4048   -3.0707    2.4150 H         1 <0>         0.0720
     46 H23         0.0964   -3.8594    0.8494 H         1 <0>         0.0723
     47 H24        -8.1361    3.9671    1.6965 H         1 <0>         0.0742
     48 H25        -9.0126    2.6725    2.5474 H         1 <0>         0.0679
     49 H26        -7.2802    2.4846    2.1844 H         1 <0>         0.0785
@<TRIPOS>BOND
     1    1    2 1
     2    1   25 1
     3    1   26 1
     4    1   27 1
     5    2    7 ar
     6    2    3 ar
     7    3    4 ar
     8    3   28 1
     9    4    5 ar
    10    4   29 1
    11    5    6 ar
    12    5   30 1
    13    6    7 ar
    14    6   24 1
    15    7    8 1
    16    8    9 1
    17    9   10 1
    18    9   11 1
    19    9   12 1
    20   11   31 1
    21   11   32 1
    22   11   33 1
    23   12   13 2
    24   12   14 am
    25   14   15 1
    26   14   34 1
    27   15   16 am
    28   15   35 1
    29   16   17 2
    30   16   18 1
    31   18   23 1
    32   18   19 1
    33   18   36 1
    34   19   20 1
    35   19   37 1
    36   19   38 1
    37   20   21 1
    38   20   39 1
    39   20   40 1
    40   21   22 1
    41   21   41 1
    42   21   42 1
    43   22   23 1
    44   22   43 1
    45   22   44 1
    46   23   45 1
    47   23   46 1
    48   24   47 1
    49   24   48 1
    50   24   49 1
@<TRIPOS>MOLECULE
ZINC37069165
   44    45     0     0     0
SMALL
USER_CHARGES

@<TRIPOS>ATOM
      1 C1         -0.0187    1.5258    0.0104 C.3       1 <0>        -0.1823
      2 C2          0.0021   -0.0041    0.0020 C.3       1 <0>         0.1245
      3 C3          0.7421   -0.5109    1.2415 C.3       1 <0>        -0.1828
      4 C4         -1.4333   -0.5336    0.0129 C.3       1 <0>        -0.1416
      5 O1          0.6709   -0.4649   -1.1737 O.3       1 <0>        -0.3021
      6 C5          1.9631   -0.0816   -1.3380 C.ar      1 <0>         0.3013
      7 C6          2.6671   -0.4944   -2.4677 C.ar      1 <0>         0.1207
      8 C7          3.9890   -0.0946   -2.6240 C.ar      1 <0>        -0.0959
      9 C8          4.5586    0.7039   -1.6440 C.ar      1 <0>        -0.1752
     10 C9          3.7984    1.0767   -0.5461 C.ar      1 <0>         0.2989
     11 N1          2.5399    0.6842   -0.4275 N.ar      1 <0>        -0.5475
     12 O2          4.3504    1.8585    0.4170 O.3       1 <0>        -0.2970
     13 C10         3.5176    2.2096    1.5239 C.3       1 <0>         0.0815
     14 C11         4.3069    3.0865    2.4980 C.3       1 <0>         0.0906
     15 H1          4.7095    3.9488    1.9665 H         1 <0>         0.0679
     16 C12         3.3810    3.5648    3.6195 C.3       1 <0>        -0.1474
     17 C13         4.1914    4.3918    4.6223 C.3       1 <0>        -0.1215
     18 C14         5.3515    3.5416    5.1491 C.3       1 <0>        -0.1590
     19 C15         6.2013    3.0642    3.9685 C.3       1 <0>         0.0601
     20 O3          5.3806    2.3285    3.0590 O.3       1 <0>        -0.3712
     21 N2          2.0501   -1.3027   -3.4337 N.pl3     1 <0>        -0.8704
     22 H2          1.0039    1.9031    0.0027 H         1 <0>         0.0882
     23 H3         -0.5459    1.8868   -0.8726 H         1 <0>         0.0553
     24 H4         -0.5289    1.8773    0.9072 H         1 <0>         0.0648
     25 H5          0.2319   -0.1594    2.1383 H         1 <0>         0.0646
     26 H6          0.7568   -1.6008    1.2356 H         1 <0>         0.0554
     27 H7          1.7647   -0.1336    1.2338 H         1 <0>         0.0893
     28 H8         -1.9605   -0.1726   -0.8702 H         1 <0>         0.0644
     29 H9         -1.4185   -1.6235    0.0069 H         1 <0>         0.0645
     30 H10        -1.9435   -0.1821    0.9097 H         1 <0>         0.0775
     31 H11         4.5596   -0.3993   -3.4889 H         1 <0>         0.1455
     32 H12         5.5837    1.0317   -1.7347 H         1 <0>         0.1424
     33 H13         2.6474    2.7586    1.1641 H         1 <0>         0.0780
     34 H14         3.1903    1.3037    2.0340 H         1 <0>         0.0725
     35 H15         2.5861    4.1802    3.1981 H         1 <0>         0.0770
     36 H16         2.9462    2.7028    4.1254 H         1 <0>         0.0757
     37 H17         4.5853    5.2801    4.1284 H         1 <0>         0.0655
     38 H18         3.5505    4.6886    5.4525 H         1 <0>         0.0713
     39 H19         5.9659    4.1403    5.8216 H         1 <0>         0.0749
     40 H20         4.9566    2.6791    5.6859 H         1 <0>         0.0722
     41 H21         6.6289    3.9261    3.4564 H         1 <0>         0.0510
     42 H22         7.0037    2.4233    4.3339 H         1 <0>         0.0955
     43 H23         1.1273   -1.5782   -3.3179 H         1 <0>         0.4038
     44 H24         2.5462   -1.5863   -4.2175 H         1 <0>         0.3990
@<TRIPOS>BOND
     1    1    2 1
     2    1   22 1
     3    1   23 1
     4    1   24 1
     5    2    3 1
     6    2    4 1
     7    2    5 1
     8    3   25 1
     9    3   26 1
    10    3   27 1
    11    4   28 1
    12    4   29 1
    13    4   30 1
    14    5    6 1
    15    6   11 ar
    16    6    7 ar
    17    7    8 ar
    18    7   21 1
    19    8    9 ar
    20    8   31 1
    21    9   10 ar
    22    9   32 1
    23   10   11 ar
    24   10   12 1
    25   12   13 1
    26   13   14 1
    27   13   33 1
    28   13   34 1
    29   14   15 1
    30   14   20 1
    31   14   16 1
    32   16   17 1
    33   16   35 1
    34   16   36 1
    35   17   18 1
    36   17   37 1
    37   17   38 1
    38   18   19 1
    39   18   39 1
    40   18   40 1
    41   19   20 1
    42   19   41 1
    43   19   42 1
    44   21   43 1
    45   21   44 1
@<TRIPOS>MOLECULE
ZINC47618026
   55    56     0     0     0
SMALL
USER_CHARGES

@<TRIPOS>ATOM
      1 C1          0.6668    1.4051   -0.1086 C.3       1 <0>        -0.1476
      2 C2          0.0148    0.0261    0.0105 C.3       1 <0>        -0.0601
      3 C3          0.5386   -0.6792    1.2631 C.3       1 <0>        -0.1537
      4 C4         -1.5033    0.1868    0.1128 C.3       1 <0>        -0.1450
      5 C5          0.3572   -0.8083   -1.2254 C.3       1 <0>        -0.0826
      6 H1         -0.0076   -1.8263   -1.0890 H         1 <0>         0.0735
      7 C6         -0.3057   -0.1899   -2.4579 C.3       1 <0>        -0.1158
      8 C7          0.0367   -1.0243   -3.6938 C.3       1 <0>        -0.1221
      9 C8          1.5540   -1.0481   -3.8888 C.3       1 <0>        -0.1175
     10 C9          2.2169   -1.6665   -2.6563 C.3       1 <0>        -0.1304
     11 C10         1.8745   -0.8321   -1.4204 C.3       1 <0>         0.1656
     12 H2          2.2394    0.1859   -1.5568 H         1 <0>         0.0979
     13 N1          2.5093   -1.4243   -0.2403 N.am      1 <0>        -0.7380
     14 C11         3.7432   -1.0292    0.1309 C.2       1 <0>         0.7044
     15 O1          4.3296   -0.1813   -0.5138 O.2       1 <0>        -0.5866
     16 N2          4.3271   -1.5739    1.2166 N.am      1 <0>        -0.7487
     17 C12         5.6684   -1.1445    1.6200 C.3       1 <0>         0.1421
     18 C13         6.0945   -1.9124    2.8729 C.3       1 <0>         0.0448
     19 N3          7.4395   -1.4817    3.2774 N.3       1 <0>        -0.5329
     20 C14         8.4419   -1.8749    2.2764 C.3       1 <0>         0.0117
     21 C15         9.8162   -1.3558    2.7072 C.3       1 <0>         0.0626
     22 O2         10.1243   -1.8608    4.0093 O.3       1 <0>        -0.3851
     23 C16         9.1689   -1.4963    5.0091 C.3       1 <0>         0.0627
     24 C17         7.7879   -2.0168    4.6016 C.3       1 <0>         0.0186
     25 H3          1.7483    1.2906   -0.1815 H         1 <0>         0.0611
     26 H4          0.2936    1.9076   -1.0010 H         1 <0>         0.0567
     27 H5          0.4229    1.9995    0.7719 H         1 <0>         0.0522
     28 H6          0.0811   -0.2362    2.1477 H         1 <0>         0.0512
     29 H7          0.2867   -1.7387    1.2157 H         1 <0>         0.0503
     30 H8          1.6213   -0.5653    1.3183 H         1 <0>         0.0693
     31 H9         -1.8764    0.6892   -0.7796 H         1 <0>         0.0595
     32 H10        -1.9677   -0.7957    0.1976 H         1 <0>         0.0534
     33 H11        -1.7472    0.7812    0.9933 H         1 <0>         0.0538
     34 H12        -1.3867   -0.1729   -2.3190 H         1 <0>         0.0717
     35 H13         0.0591    0.8281   -2.5944 H         1 <0>         0.0680
     36 H14        -0.3282   -2.0423   -3.5574 H         1 <0>         0.0616
     37 H15        -0.4356   -0.5837   -4.5719 H         1 <0>         0.0641
     38 H16         1.7979   -1.6425   -4.7693 H         1 <0>         0.0641
     39 H17         1.9188   -0.0301   -4.0252 H         1 <0>         0.0645
     40 H18         1.8521   -2.6846   -2.5199 H         1 <0>         0.0611
     41 H19         3.2979   -1.6835   -2.7952 H         1 <0>         0.0660
     42 H20         2.0414   -2.1007    0.2740 H         1 <0>         0.3963
     43 H21         3.8593   -2.2504    1.7308 H         1 <0>         0.3943
     44 H22         6.3727   -1.3465    0.8129 H         1 <0>         0.0663
     45 H23         5.6586   -0.0759    1.8346 H         1 <0>         0.0764
     46 H24         5.3903   -1.7103    3.6799 H         1 <0>         0.0833
     47 H25         6.1044   -2.9810    2.6582 H         1 <0>         0.0423
     48 H26         8.4714   -2.9617    2.1983 H         1 <0>         0.0454
     49 H27         8.1779   -1.4469    1.3093 H         1 <0>         0.0915
     50 H28        10.5716   -1.6936    1.9977 H         1 <0>         0.1002
     51 H29         9.8019   -0.2662    2.7334 H         1 <0>         0.0623
     52 H30         9.4561   -1.9356    5.9644 H         1 <0>         0.1000
     53 H31         9.1357   -0.4107    5.1022 H         1 <0>         0.0618
     54 H32         7.0466   -1.6923    5.3319 H         1 <0>         0.0884
     55 H33         7.8070   -3.1058    4.5606 H         1 <0>         0.0449
@<TRIPOS>BOND
     1    1    2 1
     2    1   25 1
     3    1   26 1
     4    1   27 1
     5    2    3 1
     6    2    4 1
     7    2    5 1
     8    3   28 1
     9    3   29 1
    10    3   30 1
    11    4   31 1
    12    4   32 1
    13    4   33 1
    14    5    6 1
    15    5   11 1
    16    5    7 1
    17    7    8 1
    18    7   34 1
    19    7   35 1
    20    8    9 1
    21    8   36 1
    22    8   37 1
    23    9   10 1
    24    9   38 1
    25    9   39 1
    26   10   11 1
    27   10   40 1
    28   10   41 1
    29   11   12 1
    30   11   13 1
    31   13   14 am
    32   13   42 1
    33   14   15 2
    34   14   16 am
    35   16   17 1
    36   16   43 1
    37   17   18 1
    38   17   44 1
    39   17   45 1
    40   18   19 1
    41   18   46 1
    42   18   47 1
    43   19   24 1
    44   19   20 1
    45   20   21 1
    46   20   48 1
    47   20   49 1
    48   21   22 1
    49   21   50 1
    50   21   51 1
    51   22   23 1
    52   23   24 1
    53   23   52 1
    54   23   53 1
    55   24   54 1
    56   24   55 1
@<TRIPOS>MOLECULE
ZINC59038897
   33    34     0     0     0
SMALL
USER_CHARGES

@<TRIPOS>ATOM
      1 C1         -0.0187    1.5258    0.0104 C.3       1 <0>        -0.1538
      2 C2          0.0021   -0.0041    0.0020 C.3       1 <0>        -0.0680
      3 C3          0.7182   -0.4975   -1.2568 C.3       1 <0>        -0.1367
      4 S1          0.8794   -0.6050    1.4716 S.3       1 <0>        -0.0120
      5 C4         -0.1356   -0.0870    2.8155 C.2       1 <0>         0.2096
      6 N1          0.1144   -0.3046    4.1409 N.pl3     1 <0>        -0.6104
      7 H1          0.8819   -0.7709    4.5072 H         1 <0>         0.4230
      8 C5         -0.9071    0.2512    4.8603 C.2       1 <0>         0.4976
      9 N2         -1.7522    0.7893    4.0145 N.2       1 <0>        -0.3188
     10 N3         -1.2607    0.5801    2.7193 N.2       1 <0>        -0.3003
     11 N4         -1.0283    0.2458    6.2418 N.pl3     1 <0>        -0.5491
     12 N5         -2.1328    0.8561    6.8505 N.2       1 <0>        -0.1921
     13 C6         -2.2465    0.8511    8.1465 C.2       1 <0>         0.1674
     14 C7         -1.1901    0.1889    8.9930 C.3       1 <0>        -0.1532
     15 C8         -3.4030    1.4900    8.7838 C.2       1 <0>        -0.1259
     16 C9         -4.4742    2.1400    8.1965 C.2       1 <0>        -0.1043
     17 C10        -5.4488    2.6646    9.0146 C.2       1 <0>        -0.1614
     18 C11        -5.3305    2.5295   10.3606 C.2       1 <0>        -0.1612
     19 S2         -3.7998    1.6251   10.5193 S.3       1 <0>         0.0861
     20 H2          1.0039    1.9031    0.0027 H         1 <0>         0.0647
     21 H3         -0.5459    1.8868   -0.8726 H         1 <0>         0.0703
     22 H4         -0.5289    1.8773    0.9072 H         1 <0>         0.0746
     23 H5         -1.0205   -0.3814    0.0098 H         1 <0>         0.1042
     24 H6          1.7408   -0.1202   -1.2645 H         1 <0>         0.0680
     25 H7          0.7330   -1.5874   -1.2628 H         1 <0>         0.0682
     26 H8          0.1910   -0.1364   -2.1398 H         1 <0>         0.0836
     27 H9         -0.3483   -0.1804    6.7867 H         1 <0>         0.3983
     28 H10        -0.4185    0.9161    9.2459 H         1 <0>         0.0921
     29 H11        -1.6438   -0.1924    9.9078 H         1 <0>         0.0902
     30 H12        -0.7438   -0.6361    8.4376 H         1 <0>         0.0721
     31 H13        -4.5436    2.2337    7.1228 H         1 <0>         0.1454
     32 H14        -6.2987    3.1787    8.5905 H         1 <0>         0.1404
     33 H15        -5.9956    2.8771   11.1373 H         1 <0>         0.1912
@<TRIPOS>BOND
     1    1    2 1
     2    1   20 1
     3    1   21 1
     4    1   22 1
     5    2    3 1
     6    2    4 1
     7    2   23 1
     8    3   24 1
     9    3   25 1
    10    3   26 1
    11    4    5 1
    12    5   10 2
    13    5    6 1
    14    6    7 1
    15    6    8 1
    16    8    9 2
    17    8   11 1
    18    9   10 1
    19   11   12 1
    20   11   27 1
    21   12   13 2
    22   13   14 1
    23   13   15 1
    24   14   28 1
    25   14   29 1
    26   14   30 1
    27   15   19 1
    28   15   16 2
    29   16   17 1
    30   16   31 1
    31   17   18 2
    32   17   32 1
    33   18   19 1
    34   18   33 1
@<TRIPOS>MOLECULE
ZINC66906239
   43    45     0     0     0
SMALL
USER_CHARGES

@<TRIPOS>ATOM
      1 C1          0.0681    1.5201   -0.1851 C.ar      1 <0>        -0.1105
      2 C2          1.2856    2.1753   -0.1834 C.ar      1 <0>        -0.1242
      3 C3          2.4556    1.4463   -0.1382 C.ar      1 <0>        -0.1153
      4 C4          2.4213    0.0583   -0.0929 C.ar      1 <0>        -0.1126
      5 C5          1.2090   -0.5939   -0.0894 C.ar      1 <0>        -0.0556
      6 C6          0.0319    0.1420   -0.1386 C.ar      1 <0>        -0.1240
      7 C7          1.0960   -2.0946   -0.0254 C.3       1 <0>        -0.0865
      8 C8          2.4215   -2.7500   -0.4075 C.3       1 <0>        -0.1169
      9 C9          3.5364   -2.1105    0.4285 C.3       1 <0>        -0.1101
     10 C10         3.7365   -0.6749   -0.0530 C.3       1 <0>         0.1851
     11 C11         4.6890    0.0490    0.9008 C.3       1 <0>         0.0335
     12 N1          5.9622   -0.6807    0.9686 N.3       1 <0>        -0.6734
     13 C12         6.9038   -0.0131    1.8773 C.3       1 <0>         0.0889
     14 C13         8.1952   -0.7887    1.9209 C.ar      1 <0>        -0.0320
     15 C14         8.3644   -1.7976    2.8505 C.ar      1 <0>        -0.1138
     16 C15         9.5490   -2.5090    2.8906 C.ar      1 <0>        -0.0536
     17 C16        10.5642   -2.2117    2.0006 C.ar      1 <0>        -0.0487
     18 C17        10.3946   -1.2033    1.0704 C.ar      1 <0>        -0.0542
     19 C18         9.2084   -0.4948    1.0276 C.ar      1 <0>        -0.0943
     20 N2         11.8330   -2.9728    2.0441 N.pl3     1 <0>         0.0321
     21 O1         11.9814   -3.8544    2.8580 O.2       1 <0>        -0.1581
     22 O2         12.7208   -2.7128    1.2658 O.3       1 <0>        -0.1565
     23 O3          4.3062   -0.6924   -1.3634 O.3       1 <0>        -0.5358
     24 H1         -0.8515    2.0855   -0.2181 H         1 <0>         0.1240
     25 H2          1.3204    3.2542   -0.2176 H         1 <0>         0.1236
     26 H3          3.4063    1.9588   -0.1385 H         1 <0>         0.1211
     27 H4         -0.9195   -0.3691   -0.1408 H         1 <0>         0.1231
     28 H5          0.8271   -2.3918    0.9883 H         1 <0>         0.0774
     29 H6          0.3193   -2.4262   -0.7144 H         1 <0>         0.0776
     30 H7          2.3753   -3.8193   -0.2009 H         1 <0>         0.0702
     31 H8          2.6188   -2.5886   -1.4672 H         1 <0>         0.0768
     32 H9          3.2513   -2.1085    1.4805 H         1 <0>         0.0741
     33 H10         4.4609   -2.6733    0.2992 H         1 <0>         0.0804
     34 H11         4.8689    1.0604    0.5364 H         1 <0>         0.0815
     35 H12         4.2431    0.0947    1.8943 H         1 <0>         0.0437
     36 H13         5.8146   -1.6407    1.2421 H         1 <0>         0.3460
     37 H14         7.0990    0.9978    1.5196 H         1 <0>         0.0908
     38 H15         6.4732    0.0321    2.8776 H         1 <0>         0.0493
     39 H16         7.5713   -2.0299    3.5458 H         1 <0>         0.1442
     40 H17         9.6815   -3.2968    3.6173 H         1 <0>         0.1540
     41 H18        11.1879   -0.9708    0.3754 H         1 <0>         0.1548
     42 H19         9.0745    0.2905    0.2984 H         1 <0>         0.1490
     43 H20         4.4780    0.1861   -1.7293 H         1 <0>         0.3747
@<TRIPOS>BOND
     1    1    6 ar
     2    1    2 ar
     3    1   24 1
     4    2    3 ar
     5    2   25 1
     6    3    4 ar
     7    3   26 1
     8    4   10 1
     9    4    5 ar
    10    5    6 ar
    11    5    7 1
    12    6   27 1
    13    7    8 1
    14    7   28 1
    15    7   29 1
    16    8    9 1
    17    8   30 1
    18    8   31 1
    19    9   10 1
    20    9   32 1
    21    9   33 1
    22   10   11 1
    23   10   23 1
    24   11   12 1
    25   11   34 1
    26   11   35 1
    27   12   13 1
    28   12   36 1
    29   13   14 1
    30   13   37 1
    31   13   38 1
    32   14   19 ar
    33   14   15 ar
    34   15   16 ar
    35   15   39 1
    36   16   17 ar
    37   16   40 1
    38   17   18 ar
    39   17   20 1
    40   18   19 ar
    41   18   41 1
    42   19   42 1
    43   20   21 2
    44   20   22 1
    45   23   43 1
@<TRIPOS>MOLECULE
ZINC16808388
   45    46     0     0     0
SMALL
USER_CHARGES
N'-[2-(4-isobutoxyphenyl)ethyl]-N'-methyl-1,3,5-triazine-2,4-diamine
@<TRIPOS>ATOM
      1 C1          3.7078   -4.8595   -0.1844 C.3       1 <0>        -0.1473
      2 C2          2.3407   -4.1875   -0.0419 C.3       1 <0>        -0.0952
      3 C3          1.6890   -4.6302    1.2697 C.3       1 <0>        -0.1479
      4 C4          2.5176   -2.6678   -0.0360 C.3       1 <0>         0.0632
      5 O1          1.2345   -2.0389   -0.0203 O.3       1 <0>        -0.3134
      6 C5          1.2134   -0.6801   -0.0132 C.ar      1 <0>         0.1293
      7 C6          0.0021   -0.0041    0.0020 C.ar      1 <0>        -0.1504
      8 C7         -0.0167    1.3772    0.0096 C.ar      1 <0>        -0.0693
      9 C8          1.1705    2.0859    0.0021 C.ar      1 <0>        -0.1201
     10 C9          2.3791    1.4145   -0.0132 C.ar      1 <0>        -0.0752
     11 C10         2.4032    0.0333   -0.0208 C.ar      1 <0>        -0.2084
     12 C11         1.1472    3.5927    0.0105 C.3       1 <0>        -0.0877
     13 C12         1.1531    4.0949    1.4557 C.3       1 <0>         0.1355
     14 N1          1.1303    5.5597    1.4638 N.pl3     1 <0>        -0.5755
     15 C13         2.3875    6.3118    1.4559 C.3       1 <0>         0.0978
     16 C14        -0.0752    6.2310    1.4790 C.ar      1 <0>         0.6263
     17 N2         -1.2182    5.5484    1.4807 N.ar      1 <0>        -0.6349
     18 C15        -2.3730    6.1903    1.4998 C.ar      1 <0>         0.4090
     19 N3         -2.3986    7.5116    1.5072 N.ar      1 <0>        -0.6427
     20 C16        -1.2601    8.2011    1.5005 C.ar      1 <0>         0.6284
     21 N4         -0.0968    7.5592    1.4864 N.ar      1 <0>        -0.6542
     22 N5         -1.2878    9.5807    1.5078 N.pl3     1 <0>        -0.8076
     23 H1          4.3435   -4.5710    0.6527 H         1 <0>         0.0582
     24 H2          3.5818   -5.9422   -0.1886 H         1 <0>         0.0659
     25 H3          4.1721   -4.5442   -1.1188 H         1 <0>         0.0579
     26 H4          1.7050   -4.4760   -0.8790 H         1 <0>         0.0815
     27 H5          0.7151   -4.1514    1.3712 H         1 <0>         0.0625
     28 H6          1.5630   -5.7129    1.2654 H         1 <0>         0.0577
     29 H7          2.3247   -4.3417    2.1068 H         1 <0>         0.0541
     30 H8          3.0613   -2.3618   -0.9298 H         1 <0>         0.0615
     31 H9          3.0787   -2.3708    0.8501 H         1 <0>         0.0623
     32 H10        -0.9255   -0.5572    0.0076 H         1 <0>         0.1305
     33 H11        -0.9595    1.9040    0.0169 H         1 <0>         0.1317
     34 H12         3.3051    1.9703   -0.0194 H         1 <0>         0.1231
     35 H13         3.3475   -0.4907   -0.0323 H         1 <0>         0.1261
     36 H14         2.0264    3.9726   -0.5098 H         1 <0>         0.0698
     37 H15         0.2468    3.9449   -0.4929 H         1 <0>         0.0759
     38 H16         0.2738    3.7150    1.9759 H         1 <0>         0.0935
     39 H17         2.0534    3.7427    1.9590 H         1 <0>         0.0800
     40 H18         2.6895    6.5039    0.4263 H         1 <0>         0.0546
     41 H19         2.2473    7.2593    1.9762 H         1 <0>         0.0815
     42 H20         3.1611    5.7319    1.9592 H         1 <0>         0.0720
     43 H21        -3.2985    5.6337    1.5049 H         1 <0>         0.2056
     44 H22        -0.4577   10.0825    1.5026 H         1 <0>         0.4159
     45 H23        -2.1374   10.0487    1.5181 H         1 <0>         0.4185
@<TRIPOS>BOND
     1    1    2 1
     2    1   23 1
     3    1   24 1
     4    1   25 1
     5    2    3 1
     6    2    4 1
     7    2   26 1
     8    3   27 1
     9    3   28 1
    10    3   29 1
    11    4    5 1
    12    4   30 1
    13    4   31 1
    14    5    6 1
    15    6   11 ar
    16    6    7 ar
    17    7    8 ar
    18    7   32 1
    19    8    9 ar
    20    8   33 1
    21    9   10 ar
    22    9   12 1
    23   10   11 ar
    24   10   34 1
    25   11   35 1
    26   12   13 1
    27   12   36 1
    28   12   37 1
    29   13   14 1
    30   13   38 1
    31   13   39 1
    32   14   15 1
    33   14   16 1
    34   15   40 1
    35   15   41 1
    36   15   42 1
    37   16   21 ar
    38   16   17 ar
    39   17   18 ar
    40   18   19 ar
    41   18   43 1
    42   19   20 ar
    43   20   21 ar
    44   20   22 1
    45   22   44 1
    46   22   45 1
@<TRIPOS>MOLECULE
ZINC00261616
   40    42     0     0     0
SMALL
USER_CHARGES

@<TRIPOS>ATOM
      1 C1         -0.0184    1.5028    0.0103 C.3       1 <0>        -0.1095
      2 C2          0.0021   -0.0041    0.0020 C.ar      1 <0>        -0.1556
      3 C3          0.0057   -0.6889   -1.1975 C.ar      1 <0>        -0.0732
      4 C4          0.0240   -2.0714   -1.2060 C.ar      1 <0>        -0.1723
      5 C5          0.0391   -2.7733   -0.0143 C.ar      1 <0>        -0.0777
      6 C6          0.0360   -2.0949    1.1884 C.ar      1 <0>        -0.1972
      7 C7          0.0230   -0.7057    1.2005 C.ar      1 <0>         0.2152
      8 N1          0.0251   -0.0163    2.4152 N.pl3     1 <0>        -0.7383
      9 C8          0.0472   -0.7580    3.6784 C.3       1 <0>         0.1143
     10 C9          0.0449    0.2128    4.8311 C.2       1 <0>         0.5284
     11 O1          0.0266    1.4070    4.6183 O.2       1 <0>        -0.4948
     12 N2          0.0631   -0.2457    6.0983 N.am      1 <0>        -0.5806
     13 N3          0.0610    0.6568    7.1699 N.2       1 <0>        -0.2269
     14 C10         0.0786    0.2152    8.3902 C.2       1 <0>         0.1212
     15 C11         0.0763    1.1649    9.5178 C.ar      1 <0>        -0.0516
     16 C12         0.0494    2.5406    9.2751 C.ar      1 <0>        -0.0631
     17 C13         0.0468    3.4268   10.3312 C.ar      1 <0>        -0.1052
     18 C14         0.0709    2.9576   11.6369 C.ar      1 <0>         0.0526
     19 C15         0.0979    1.5858   11.8864 C.ar      1 <0>         0.0270
     20 C16         0.0952    0.6918   10.8322 C.ar      1 <0>        -0.0699
     21 O2          0.1181    1.3889   13.2373 O.3       1 <0>        -0.3065
     22 C17         0.5160    2.6513   13.8037 C.3       1 <0>         0.2126
     23 O3          0.0738    3.6173   12.8320 O.3       1 <0>        -0.3060
     24 H1          1.0042    1.8801    0.0026 H         1 <0>         0.0671
     25 H2         -0.5455    1.8639   -0.8728 H         1 <0>         0.0682
     26 H3         -0.5286    1.8543    0.9071 H         1 <0>         0.0602
     27 H4         -0.0060   -0.1439   -2.1298 H         1 <0>         0.1219
     28 H5          0.0261   -2.6044   -2.1453 H         1 <0>         0.1189
     29 H6          0.0529   -3.8531   -0.0245 H         1 <0>         0.1207
     30 H7          0.0474   -2.6436    2.1185 H         1 <0>         0.1192
     31 H8          0.0120    0.9536    2.4225 H         1 <0>         0.4123
     32 H9         -0.8336   -1.3971    3.7399 H         1 <0>         0.0958
     33 H10         0.9461   -1.3729    3.7230 H         1 <0>         0.0961
     34 H11         0.0777   -1.2006    6.2684 H         1 <0>         0.3906
     35 H12         0.0948   -0.8479    8.5796 H         1 <0>         0.1269
     36 H13         0.0304    2.9098    8.2603 H         1 <0>         0.1512
     37 H14         0.0264    4.4898   10.1417 H         1 <0>         0.1422
     38 H15         0.1119   -0.3709   11.0243 H         1 <0>         0.1430
     39 H16         0.0196    2.8155   14.7601 H         1 <0>         0.1351
     40 H17         1.5988    2.6941   13.9208 H         1 <0>         0.0879
@<TRIPOS>BOND
     1    1    2 1
     2    1   24 1
     3    1   25 1
     4    1   26 1
     5    2    7 ar
     6    2    3 ar
     7    3    4 ar
     8    3   27 1
     9    4    5 ar
    10    4   28 1
    11    5    6 ar
    12    5   29 1
    13    6    7 ar
    14    6   30 1
    15    7    8 1
    16    8    9 1
    17    8   31 1
    18    9   10 1
    19    9   32 1
    20    9   33 1
    21   10   11 2
    22   10   12 am
    23   12   13 1
    24   12   34 1
    25   13   14 2
    26   14   15 1
    27   14   35 1
    28   15   20 ar
    29   15   16 ar
    30   16   17 ar
    31   16   36 1
    32   17   18 ar
    33   17   37 1
    34   18   23 1
    35   18   19 ar
    36   19   20 ar
    37   19   21 1
    38   20   38 1
    39   21   22 1
    40   22   23 1
    41   22   39 1
    42   22   40 1
@<TRIPOS>MOLECULE
ZINC49251276
   46    46     0     0     0
SMALL
USER_CHARGES

@<TRIPOS>ATOM
      1 C1         -0.7149   -2.5652   -0.4204 C.3       1 <0>        -0.1554
      2 C2         -1.5741   -1.7636    0.5595 C.3       1 <0>        -0.1056
      3 C3         -1.0764   -2.0014    1.9867 C.3       1 <0>        -0.1456
      4 C4         -1.4731   -0.2739    0.2258 C.3       1 <0>        -0.1240
      5 C5         -2.1218   -0.0110   -1.1347 C.3       1 <0>         0.1435
      6 H1         -1.6695   -0.6601   -1.8845 H         1 <0>         0.1210
      7 C6         -3.5994   -0.2950   -1.0500 C.2       1 <0>         0.5156
      8 O1         -4.3870    0.6198   -0.9331 O.2       1 <0>        -0.5314
      9 N1         -4.0456   -1.5656   -1.1041 N.am      1 <0>        -0.7179
     10 C7         -5.4852   -1.8360   -1.1291 C.3       1 <0>         0.1260
     11 C8         -5.7193   -3.3467   -1.1905 C.3       1 <0>         0.0779
     12 H2         -5.2762   -3.8192   -0.3139 H         1 <0>         0.0667
     13 C9         -7.2237   -3.6295   -1.2172 C.3       1 <0>        -0.1486
     14 C10        -7.4493   -5.1397   -1.3393 C.3       1 <0>        -0.1224
     15 C11        -6.7393   -5.6509   -2.5966 C.3       1 <0>        -0.1588
     16 C12        -5.2537   -5.2900   -2.5167 C.3       1 <0>         0.0608
     17 O2         -5.1154   -3.8749   -2.3730 O.3       1 <0>        -0.3769
     18 N2         -1.9146    1.3894   -1.5121 N.am      1 <0>        -0.6949
     19 C13        -0.8075    1.7472   -2.1924 C.2       1 <0>         0.6512
     20 O3         -0.0266    0.8973   -2.5722 O.2       1 <0>        -0.5679
     21 O4         -0.5669    3.0464   -2.4512 O.3       1 <0>        -0.3632
     22 C14         0.6253    3.3534   -3.1767 C.3       1 <0>         0.0535
     23 H3         -0.7087   -3.6141   -0.1242 H         1 <0>         0.0604
     24 H4         -1.1282   -2.4737   -1.4248 H         1 <0>         0.0553
     25 H5          0.3042   -2.1787   -0.4102 H         1 <0>         0.0631
     26 H6         -2.6126   -2.0845    0.4787 H         1 <0>         0.0748
     27 H7         -0.0378   -1.6805    2.0675 H         1 <0>         0.0580
     28 H8         -1.6885   -1.4303    2.6848 H         1 <0>         0.0558
     29 H9         -1.1483   -3.0627    2.2244 H         1 <0>         0.0589
     30 H10        -1.9880    0.3058    0.9919 H         1 <0>         0.0761
     31 H11        -0.4242    0.0204    0.1911 H         1 <0>         0.0849
     32 H12        -3.4135   -2.3010   -1.1265 H         1 <0>         0.4080
     33 H13        -5.9462   -1.4332   -0.2273 H         1 <0>         0.0873
     34 H14        -5.9284   -1.3637   -2.0058 H         1 <0>         0.0791
     35 H15        -7.6790   -3.2666   -0.2957 H         1 <0>         0.0782
     36 H16        -7.6743   -3.1237   -2.0711 H         1 <0>         0.0769
     37 H17        -7.0424   -5.6413   -0.4613 H         1 <0>         0.0648
     38 H18        -8.5174   -5.3438   -1.4152 H         1 <0>         0.0713
     39 H19        -6.8482   -6.7335   -2.6617 H         1 <0>         0.0751
     40 H20        -7.1802   -5.1858   -3.4784 H         1 <0>         0.0729
     41 H21        -4.8044   -5.7880   -1.6575 H         1 <0>         0.0516
     42 H22        -4.7514   -5.6136   -3.4283 H         1 <0>         0.0966
     43 H23        -2.5742    2.0590   -1.2723 H         1 <0>         0.4178
     44 H24         0.5957    2.8617   -4.1490 H         1 <0>         0.0621
     45 H25         0.6977    4.4319   -3.3170 H         1 <0>         0.1053
     46 H26         1.4919    3.0008   -2.6174 H         1 <0>         0.0622
@<TRIPOS>BOND
     1    1    2 1
     2    1   23 1
     3    1   24 1
     4    1   25 1
     5    2    3 1
     6    2    4 1
     7    2   26 1
     8    3   27 1
     9    3   28 1
    10    3   29 1
    11    4    5 1
    12    4   30 1
    13    4   31 1
    14    5    6 1
    15    5    7 1
    16    5   18 1
    17    7    8 2
    18    7    9 am
    19    9   10 1
    20    9   32 1
    21   10   11 1
    22   10   33 1
    23   10   34 1
    24   11   12 1
    25   11   17 1
    26   11   13 1
    27   13   14 1
    28   13   35 1
    29   13   36 1
    30   14   15 1
    31   14   37 1
    32   14   38 1
    33   15   16 1
    34   15   39 1
    35   15   40 1
    36   16   17 1
    37   16   41 1
    38   16   42 1
    39   18   19 am
    40   18   43 1
    41   19   20 2
    42   19   21 1
    43   21   22 1
    44   22   44 1
    45   22   45 1
    46   22   46 1
@<TRIPOS>MOLECULE
ZINC61517407
   41    42     0     0     0
SMALL
USER_CHARGES

@<TRIPOS>ATOM
      1 C1          0.7994    1.4747   -8.6434 C.3       1 <0>        -0.1541
      2 C2          0.9350   -0.0484   -8.6952 C.3       1 <0>         0.0673
      3 O1          1.1757   -0.5503   -7.3791 O.3       1 <0>        -0.2779
      4 C3          1.3206   -1.8893   -7.2492 C.ar      1 <0>         0.5941
      5 N1          1.5408   -2.4202   -6.0533 N.ar      1 <0>        -0.6065
      6 C4          1.6828   -3.7357   -5.9289 C.ar      1 <0>         0.6523
      7 N2          1.6037   -4.5162   -7.0037 N.ar      1 <0>        -0.6046
      8 C5          1.3841   -3.9832   -8.1940 C.ar      1 <0>         0.4721
      9 N3          1.2371   -2.6737   -8.3185 N.ar      1 <0>        -0.6321
     10 Cl1         1.2814   -5.0036   -9.5947 Cl        1 <0>         0.0434
     11 N4          1.9124   -4.2914   -4.6868 N.pl3     1 <0>        -0.6485
     12 C6          1.9546   -5.7477   -4.5324 C.3       1 <0>         0.1979
     13 C7          2.1310   -6.0988   -3.0537 C.3       1 <0>        -0.1187
     14 C8          3.4380   -5.4931   -2.5381 C.3       1 <0>        -0.1260
     15 C9          4.6127   -6.0572   -3.3399 C.3       1 <0>        -0.1162
     16 C10         4.4363   -5.7061   -4.8186 C.3       1 <0>        -0.0866
     17 H1          5.2731   -6.1079   -5.3898 H         1 <0>         0.0724
     18 C11         3.1293   -6.3117   -5.3342 C.3       1 <0>        -0.1285
     19 C12         4.3922   -4.1853   -4.9799 C.3       1 <0>        -0.1492
     20 C13         0.6476   -6.3533   -5.0480 C.3       1 <0>         0.0570
     21 O2         -0.4477   -5.8414   -4.2862 O.3       1 <0>        -0.5696
     22 H2         -0.0338    1.7434   -7.9940 H         1 <0>         0.0685
     23 H3          1.7197    1.9082   -8.2519 H         1 <0>         0.0684
     24 H4          0.6158    1.8575   -9.6473 H         1 <0>         0.0867
     25 H5          0.0147   -0.4820   -9.0867 H         1 <0>         0.0756
     26 H6          1.7681   -0.3172   -9.3446 H         1 <0>         0.0757
     27 H7          2.0458   -3.7179   -3.9160 H         1 <0>         0.4214
     28 H8          1.2941   -5.6969   -2.4825 H         1 <0>         0.0809
     29 H9          2.1624   -7.1822   -2.9388 H         1 <0>         0.0835
     30 H10         3.4066   -4.4097   -2.6530 H         1 <0>         0.0640
     31 H11         3.5637   -5.7433   -1.4847 H         1 <0>         0.0698
     32 H12         5.5438   -5.6257   -2.9726 H         1 <0>         0.0641
     33 H13         4.6441   -7.1407   -3.2250 H         1 <0>         0.0654
     34 H14         3.1607   -7.3952   -5.2192 H         1 <0>         0.0762
     35 H15         3.0036   -6.0616   -6.3876 H         1 <0>         0.0939
     36 H16         5.3934   -3.7763   -4.8440 H         1 <0>         0.0469
     37 H17         4.0303   -3.9360   -5.9774 H         1 <0>         0.0409
     38 H18         3.7216   -3.7600   -4.2332 H         1 <0>         0.0686
     39 H19         0.5145   -6.0906   -6.0974 H         1 <0>         0.0755
     40 H20         0.6850   -7.4379   -4.9468 H         1 <0>         0.0562
     41 H21        -1.3102   -6.1832   -4.5588 H         1 <0>         0.3797
@<TRIPOS>BOND
     1    1    2 1
     2    1   22 1
     3    1   23 1
     4    1   24 1
     5    2    3 1
     6    2   25 1
     7    2   26 1
     8    3    4 1
     9    4    9 ar
    10    4    5 ar
    11    5    6 ar
    12    6    7 ar
    13    6   11 1
    14    7    8 ar
    15    8    9 ar
    16    8   10 1
    17   11   12 1
    18   11   27 1
    19   12   18 1
    20   12   13 1
    21   12   20 1
    22   13   14 1
    23   13   28 1
    24   13   29 1
    25   14   15 1
    26   14   30 1
    27   14   31 1
    28   15   16 1
    29   15   32 1
    30   15   33 1
    31   16   17 1
    32   16   18 1
    33   16   19 1
    34   18   34 1
    35   18   35 1
    36   19   36 1
    37   19   37 1
    38   19   38 1
    39   20   21 1
    40   20   39 1
    41   20   40 1
    42   21   41 1
@<TRIPOS>MOLECULE
ZINC66673276
   43    45     0     0     0
SMALL
USER_CHARGES

@<TRIPOS>ATOM
      1 C1         -0.0187    1.5258    0.0104 C.3       1 <0>        -0.1539
      2 C2          0.0021   -0.0041    0.0020 C.3       1 <0>         0.0542
      3 O1         -1.3386   -0.4987    0.0122 O.3       1 <0>        -0.3142
      4 C3         -1.4983   -1.8477    0.0064 C.ar      1 <0>         0.1672
      5 C4         -0.3770   -2.6770   -0.0029 C.ar      1 <0>        -0.2247
      6 C5         -0.5179   -4.0328   -0.0083 C.ar      1 <0>        -0.0147
      7 C6         -1.7989   -4.6024   -0.0044 C.ar      1 <0>        -0.1555
      8 C7         -2.2665   -5.9381   -0.0085 C.2       1 <0>        -0.0800
      9 C8         -3.6253   -5.9017   -0.0018 C.2       1 <0>         0.0001
     10 N1         -4.0430   -4.5833    0.0065 N.pl3     1 <0>        -0.5804
     11 H1         -4.9652   -4.2828    0.0126 H         1 <0>         0.4170
     12 C9         -2.9349   -3.7686    0.0050 C.ar      1 <0>         0.1590
     13 C10        -2.7706   -2.3875    0.0157 C.ar      1 <0>        -0.1831
     14 C11        -4.5089   -7.0753   -0.0032 C.2       1 <0>         0.5886
     15 O2         -4.0330   -8.1953   -0.0103 O.2       1 <0>        -0.5090
     16 N2         -5.8467   -6.9116    0.0035 N.am      1 <0>        -0.6410
     17 C12        -6.6930   -8.0356    0.0023 C.2       1 <0>        -0.0044
     18 C13        -6.2843   -9.3774    0.0005 C.2       1 <0>         0.0534
     19 N3         -7.3524  -10.1330    0.0002 N.2       1 <0>        -0.2814
     20 N4         -8.4805   -9.3028    0.0017 N.pl3     1 <0>        -0.3621
     21 C14        -8.0506   -8.0144    0.0084 C.2       1 <0>         0.0243
     22 C15        -9.8770   -9.7458    0.0012 C.3       1 <0>         0.1581
     23 C16       -10.4011   -9.7819    1.4382 C.3       1 <0>        -0.1662
     24 C17       -10.7204   -8.7727   -0.8250 C.3       1 <0>        -0.1652
     25 H2          1.0039    1.9031    0.0027 H         1 <0>         0.0800
     26 H3         -0.5459    1.8868   -0.8726 H         1 <0>         0.0667
     27 H4         -0.5289    1.8773    0.9072 H         1 <0>         0.0667
     28 H5          0.5123   -0.3556   -0.8948 H         1 <0>         0.0646
     29 H6          0.5293   -0.3651    0.8851 H         1 <0>         0.0646
     30 H7          0.6112   -2.2414   -0.0063 H         1 <0>         0.1326
     31 H8          0.3560   -4.6673   -0.0159 H         1 <0>         0.1327
     32 H9         -1.6535   -6.8272   -0.0160 H         1 <0>         0.1589
     33 H10        -3.6343   -1.7392    0.0274 H         1 <0>         0.1313
     34 H11        -6.2260   -6.0188    0.0092 H         1 <0>         0.4045
     35 H12        -5.2625   -9.7271   -0.0003 H         1 <0>         0.2065
     36 H13        -8.6750   -7.1332    0.0148 H         1 <0>         0.1744
     37 H14        -9.9417  -10.7429   -0.4343 H         1 <0>         0.1056
     38 H15       -10.3364   -8.7847    1.8737 H         1 <0>         0.0621
     39 H16       -11.4401  -10.1114    1.4378 H         1 <0>         0.0791
     40 H17        -9.8002  -10.4751    2.0268 H         1 <0>         0.0665
     41 H18       -11.7594   -9.1023   -0.8254 H         1 <0>         0.0843
     42 H19       -10.6557   -7.7756   -0.3895 H         1 <0>         0.0654
     43 H20       -10.3470   -8.7470   -1.8487 H         1 <0>         0.0674
@<TRIPOS>BOND
     1    1    2 1
     2    1   25 1
     3    1   26 1
     4    1   27 1
     5    2    3 1
     6    2   28 1
     7    2   29 1
     8    3    4 1
     9    4   13 ar
    10    4    5 ar
    11    5    6 ar
    12    5   30 1
    13    6    7 ar
    14    6   31 1
    15    7   12 ar
    16    7    8 1
    17    8    9 2
    18    8   32 1
    19    9   10 1
    20    9   14 1
    21   10   11 1
    22   10   12 1
    23   12   13 ar
    24   13   33 1
    25   14   15 2
    26   14   16 am
    27   16   17 1
    28   16   34 1
    29   17   21 2
    30   17   18 1
    31   18   19 2
    32   18   35 1
    33   19   20 1
    34   20   21 1
    35   20   22 1
    36   21   36 1
    37   22   23 1
    38   22   24 1
    39   22   37 1
    40   23   38 1
    41   23   39 1
    42   23   40 1
    43   24   41 1
    44   24   42 1
    45   24   43 1
@<TRIPOS>MOLECULE
ZINC06870193
   40    42     0     0     0
SMALL
USER_CHARGES
2-[1-(2-ethoxyethyl)benzimidazol-2-yl]-5-methyl-pyrazol-3-amine
@<TRIPOS>ATOM
      1 C1          2.4613   -5.6119   -2.6492 C.3       1 <0>        -0.1511
      2 C2          2.9480   -4.1667   -2.7735 C.3       1 <0>         0.0598
      3 O1          3.1454   -3.6167   -1.4694 O.3       1 <0>        -0.3815
      4 C3          3.6023   -2.2627   -1.4727 C.3       1 <0>         0.0586
      5 C4          3.7781   -1.7803   -0.0314 C.3       1 <0>         0.1113
      6 N1          4.2466   -0.3923   -0.0347 N.pl3     1 <0>        -0.4777
      7 C5          5.5643    0.0289   -0.0495 C.ar      1 <0>         0.0525
      8 C6          6.7852   -0.6296   -0.0643 C.ar      1 <0>        -0.1036
      9 C7          7.9571    0.0974   -0.0706 C.ar      1 <0>        -0.1006
     10 C8          7.9241    1.4844   -0.0627 C.ar      1 <0>        -0.1187
     11 C9          6.7220    2.1547   -0.0480 C.ar      1 <0>        -0.0685
     12 C10         5.5251    1.4333   -0.0410 C.ar      1 <0>         0.0709
     13 N2          4.2165    1.7958   -0.0272 N.2       1 <0>        -0.5178
     14 C11         3.4642    0.7261   -0.0267 C.2       1 <0>         0.5403
     15 N3          2.0751    0.7277   -0.0138 N.pl3     1 <0>        -0.3408
     16 C12         1.2728    1.8297   -0.0003 C.2       1 <0>         0.4094
     17 C13        -0.0169    1.3943    0.0097 C.2       1 <0>        -0.3440
     18 C14         0.0021   -0.0041    0.0020 C.2       1 <0>         0.1383
     19 N4          1.2479   -0.4028   -0.0120 N.2       1 <0>        -0.3114
     20 C15        -1.2091   -0.9008    0.0095 C.3       1 <0>        -0.0771
     21 N5          1.6943    3.1550    0.0024 N.pl3     1 <0>        -0.8389
     22 H1          1.5201   -5.6323   -2.1000 H         1 <0>         0.0650
     23 H2          2.3108   -6.0314   -3.6440 H         1 <0>         0.0731
     24 H3          3.2065   -6.2015   -2.1152 H         1 <0>         0.0638
     25 H4          2.2029   -3.5770   -3.3075 H         1 <0>         0.0495
     26 H5          3.8893   -4.1462   -3.3227 H         1 <0>         0.0485
     27 H6          2.8708   -1.6336   -1.9797 H         1 <0>         0.0552
     28 H7          4.5572   -2.2028   -1.9949 H         1 <0>         0.0499
     29 H8          4.5097   -2.4095    0.4756 H         1 <0>         0.0981
     30 H9          2.8233   -1.8403    0.4908 H         1 <0>         0.1234
     31 H10         6.8178   -1.7091   -0.0705 H         1 <0>         0.1251
     32 H11         8.9070   -0.4165   -0.0820 H         1 <0>         0.1340
     33 H12         8.8487    2.0424   -0.0681 H         1 <0>         0.1338
     34 H13         6.7039    3.2345   -0.0414 H         1 <0>         0.1329
     35 H14        -0.8985    2.0181    0.0175 H         1 <0>         0.1589
     36 H15        -1.5115   -1.1115   -1.0163 H         1 <0>         0.0833
     37 H16        -0.9663   -1.8350    0.5159 H         1 <0>         0.0772
     38 H17        -2.0254   -0.4045    0.5344 H         1 <0>         0.0840
     39 H18         1.0409    3.8718    0.0125 H         1 <0>         0.4173
     40 H19         2.6418    3.3626   -0.0058 H         1 <0>         0.4181
@<TRIPOS>BOND
     1    1    2 1
     2    1   22 1
     3    1   23 1
     4    1   24 1
     5    2    3 1
     6    2   25 1
     7    2   26 1
     8    3    4 1
     9    4    5 1
    10    4   27 1
    11    4   28 1
    12    5    6 1
    13    5   29 1
    14    5   30 1
    15    6   14 1
    16    6    7 1
    17    7   12 ar
    18    7    8 ar
    19    8    9 ar
    20    8   31 1
    21    9   10 ar
    22    9   32 1
    23   10   11 ar
    24   10   33 1
    25   11   12 ar
    26   11   34 1
    27   12   13 1
    28   13   14 2
    29   14   15 1
    30   15   19 1
    31   15   16 1
    32   16   17 2
    33   16   21 1
    34   17   18 1
    35   17   35 1
    36   18   19 2
    37   18   20 1
    38   20   36 1
    39   20   37 1
    40   20   38 1
    41   21   39 1
    42   21   40 1
@<TRIPOS>MOLECULE
ZINC04054540
   34    35     0     0     0
SMALL
USER_CHARGES

@<TRIPOS>ATOM
      1 C1         -2.3590   -0.1125    0.9556 C.3       1 <0>        -0.1059
      2 C2         -1.1028   -0.7774    0.4545 C.ar      1 <0>        -0.1526
      3 C3         -1.1149   -1.4621   -0.7449 C.ar      1 <0>        -0.0592
      4 C4          0.0412   -2.0736   -1.2065 C.ar      1 <0>         0.0347
      5 C5          1.2107   -1.9981   -0.4640 C.ar      1 <0>        -0.0641
      6 C6          1.2245   -1.3140    0.7353 C.ar      1 <0>        -0.1821
      7 C7          0.0685   -0.6969    1.1957 C.ar      1 <0>         0.2262
      8 N1          0.0832    0.0014    2.4080 N.pl3     1 <0>        -0.8738
      9 O1          0.0283   -2.7480   -2.3874 O.3       1 <0>        -0.2184
     10 C8          0.1515   -4.0964   -2.3511 C.ar      1 <0>         0.5685
     11 N2          0.1571   -4.7114   -1.1797 N.ar      1 <0>        -0.6234
     12 C9          0.2758   -6.0332   -1.1054 C.ar      1 <0>         0.4206
     13 C10         0.3948   -6.7688   -2.2790 C.ar      1 <0>        -0.3001
     14 C11         0.3849   -6.0875   -3.4909 C.ar      1 <0>         0.4218
     15 N3          0.2577   -4.7645   -3.4881 N.ar      1 <0>        -0.5943
     16 O2          0.4988   -6.7640   -4.6598 O.3       1 <0>        -0.2897
     17 C12         0.4799   -5.9907   -5.8614 C.3       1 <0>         0.0348
     18 O3          0.2810   -6.6555    0.0986 O.3       1 <0>        -0.2919
     19 C13         0.1547   -5.8284    1.2570 C.3       1 <0>         0.0382
     20 H1         -2.4053    0.9087    0.5773 H         1 <0>         0.0694
     21 H2         -3.2287   -0.6690    0.6063 H         1 <0>         0.0694
     22 H3         -2.3516   -0.0964    2.0454 H         1 <0>         0.0619
     23 H4         -2.0250   -1.5216   -1.3234 H         1 <0>         0.1307
     24 H5          2.1104   -2.4749   -0.8239 H         1 <0>         0.1234
     25 H6          2.1350   -1.2554    1.3132 H         1 <0>         0.1279
     26 H7         -0.7252    0.4295    2.7309 H         1 <0>         0.4000
     27 H8          0.9016    0.0575    2.9255 H         1 <0>         0.3999
     28 H9          0.4931   -7.8439   -2.2500 H         1 <0>         0.1625
     29 H10         0.5789   -6.6531   -6.7213 H         1 <0>         0.1041
     30 H11        -0.4622   -5.4465   -5.9284 H         1 <0>         0.0660
     31 H12         1.3085   -5.2826   -5.8508 H         1 <0>         0.0659
     32 H13         0.1733   -6.4507    2.1517 H         1 <0>         0.1024
     33 H14         0.9825   -5.1201    1.2898 H         1 <0>         0.0639
     34 H15        -0.7883   -5.2834    1.2132 H         1 <0>         0.0636
@<TRIPOS>BOND
     1    1    2 1
     2    1   20 1
     3    1   21 1
     4    1   22 1
     5    2    7 ar
     6    2    3 ar
     7    3    4 ar
     8    3   23 1
     9    4    5 ar
    10    4    9 1
    11    5    6 ar
    12    5   24 1
    13    6    7 ar
    14    6   25 1
    15    7    8 1
    16    8   26 1
    17    8   27 1
    18    9   10 1
    19   10   15 ar
    20   10   11 ar
    21   11   12 ar
    22   12   13 ar
    23   12   18 1
    24   13   14 ar
    25   13   28 1
    26   14   15 ar
    27   14   16 1
    28   16   17 1
    29   17   29 1
    30   17   30 1
    31   17   31 1
    32   18   19 1
    33   19   32 1
    34   19   33 1
    35   19   34 1
@<TRIPOS>MOLECULE
ZINC42995895
   44    45     0     0     0
SMALL
USER_CHARGES

@<TRIPOS>ATOM
      1 C1         -0.0173    1.4248    0.0099 C.3       1 <0>         0.0336
      2 O1          0.0021   -0.0041    0.0020 O.3       1 <0>        -0.3912
      3 C2         -1.2953   -0.6030    0.0112 C.3       1 <0>         0.0498
      4 C3         -1.1538   -2.1264    0.0017 C.3       1 <0>         0.1447
      5 N1         -2.4839   -2.7404    0.0111 N.pl3     1 <0>        -0.3723
      6 C4         -2.9526   -3.6467   -0.8858 C.2       1 <0>         0.0164
      7 C5         -4.2221   -3.9623   -0.5239 C.2       1 <0>         0.0228
      8 C6         -4.5363   -3.2264    0.6278 C.2       1 <0>         0.0565
      9 N2         -3.4956   -2.5017    0.9499 N.2       1 <0>        -0.2833
     10 N3         -5.0730   -4.8676   -1.1874 N.am      1 <0>        -0.6596
     11 C7         -6.3171   -5.0899   -0.7192 C.2       1 <0>         0.7079
     12 O2         -6.7050   -4.5089    0.2761 O.2       1 <0>        -0.5753
     13 N4         -7.1312   -5.9562   -1.3541 N.am      1 <0>        -0.7414
     14 C8         -8.4836   -6.1978   -0.8452 C.3       1 <0>         0.1680
     15 C9         -8.4093   -7.2267    0.3015 C.3       1 <0>        -0.1243
     16 C10        -9.6516   -7.0976    1.1406 C.3       1 <0>        -0.1170
     17 C11       -10.7569   -8.0819    0.7125 C.3       1 <0>        -0.1191
     18 C12       -10.8930   -8.1987   -0.8177 C.3       1 <0>        -0.1213
     19 C13       -10.7906   -6.8657   -1.5084 C.3       1 <0>        -0.1106
     20 C14        -9.3263   -6.6498   -1.9424 C.3       1 <0>        -0.1309
     21 H1          1.0053    1.8021    0.0021 H         1 <0>         0.0911
     22 H2         -0.5445    1.7859   -0.8732 H         1 <0>         0.0435
     23 H3         -0.5275    1.7763    0.9067 H         1 <0>         0.0453
     24 H4         -1.8320   -0.2936    0.9080 H         1 <0>         0.0666
     25 H5         -1.8490   -0.2840   -0.8718 H         1 <0>         0.0548
     26 H6         -0.6171   -2.4359   -0.8952 H         1 <0>         0.1050
     27 H7         -0.6001   -2.4454    0.8847 H         1 <0>         0.0949
     28 H8         -2.4132   -4.0437   -1.7331 H         1 <0>         0.1772
     29 H9         -5.4752   -3.2565    1.1607 H         1 <0>         0.2082
     30 H10        -4.7635   -5.3311   -1.9814 H         1 <0>         0.4056
     31 H11        -6.8218   -6.4197   -2.1481 H         1 <0>         0.3951
     32 H12        -8.8851   -5.2633   -0.4535 H         1 <0>         0.0868
     33 H13        -8.3502   -8.2331   -0.1129 H         1 <0>         0.0656
     34 H14        -7.5306   -7.0282    0.9152 H         1 <0>         0.0687
     35 H15        -9.3946   -7.2874    2.1827 H         1 <0>         0.0617
     36 H16       -10.0323   -6.0800    1.0529 H         1 <0>         0.0635
     37 H17       -10.5286   -9.0663    1.1212 H         1 <0>         0.0586
     38 H18       -11.7075   -7.7442    1.1252 H         1 <0>         0.0598
     39 H19       -10.1052   -8.8518   -1.1930 H         1 <0>         0.0609
     40 H20       -11.8596   -8.6443   -1.0528 H         1 <0>         0.0601
     41 H21       -11.4375   -6.8572   -2.3856 H         1 <0>         0.0686
     42 H22       -11.0896   -6.0737   -0.8218 H         1 <0>         0.0703
     43 H23        -9.3000   -5.9048   -2.7377 H         1 <0>         0.0675
     44 H24        -8.9302   -7.5892   -2.3280 H         1 <0>         0.0671
@<TRIPOS>BOND
     1    1    2 1
     2    1   21 1
     3    1   22 1
     4    1   23 1
     5    2    3 1
     6    3    4 1
     7    3   24 1
     8    3   25 1
     9    4    5 1
    10    4   26 1
    11    4   27 1
    12    5    9 1
    13    5    6 1
    14    6    7 2
    15    6   28 1
    16    7    8 1
    17    7   10 1
    18    8    9 2
    19    8   29 1
    20   10   11 am
    21   10   30 1
    22   11   12 2
    23   11   13 am
    24   13   14 1
    25   13   31 1
    26   14   20 1
    27   14   15 1
    28   14   32 1
    29   15   16 1
    30   15   33 1
    31   15   34 1
    32   16   17 1
    33   16   35 1
    34   16   36 1
    35   17   18 1
    36   17   37 1
    37   17   38 1
    38   18   19 1
    39   18   39 1
    40   18   40 1
    41   19   20 1
    42   19   41 1
    43   19   42 1
    44   20   43 1
    45   20   44 1
@<TRIPOS>MOLECULE
ZINC50817313
   41    42     0     0     0
SMALL
USER_CHARGES

@<TRIPOS>ATOM
      1 C1          0.4274   -0.4123   -1.3264 C.3       1 <0>        -0.1555
      2 C2         -0.3483   -0.1336   -0.0373 C.3       1 <0>        -0.1208
      3 C3          0.3161   -0.8707    1.1272 C.3       1 <0>         0.0484
      4 H1          1.3602   -0.5669    1.2021 H         1 <0>         0.0519
      5 C4          0.2391   -2.3808    0.8868 C.3       1 <0>         0.0685
      6 O1          0.7940   -3.0665    2.0126 O.3       1 <0>        -0.3811
      7 C5          0.1370   -2.7706    3.2480 C.3       1 <0>         0.0874
      8 H2         -0.9072   -3.0774    3.1875 H         1 <0>         0.0671
      9 C6          0.2130   -1.2645    3.5122 C.3       1 <0>         0.0181
     10 N1         -0.3819   -0.5418    2.3785 N.3       1 <0>        -0.5283
     11 C7         -0.3795    0.9076    2.6174 C.3       1 <0>         0.0975
     12 C8         -1.2858    1.2269    3.7783 C.ar      1 <0>        -0.1567
     13 C9         -2.5951    1.6032    3.5502 C.ar      1 <0>         0.0141
     14 C10        -3.4273    1.8963    4.6147 C.ar      1 <0>        -0.1074
     15 C11        -2.9523    1.8139    5.9110 C.ar      1 <0>        -0.0040
     16 C12        -1.6445    1.4384    6.1462 C.ar      1 <0>        -0.1947
     17 C13        -0.8072    1.1376    5.0791 C.ar      1 <0>         0.2710
     18 N2          0.5146    0.7518    5.3136 N.pl3     1 <0>        -0.8600
     19 N3         -4.8295    2.2996    4.3664 N.pl3     1 <0>         0.0443
     20 O2         -5.2461    2.3724    3.2338 O.2       1 <0>        -0.1704
     21 O3         -5.5584    2.5562    5.2962 O.3       1 <0>        -0.1719
     22 C14         0.8261   -3.5254    4.3866 C.3       1 <0>        -0.1453
     23 H3          0.4440   -1.4857   -1.5155 H         1 <0>         0.0586
     24 H4         -0.0579    0.0960   -2.1596 H         1 <0>         0.0616
     25 H5          1.4487   -0.0458   -1.2224 H         1 <0>         0.0549
     26 H6         -0.3471    0.9379    0.1629 H         1 <0>         0.0686
     27 H7         -1.3753   -0.4812   -0.1489 H         1 <0>         0.0760
     28 H8         -0.8021   -2.6762    0.7577 H         1 <0>         0.0612
     29 H9          0.8044   -2.6359   -0.0096 H         1 <0>         0.1021
     30 H10        -0.3356   -1.0268    4.4236 H         1 <0>         0.0955
     31 H11         1.2554   -0.9671    3.6261 H         1 <0>         0.0403
     32 H12         0.6342    1.2363    2.8467 H         1 <0>         0.0434
     33 H13        -0.7358    1.4234    1.7257 H         1 <0>         0.1004
     34 H14        -2.9691    1.6688    2.5391 H         1 <0>         0.1524
     35 H15        -3.6049    2.0438    6.7403 H         1 <0>         0.1530
     36 H16        -1.2741    1.3746    7.1587 H         1 <0>         0.1456
     37 H17         1.1364    0.6759    4.5730 H         1 <0>         0.4042
     38 H18         0.8108    0.5599    6.2171 H         1 <0>         0.4072
     39 H19         1.8698   -3.2171    4.4475 H         1 <0>         0.0624
     40 H20         0.3250   -3.2995    5.3278 H         1 <0>         0.0716
     41 H21         0.7744   -4.5973    4.1956 H         1 <0>         0.0687
@<TRIPOS>BOND
     1    1    2 1
     2    1   23 1
     3    1   24 1
     4    1   25 1
     5    2    3 1
     6    2   26 1
     7    2   27 1
     8    3    4 1
     9    3   10 1
    10    3    5 1
    11    5    6 1
    12    5   28 1
    13    5   29 1
    14    6    7 1
    15    7    8 1
    16    7    9 1
    17    7   22 1
    18    9   10 1
    19    9   30 1
    20    9   31 1
    21   10   11 1
    22   11   12 1
    23   11   32 1
    24   11   33 1
    25   12   17 ar
    26   12   13 ar
    27   13   14 ar
    28   13   34 1
    29   14   15 ar
    30   14   19 1
    31   15   16 ar
    32   15   35 1
    33   16   17 ar
    34   16   36 1
    35   17   18 1
    36   18   37 1
    37   18   38 1
    38   19   20 2
    39   19   21 1
    40   22   39 1
    41   22   40 1
    42   22   41 1
@<TRIPOS>MOLECULE
ZINC60941491
   29    30     0     0     0
SMALL
USER_CHARGES

@<TRIPOS>ATOM
      1 C1         -0.0167    1.3781    0.0096 C.ar      1 <0>        -0.0978
      2 C2          1.1709    2.0855    0.0021 C.ar      1 <0>        -0.0709
      3 C3          2.3773    1.4107   -0.0130 C.ar      1 <0>        -0.1717
      4 C4          2.3960    0.0285   -0.0201 C.ar      1 <0>        -0.0709
      5 C5          1.2085   -0.6789   -0.0117 C.ar      1 <0>        -0.0978
      6 C6          0.0021   -0.0041    0.0020 C.ar      1 <0>        -0.0795
      7 C7         -1.2926   -0.7753    0.0107 C.3       1 <0>         0.1684
      8 N1         -1.7258   -1.0177   -1.3676 N.pl3     1 <0>        -0.7263
      9 C8         -2.9176   -1.7248   -1.6169 C.2       1 <0>         0.1283
     10 C9         -3.7585   -2.2292   -0.6788 C.2       1 <0>        -0.0155
     11 N2         -4.7850   -2.8360   -1.3320 N.pl3     1 <0>        -0.4102
     12 H1         -5.5387   -3.2856   -0.9188 H         1 <0>         0.4617
     13 N3         -4.5613   -2.6960   -2.7077 N.2       1 <0>        -0.1899
     14 C10        -3.4495   -2.0273   -2.8786 C.2       1 <0>         0.0712
     15 N4         -2.8530   -1.6568   -4.1816 N.pl3     1 <0>         0.0701
     16 O1         -1.8151   -1.0378   -4.2172 O.2       1 <0>        -0.1495
     17 O2         -3.4037   -1.9733   -5.2104 O.3       1 <0>        -0.1225
     18 C11         3.6720    2.1819   -0.0222 C.3       1 <0>         0.5069
     19 F1          4.0857    2.4144    1.2938 F         1 <0>        -0.1752
     20 F2          4.6506    1.4423   -0.6949 F         1 <0>        -0.1751
     21 F3          3.4816    3.4050   -0.6742 F         1 <0>        -0.1751
     22 H2         -0.9591    1.9053    0.0259 H         1 <0>         0.1379
     23 H3          1.1563    3.1654    0.0076 H         1 <0>         0.1400
     24 H4          3.3385   -0.4987   -0.0326 H         1 <0>         0.1399
     25 H5          1.2231   -1.7588   -0.0179 H         1 <0>         0.1379
     26 H6         -1.1443   -1.7285    0.5180 H         1 <0>         0.0745
     27 H7         -2.0551   -0.1993    0.5352 H         1 <0>         0.0745
     28 H8         -1.1916   -0.6912   -2.1085 H         1 <0>         0.4174
     29 H9         -3.6345   -2.1616    0.3919 H         1 <0>         0.1991
@<TRIPOS>BOND
     1    1    6 ar
     2    1    2 ar
     3    1   22 1
     4    2    3 ar
     5    2   23 1
     6    3    4 ar
     7    3   18 1
     8    4    5 ar
     9    4   24 1
    10    5    6 ar
    11    5   25 1
    12    6    7 1
    13    7    8 1
    14    7   26 1
    15    7   27 1
    16    8    9 1
    17    8   28 1
    18    9   14 1
    19    9   10 2
    20   10   11 1
    21   10   29 1
    22   11   12 1
    23   11   13 1
    24   13   14 2
    25   14   15 1
    26   15   16 2
    27   15   17 1
    28   18   19 1
    29   18   20 1
    30   18   21 1
@<TRIPOS>MOLECULE
ZINC20252594
   35    36     0     0     0
SMALL
USER_CHARGES
2-(cyclohexylmethyl)-4-methyl-6-oxo-1H-pyrimidine-5-carboxylic acid
@<TRIPOS>ATOM
      1 C1         -0.5375    5.1771    0.0473 C.3       1 <0>        -0.1616
      2 C2         -0.2845    3.6915    0.0302 C.2       1 <0>         0.1823
      3 C3          1.0190    3.2009   -0.0041 C.2       1 <0>        -0.2703
      4 C4          1.1970    1.7436   -0.0188 C.2       1 <0>         0.5225
      5 O1          2.3084    1.2458   -0.0490 O.2       1 <0>        -0.4939
      6 N1          0.0872    0.9726    0.0019 N.am      1 <0>        -0.6490
      7 H1          0.1788   -0.1236   -0.0036 H         1 <0>         0.4280
      8 C5         -1.1298    1.5425    0.0292 C.2       1 <0>         0.3785
      9 N2         -1.3030    2.8378    0.0482 N.2       1 <0>        -0.5328
     10 C6         -2.3447    0.6510    0.0454 C.3       1 <0>        -0.0728
     11 C7         -3.6089    1.5122    0.0757 C.3       1 <0>        -0.0658
     12 C8         -3.6625    2.2932    1.3903 C.3       1 <0>        -0.1208
     13 C9         -4.9267    3.1544    1.4206 C.3       1 <0>        -0.1167
     14 C10        -6.1595    2.2548    1.3113 C.3       1 <0>        -0.1201
     15 C11        -6.1059    1.4737   -0.0032 C.3       1 <0>        -0.1177
     16 C12        -4.8416    0.6125   -0.0336 C.3       1 <0>        -0.1168
     17 C13         2.1740    4.1092   -0.0245 C.2       1 <0>         0.5090
     18 O2          2.0020    5.3094   -0.1129 O.co2     1 <0>        -0.6215
     19 O3          3.4244    3.6115    0.0549 O.co2     1 <0>        -0.7253
     20 H2          0.4230    5.7128    0.0283 H         1 <0>         0.1610
     21 H3         -1.0886    5.4447    0.9609 H         1 <0>         0.0593
     22 H4         -1.1316    5.4580   -0.8348 H         1 <0>         0.0618
     23 H5         -2.3505    0.0228   -0.8575 H         1 <0>         0.0933
     24 H6         -2.3167    0.0093    0.9384 H         1 <0>         0.0925
     25 H7         -3.5930    2.2166   -0.7690 H         1 <0>         0.0849
     26 H8         -3.6784    1.5887    2.2349 H         1 <0>         0.0479
     27 H9         -2.7762    2.9400    1.4690 H         1 <0>         0.0932
     28 H10        -4.9652    3.7160    2.3657 H         1 <0>         0.0564
     29 H11        -4.9108    3.8589    0.5759 H         1 <0>         0.0630
     30 H12        -6.1754    1.5504    2.1560 H         1 <0>         0.0575
     31 H13        -7.0684    2.8740    1.3331 H         1 <0>         0.0556
     32 H14        -6.9921    0.8268   -0.0817 H         1 <0>         0.0568
     33 H15        -6.0901    2.1781   -0.8479 H         1 <0>         0.0619
     34 H16        -4.8031    0.0510   -0.9787 H         1 <0>         0.0596
     35 H17        -4.8574   -0.0920    0.8110 H         1 <0>         0.0601
@<TRIPOS>BOND
     1    1    2 1
     2    1   20 1
     3    1   21 1
     4    1   22 1
     5    2    9 1
     6    2    3 2
     7    3    4 1
     8    3   17 1
     9    4    5 2
    10    4    6 am
    11    6    7 1
    12    6    8 1
    13    8    9 2
    14    8   10 1
    15   10   11 1
    16   10   23 1
    17   10   24 1
    18   11   16 1
    19   11   12 1
    20   11   25 1
    21   12   13 1
    22   12   26 1
    23   12   27 1
    24   13   14 1
    25   13   28 1
    26   13   29 1
    27   14   15 1
    28   14   30 1
    29   14   31 1
    30   15   16 1
    31   15   32 1
    32   15   33 1
    33   16   34 1
    34   16   35 1
    35   17   18 2
    36   17   19 1
@<TRIPOS>MOLECULE
ZINC40495076
   38    38     0     0     0
SMALL
USER_CHARGES

@<TRIPOS>ATOM
      1 C1         -0.0185    1.5284    0.0086 C.3       1 <0>        -0.1420
      2 C2          0.0009   -0.0015    0.0002 C.3       1 <0>        -0.0825
      3 C3          0.7397   -0.5090    1.2402 C.3       1 <0>        -0.1414
      4 C4         -1.4349   -0.5298    0.0102 C.3       1 <0>        -0.1383
      5 C5          0.7174   -0.4955   -1.2581 C.3       1 <0>         0.1485
      6 N1          2.0923    0.0103   -1.2677 N.am      1 <0>        -0.7506
      7 C6          2.9171   -0.2992   -2.2876 C.2       1 <0>         0.7035
      8 O1          2.5515   -1.0720   -3.1521 O.2       1 <0>        -0.5904
      9 N2          4.1473    0.2478   -2.3492 N.am      1 <0>        -0.6263
     10 C7          4.6474    1.0907   -1.2546 C.3       1 <0>         0.1145
     11 C8          5.1093    2.4308   -1.8357 C.3       1 <0>        -0.1348
     12 C9          6.1285    2.1756   -2.9485 C.3       1 <0>        -0.0930
     13 C10         5.4718    1.3644   -4.0678 C.3       1 <0>        -0.1671
     14 H1          4.6105    1.9091   -4.4547 H         1 <0>         0.0650
     15 C11         5.0162    0.0077   -3.5094 C.3       1 <0>         0.1554
     16 C12         6.4664    1.1420   -5.1779 C.2       1 <0>         0.4991
     17 O2          6.3970    0.1383   -5.8665 O.co2     1 <0>        -0.6949
     18 O3          7.3405    1.9658   -5.3874 O.co2     1 <0>        -0.6969
     19 H2          1.0045    1.9048    0.0015 H         1 <0>         0.0541
     20 H3         -0.5448    1.8899   -0.8748 H         1 <0>         0.0583
     21 H4         -0.5289    1.8803    0.9051 H         1 <0>         0.0567
     22 H5          0.2293   -0.1570    2.1367 H         1 <0>         0.0567
     23 H6          0.7536   -1.5989    1.2342 H         1 <0>         0.0580
     24 H7          1.7627   -0.1326    1.2331 H         1 <0>         0.0536
     25 H8         -1.9612   -0.1683   -0.8732 H         1 <0>         0.0584
     26 H9         -1.4211   -1.6197    0.0042 H         1 <0>         0.0582
     27 H10        -1.9453   -0.1778    0.9067 H         1 <0>         0.0587
     28 H11         0.7312   -1.5854   -1.2641 H         1 <0>         0.0644
     29 H12         0.1911   -0.1340   -2.1415 H         1 <0>         0.0631
     30 H13         2.4089    0.5681   -0.5400 H         1 <0>         0.3919
     31 H14         3.8501    1.2615   -0.5313 H         1 <0>         0.0649
     32 H15         5.4867    0.5955   -0.7662 H         1 <0>         0.0662
     33 H16         4.2515    2.9654   -2.2436 H         1 <0>         0.0611
     34 H17         5.5709    3.0284   -1.0497 H         1 <0>         0.0673
     35 H18         6.4772    3.1283   -3.3470 H         1 <0>         0.0699
     36 H19         6.9747    1.6193   -2.5453 H         1 <0>         0.0554
     37 H20         5.8849   -0.5741   -3.2012 H         1 <0>         0.0594
     38 H21         4.4622   -0.5364   -4.2744 H         1 <0>         0.0957
@<TRIPOS>BOND
     1    1    2 1
     2    1   19 1
     3    1   20 1
     4    1   21 1
     5    2    3 1
     6    2    4 1
     7    2    5 1
     8    3   22 1
     9    3   23 1
    10    3   24 1
    11    4   25 1
    12    4   26 1
    13    4   27 1
    14    5    6 1
    15    5   28 1
    16    5   29 1
    17    6    7 am
    18    6   30 1
    19    7    8 2
    20    7    9 am
    21    9   15 1
    22    9   10 1
    23   10   11 1
    24   10   31 1
    25   10   32 1
    26   11   12 1
    27   11   33 1
    28   11   34 1
    29   12   13 1
    30   12   35 1
    31   12   36 1
    32   13   14 1
    33   13   15 1
    34   13   16 1
    35   15   37 1
    36   15   38 1
    37   16   17 2
    38   16   18 1
@<TRIPOS>MOLECULE
ZINC44263827
   32    34     0     0     0
SMALL
USER_CHARGES

@<TRIPOS>ATOM
      1 C1         -0.0167    1.3816    0.0096 C.ar      1 <0>        -0.1762
      2 C2         -1.2313    2.0461    0.0190 C.ar      1 <0>        -0.0630
      3 C3         -2.3944    1.2876    0.0204 C.ar      1 <0>        -0.0136
      4 C4         -2.3044   -0.1159    0.0124 C.ar      1 <0>         0.2571
      5 N1         -3.5761   -0.5887    0.0163 N.2       1 <0>        -0.4514
      6 H1         -4.1340    2.4735    0.0352 H         1 <0>         0.4190
      7 C5         -4.4155    0.4066    0.0259 C.2       1 <0>         0.3426
      8 N2         -3.7414    1.5865    0.0289 N.pl3     1 <0>        -0.5975
      9 C6         -5.9163    0.2699    0.0324 C.3       1 <0>         0.0052
     10 H2         -6.1957   -0.6883   -0.4056 H         1 <0>         0.1152
     11 C7         -6.5352    1.4047   -0.7861 C.3       1 <0>        -0.1174
     12 C8         -8.0589    1.2660   -0.7796 C.3       1 <0>        -0.1126
     13 C9         -8.5714    1.3374    0.6603 C.3       1 <0>        -0.1198
     14 C10        -7.9524    0.2026    1.4788 C.3       1 <0>        -0.0965
     15 C11        -6.4287    0.3414    1.4723 C.3       1 <0>        -0.1471
     16 H3         -6.1493    1.2996    1.9102 H         1 <0>         0.0569
     17 C12        -5.8190   -0.7764    2.2785 C.2       1 <0>         0.4962
     18 O1         -5.4550   -0.5733    3.4242 O.co2     1 <0>        -0.7073
     19 O2         -5.6898   -1.8838    1.7850 O.co2     1 <0>        -0.6718
     20 N3         -1.1111   -0.7050    0.0031 N.ar      1 <0>        -0.4444
     21 C13         0.0021   -0.0041    0.0020 C.ar      1 <0>         0.1092
     22 H4          0.9086    1.9386    0.0038 H         1 <0>         0.1386
     23 H5         -1.2730    3.1253    0.0254 H         1 <0>         0.1291
     24 H6         -6.2558    2.3629   -0.3482 H         1 <0>         0.0560
     25 H7         -6.1702    1.3538   -1.8119 H         1 <0>         0.0633
     26 H8         -8.4999    2.0744   -1.3627 H         1 <0>         0.0600
     27 H9         -8.3384    0.3077   -1.2176 H         1 <0>         0.0669
     28 H10        -8.2919    2.2956    1.0983 H         1 <0>         0.0570
     29 H11        -9.6569    1.2385    0.6649 H         1 <0>         0.0588
     30 H12        -8.3175    0.2535    2.5046 H         1 <0>         0.0614
     31 H13        -8.2318   -0.7556    1.0408 H         1 <0>         0.0660
     32 H14         0.9510   -0.5196   -0.0102 H         1 <0>         0.1601
@<TRIPOS>BOND
     1    1   21 ar
     2    1   22 1
     3    1    2 ar
     4    2   23 1
     5    2    3 ar
     6    3    8 1
     7    3    4 ar
     8    4    5 1
     9    4   20 ar
    10    5    7 2
    11    6    8 1
    12    7    8 1
    13    7    9 1
    14    9   10 1
    15    9   15 1
    16    9   11 1
    17   11   12 1
    18   11   24 1
    19   11   25 1
    20   12   13 1
    21   12   26 1
    22   12   27 1
    23   13   14 1
    24   13   28 1
    25   13   29 1
    26   14   15 1
    27   14   30 1
    28   14   31 1
    29   15   16 1
    30   15   17 1
    31   17   18 2
    32   17   19 1
    33   20   21 ar
    34   21   32 1
@<TRIPOS>MOLECULE
ZINC52213462
   34    36     0     0     0
SMALL
USER_CHARGES

@<TRIPOS>ATOM
      1 C1          0.5441    0.9476   -0.5853 C.2       1 <0>        -0.1235
      2 C2          1.8332    1.2617   -0.8491 C.2       1 <0>        -0.1826
      3 S1          2.6382   -0.3253   -0.6913 S.3       1 <0>        -0.0061
      4 C3          1.2010   -1.2838   -0.2901 C.2       1 <0>        -0.1592
      5 C4          0.1937   -0.3690   -0.2904 C.2       1 <0>        -0.0830
      6 C5         -1.2360   -0.8034    0.0272 C.3       1 <0>         0.1420
      7 H1         -1.5139   -0.4585    1.0231 H         1 <0>         0.0727
      8 N1         -1.2807   -2.2710   -0.0215 N.am      1 <0>        -0.6136
      9 C6         -0.2343   -3.0411    0.6674 C.3       1 <0>         0.1192
     10 C7          1.1095   -2.7502   -0.0185 C.3       1 <0>        -0.0480
     11 C8         -2.2672   -2.9029   -0.6879 C.2       1 <0>         0.6894
     12 O1         -3.0805   -2.2599   -1.3230 O.2       1 <0>        -0.5103
     13 N2         -2.3521   -4.2474   -0.6502 N.am      1 <0>        -0.7467
     14 C9         -3.3536   -4.9412   -1.4639 C.3       1 <0>         0.1477
     15 C10        -4.5186   -5.5212   -0.6446 C.3       1 <0>        -0.1557
     16 C11        -4.4494   -6.7517   -1.5645 C.3       1 <0>        -0.1387
     17 C12        -2.9735   -6.3920   -1.8037 C.3       1 <0>        -0.1484
     18 C13        -2.1829   -0.2286   -0.9945 C.2       1 <0>         0.5270
     19 O2         -2.1069   -0.5773   -2.1603 O.co2     1 <0>        -0.6584
     20 O3         -3.0251    0.5852   -0.6553 O.co2     1 <0>        -0.7026
     21 H2         -0.2129    1.7177   -0.5989 H         1 <0>         0.1343
     22 H3          2.2636    2.2219   -1.0922 H         1 <0>         0.1826
     23 H4         -0.1854   -2.7400    1.7139 H         1 <0>         0.0705
     24 H5         -0.4578   -4.1058    0.6010 H         1 <0>         0.0795
     25 H6          1.1673   -3.3003   -0.9578 H         1 <0>         0.0807
     26 H7          1.9270   -3.0526    0.6359 H         1 <0>         0.0830
     27 H8         -1.7502   -4.7558   -0.0844 H         1 <0>         0.3843
     28 H9         -3.6731   -4.3596   -2.3286 H         1 <0>         0.1132
     29 H10        -4.2590   -5.7359    0.3920 H         1 <0>         0.0794
     30 H11        -5.4450   -4.9551   -0.7416 H         1 <0>         0.0702
     31 H12        -4.5890   -7.6971   -1.0403 H         1 <0>         0.0681
     32 H13        -5.0700   -6.6654   -2.4564 H         1 <0>         0.0817
     33 H14        -2.6526   -6.5289   -2.8363 H         1 <0>         0.0709
     34 H15        -2.2916   -6.8448   -1.0839 H         1 <0>         0.0803
@<TRIPOS>BOND
     1    1    5 1
     2    1    2 2
     3    1   21 1
     4    2    3 1
     5    2   22 1
     6    3    4 1
     7    4   10 1
     8    4    5 2
     9    5    6 1
    10    6    7 1
    11    6    8 1
    12    6   18 1
    13    8    9 1
    14    8   11 am
    15    9   10 1
    16    9   23 1
    17    9   24 1
    18   10   25 1
    19   10   26 1
    20   11   12 2
    21   11   13 am
    22   13   14 1
    23   13   27 1
    24   14   17 1
    25   14   15 1
    26   14   28 1
    27   15   16 1
    28   15   29 1
    29   15   30 1
    30   16   17 1
    31   16   31 1
    32   16   32 1
    33   17   33 1
    34   17   34 1
    35   18   19 2
    36   18   20 1
@<TRIPOS>MOLECULE
ZINC62765721
   30    31     0     0     0
SMALL
USER_CHARGES

@<TRIPOS>ATOM
      1 C1          0.0074    1.3027    0.0826 C.2       1 <0>        -0.3327
      2 C2         -1.1864    1.9647    0.0755 C.2       1 <0>         0.1780
      3 N1         -2.3285    1.2822    0.0657 N.2       1 <0>        -0.5599
      4 C3         -2.3396   -0.0369    0.0627 C.2       1 <0>         0.3431
      5 N2         -1.1797   -0.7505    0.0699 N.am      1 <0>        -0.6182
      6 C4          0.0052   -0.1032    0.0795 C.2       1 <0>         0.5301
      7 O1          1.0541   -0.7265    0.0807 O.2       1 <0>        -0.5582
      8 S1         -3.8812   -0.8901    0.0496 S.3       1 <0>         0.0865
      9 C5         -5.1174    0.4375    0.0436 C.3       1 <0>        -0.0340
     10 H1         -4.9398    1.1032    0.8882 H         1 <0>         0.0901
     11 C6         -5.0094    1.2291   -1.2613 C.3       1 <0>        -0.1171
     12 C7         -6.0520    2.3488   -1.2663 C.3       1 <0>        -0.1081
     13 C8         -7.4521    1.7424   -1.1521 C.3       1 <0>        -0.1211
     14 C9         -7.5602    0.9508    0.1528 C.3       1 <0>        -0.0816
     15 C10        -6.5175   -0.1689    0.1578 C.3       1 <0>        -0.1531
     16 H2         -6.5945   -0.7328    1.0874 H         1 <0>         0.0714
     17 C11        -6.7631   -1.0893   -1.0099 C.2       1 <0>         0.4968
     18 O2         -5.8211   -1.5912   -1.5991 O.co2     1 <0>        -0.6659
     19 O3         -7.9038   -1.3319   -1.3654 O.co2     1 <0>        -0.6859
     20 H3          0.9384    1.8500    0.0861 H         1 <0>         0.1468
     21 H4         -1.2039    3.0446    0.0781 H         1 <0>         0.1610
     22 H5         -1.2046   -1.7202    0.0682 H         1 <0>         0.4177
     23 H6         -4.0119    1.6610   -1.3426 H         1 <0>         0.0740
     24 H7         -5.1870    0.5633   -2.1059 H         1 <0>         0.0856
     25 H8         -5.8744    3.0145   -0.4217 H         1 <0>         0.0546
     26 H9         -5.9751    2.9127   -2.1959 H         1 <0>         0.0565
     27 H10        -8.1949    2.5401   -1.1557 H         1 <0>         0.0520
     28 H11        -7.6298    1.0767   -1.9967 H         1 <0>         0.0741
     29 H12        -7.3825    1.6166    0.9974 H         1 <0>         0.0461
     30 H13        -8.5576    0.5189    0.2341 H         1 <0>         0.0714
@<TRIPOS>BOND
     1    1    6 1
     2    1   20 1
     3    1    2 2
     4    2   21 1
     5    2    3 1
     6    3    4 2
     7    4    8 1
     8    4    5 1
     9    5   22 1
    10    5    6 am
    11    6    7 2
    12    8    9 1
    13    9   10 1
    14    9   15 1
    15    9   11 1
    16   11   12 1
    17   11   23 1
    18   11   24 1
    19   12   13 1
    20   12   25 1
    21   12   26 1
    22   13   14 1
    23   13   27 1
    24   13   28 1
    25   14   15 1
    26   14   29 1
    27   14   30 1
    28   15   16 1
    29   15   17 1
    30   17   18 2
    31   17   19 1
@<TRIPOS>MOLECULE
ZINC03875734
   13    13     0     0     0
SMALL
USER_CHARGES
4-nitrosophenol
@<TRIPOS>ATOM
      1 C1          0.0021   -0.0041    0.0020 C.ar      1 <0>         0.0267
      2 C2         -0.0164    1.3576    0.0095 C.ar      1 <0>        -0.2712
      3 C3          1.1799    2.0761    0.0019 C.ar      1 <0>         0.3255
      4 C4          2.4050    1.4082   -0.0134 C.ar      1 <0>        -0.2710
      5 C5          2.4433    0.0469   -0.0211 C.ar      1 <0>        -0.0050
      6 C6          1.2375   -0.6891   -0.0135 C.ar      1 <0>        -0.2321
      7 N1          1.2653   -2.0216   -0.0205 N.2       1 <0>        -0.2958
      8 O1          2.3325   -2.6085   -0.0339 O.2       1 <0>        -0.0665
      9 H1         -0.9247   -0.5585    0.0076 H         1 <0>         0.1098
     10 H2         -0.9599    1.8831    0.0168 H         1 <0>         0.1134
     11 H3          3.3258    1.9726   -0.0196 H         1 <0>         0.1111
     12 H4          3.3924   -0.4683   -0.0326 H         1 <0>         0.1220
     13 O2          1.1517    3.4300    0.0095 O.3       1 <0>        -0.6671
@<TRIPOS>BOND
     1    1    6 ar
     2    1    2 ar
     3    1    9 1
     4    2    3 ar
     5    2   10 1
     6    3    4 ar
     7    3   13 1
     8    4    5 ar
     9    4   11 1
    10    5    6 ar
    11    5   12 1
    12    6    7 1
    13    7    8 2
@<TRIPOS>MOLECULE
ZINC20217007
   31    31     0     0     0
SMALL
USER_CHARGES
(1R,5S)-5-tert-butyl-2-oxo-cyclohexane-1-carboxylic acid
@<TRIPOS>ATOM
      1 C1         -1.2772    5.1376    2.6440 C.3       1 <0>        -0.1425
      2 C2         -1.3750    3.6124    2.5728 C.3       1 <0>        -0.0597
      3 C3         -2.8436    3.2005    2.4524 C.3       1 <0>        -0.1403
      4 C4         -0.7768    3.0032    3.8424 C.3       1 <0>        -0.1455
      5 C5         -0.6022    3.1083    1.3523 C.3       1 <0>        -0.0884
      6 H1         -1.0269    3.5465    0.4371 H         1 <0>         0.1061
      7 C6          0.8657    3.5207    1.4740 C.3       1 <0>        -0.1086
      8 C7          1.6205    3.0953    0.2101 C.3       1 <0>        -0.1696
      9 C8          1.4050    1.6132   -0.0027 C.2       1 <0>         0.3935
     10 O1          2.3409    0.8701   -0.1763 O.2       1 <0>        -0.4775
     11 C9         -0.0127    1.0858    0.0080 C.3       1 <0>        -0.1876
     12 H2         -0.0025   -0.0137   -0.0248 H         1 <0>         0.0911
     13 C10        -0.7083    1.5841    1.2792 C.3       1 <0>        -0.0832
     14 C11        -0.7490    1.5887   -1.2069 C.2       1 <0>         0.4771
     15 O2         -1.7379    2.2703   -1.0748 O.co2     1 <0>        -0.6185
     16 O3         -0.3064    1.2794   -2.4357 O.co2     1 <0>        -0.7605
     17 H3         -0.2213    5.4337    2.7306 H         1 <0>         0.0547
     18 H4         -1.8328    5.5001    3.5215 H         1 <0>         0.0476
     19 H5         -1.7072    5.5756    1.7312 H         1 <0>         0.0561
     20 H6         -2.9138    2.1039    2.4012 H         1 <0>         0.0577
     21 H7         -3.2736    3.6385    1.5396 H         1 <0>         0.0609
     22 H8         -3.3992    3.5630    3.3299 H         1 <0>         0.0434
     23 H9         -0.8471    1.9066    3.7912 H         1 <0>         0.0566
     24 H10        -1.3323    3.3657    4.7199 H         1 <0>         0.0468
     25 H11         0.2791    3.2993    3.9288 H         1 <0>         0.0540
     26 H12         0.9313    4.6125    1.5910 H         1 <0>         0.0708
     27 H13         1.3128    3.0304    2.3513 H         1 <0>         0.0609
     28 H14         1.2361    3.6580   -0.6534 H         1 <0>         0.0984
     29 H15         2.6931    3.3042    0.3358 H         1 <0>         0.0794
     30 H16        -0.2236    1.1401    2.1612 H         1 <0>         0.0501
     31 H17        -1.7683    1.2910    1.2569 H         1 <0>         0.0767
@<TRIPOS>BOND
     1    1    2 1
     2    1   17 1
     3    1   18 1
     4    1   19 1
     5    2    3 1
     6    2    4 1
     7    2    5 1
     8    3   20 1
     9    3   21 1
    10    3   22 1
    11    4   23 1
    12    4   24 1
    13    4   25 1
    14    5    6 1
    15    5   13 1
    16    5    7 1
    17    7    8 1
    18    7   26 1
    19    7   27 1
    20    8    9 1
    21    8   28 1
    22    8   29 1
    23    9   10 2
    24    9   11 1
    25   11   12 1
    26   11   13 1
    27   11   14 1
    28   13   30 1
    29   13   31 1
    30   14   15 2
    31   14   16 1
@<TRIPOS>MOLECULE
ZINC35572073
   17    18     0     0     0
SMALL
USER_CHARGES

@<TRIPOS>ATOM
      1 C1         -0.0169    1.3946    0.0097 C.ar      1 <0>        -0.1428
      2 C2          1.1798    2.0797    0.0020 C.ar      1 <0>         0.0909
      3 N1          2.3304    1.4335   -0.0129 N.ar      1 <0>        -0.4972
      4 C3          2.3926    0.1152   -0.0206 C.ar      1 <0>         0.0915
      5 C4          1.2440   -0.6477   -0.0138 C.ar      1 <0>        -0.1670
      6 C5          0.0021   -0.0041    0.0020 C.ar      1 <0>         0.0399
      7 C6         -1.2588   -0.7825    0.0104 C.2       1 <0>         0.1060
      8 C7         -1.2271   -2.1490    0.0079 C.2       1 <0>        -0.2421
      9 S1         -2.9752   -2.5236    0.0205 S.3       1 <0>        -0.1177
     10 C8         -3.5677   -0.8375    0.0278 C.2       1 <0>         0.3427
     11 N2         -2.4349   -0.1586    0.0259 N.2       1 <0>        -0.5570
     12 S2         -5.2249   -0.2392    0.0413 S.3       1 <0>        -0.7099
     13 H1         -0.9548    1.9299    0.0260 H         1 <0>         0.1447
     14 H2          1.1754    3.1597    0.0078 H         1 <0>         0.1537
     15 H3          3.3560   -0.3726   -0.0328 H         1 <0>         0.1527
     16 H4          1.3023   -1.7261   -0.0209 H         1 <0>         0.1337
     17 H5         -0.3795   -2.8182    0.0000 H         1 <0>         0.1778
@<TRIPOS>BOND
     1    1    6 ar
     2    1    2 ar
     3    1   13 1
     4    2    3 ar
     5    2   14 1
     6    3    4 ar
     7    4    5 ar
     8    4   15 1
     9    5    6 ar
    10    5   16 1
    11    6    7 1
    12    7   11 1
    13    7    8 2
    14    8    9 1
    15    8   17 1
    16    9   10 1
    17   10   11 2
    18   10   12 1
@<TRIPOS>MOLECULE
ZINC39124663
   21    21     0     0     0
SMALL
USER_CHARGES

@<TRIPOS>ATOM
      1 C1         -0.0185    1.5136    0.0104 C.3       1 <0>        -0.1185
      2 C2          1.3617    2.1452    0.0006 C.3       1 <0>        -0.1131
      3 C3          2.0766    1.8654   -1.3236 C.3       1 <0>        -0.1408
      4 C4          2.7523    0.5136   -1.2284 C.2       1 <0>         0.4804
      5 O1          3.9606    0.4459   -1.1542 O.2       1 <0>        -0.4334
      6 N1          2.0226   -0.6027   -1.2263 N.am      1 <0>        -0.5396
      7 C5          0.5555   -0.5346   -1.3229 C.3       1 <0>         0.0979
      8 C6          0.0021   -0.0041    0.0020 C.3       1 <0>        -0.1353
      9 C7          2.6327   -1.8011   -1.1356 C.2       1 <0>         0.5541
     10 S1          4.3389   -1.8868   -1.0235 S.2       1 <0>        -0.7637
     11 O2          1.8998   -2.9316   -1.1331 O.3       1 <0>        -0.6416
     12 H1         -0.5486    1.8494    0.9016 H         1 <0>         0.0616
     13 H2         -0.5655    1.8589   -0.8669 H         1 <0>         0.0616
     14 H3          1.2643    3.2224    0.1352 H         1 <0>         0.0708
     15 H4          1.9506    1.7336    0.8203 H         1 <0>         0.0657
     16 H5          1.3508    1.8556   -2.1367 H         1 <0>         0.0822
     17 H6          2.8248    2.6368   -1.5059 H         1 <0>         0.0937
     18 H7          0.2731    0.1381   -2.1327 H         1 <0>         0.0738
     19 H8          0.1550   -1.5301   -1.5147 H         1 <0>         0.1008
     20 H9          0.6290   -0.3585    0.8202 H         1 <0>         0.0684
     21 H10        -1.0126   -0.3770    0.1416 H         1 <0>         0.0747
@<TRIPOS>BOND
     1    1    8 1
     2    1    2 1
     3    1   12 1
     4    1   13 1
     5    2    3 1
     6    2   14 1
     7    2   15 1
     8    3    4 1
     9    3   16 1
    10    3   17 1
    11    4    5 2
    12    4    6 am
    13    6    7 1
    14    6    9 1
    15    7    8 1
    16    7   18 1
    17    7   19 1
    18    8   20 1
    19    8   21 1
    20    9   10 2
    21    9   11 1
@<TRIPOS>MOLECULE
ZINC54634073
   27    27     0     0     0
SMALL
USER_CHARGES

@<TRIPOS>ATOM
      1 C1         -0.3624    0.0549    1.4376 C.3       1 <0>        -0.1400
      2 C2          0.9802   -0.0122    0.7071 C.3       1 <0>        -0.1001
      3 C3          1.9810   -0.8041    1.5512 C.3       1 <0>        -0.1558
      4 C4          0.7917   -0.7052   -0.6439 C.3       1 <0>        -0.0768
      5 C5          2.0833   -0.5976   -1.4569 C.3       1 <0>        -0.1615
      6 C6          1.9092   -1.2632   -2.8404 C.3       1 <0>        -0.1297
      7 C7          2.9545   -2.4006   -2.8439 C.3       1 <0>         0.0452
      8 O1          3.9538   -1.9865   -1.8869 O.3       1 <0>        -0.3793
      9 C8          3.2132   -1.4116   -0.7882 C.3       1 <0>         0.0650
     10 C9          2.4911    0.8452   -1.6094 C.2       1 <0>         0.5128
     11 O2          3.6060    1.2027   -1.2696 O.co2     1 <0>        -0.6902
     12 O3          1.7059    1.6548   -2.0726 O.co2     1 <0>        -0.6975
     13 H1         -1.0763    0.6164    0.8349 H         1 <0>         0.0516
     14 H2         -0.7388   -0.9551    1.5996 H         1 <0>         0.0464
     15 H3         -0.2287    0.5514    2.3987 H         1 <0>         0.0478
     16 H4          1.3581    0.9977    0.5478 H         1 <0>         0.0793
     17 H5          1.7430   -1.8663    1.4954 H         1 <0>         0.0473
     18 H6          2.9889   -0.6371    1.1713 H         1 <0>         0.0706
     19 H7          1.9240   -0.4729    2.5881 H         1 <0>         0.0449
     20 H8          0.5502   -1.7558   -0.4828 H         1 <0>         0.0455
     21 H9         -0.0214   -0.2249   -1.1882 H         1 <0>         0.0638
     22 H10         0.9030   -1.6689   -2.9451 H         1 <0>         0.0647
     23 H11         2.1190   -0.5492   -3.6368 H         1 <0>         0.0707
     24 H12         2.4957   -3.3387   -2.5314 H         1 <0>         0.0470
     25 H13         3.3979   -2.5054   -3.8341 H         1 <0>         0.0792
     26 H14         3.8553   -0.7567   -0.1993 H         1 <0>         0.1054
     27 H15         2.7940   -2.1980   -0.1605 H         1 <0>         0.0436
@<TRIPOS>BOND
     1    1    2 1
     2    1   13 1
     3    1   14 1
     4    1   15 1
     5    2    3 1
     6    2    4 1
     7    2   16 1
     8    3   17 1
     9    3   18 1
    10    3   19 1
    11    4    5 1
    12    4   20 1
    13    4   21 1
    14    5    9 1
    15    5    6 1
    16    5   10 1
    17    6    7 1
    18    6   22 1
    19    6   23 1
    20    7    8 1
    21    7   24 1
    22    7   25 1
    23    8    9 1
    24    9   26 1
    25    9   27 1
    26   10   11 2
    27   10   12 1
@<TRIPOS>MOLECULE
ZINC05125979
   40    42     0     0     0
SMALL
USER_CHARGES

@<TRIPOS>ATOM
      1 C1         -0.0184    1.5028    0.0103 C.3       1 <0>        -0.0821
      2 C2          0.0021   -0.0041    0.0020 C.2       1 <0>         0.1229
      3 C3          0.0080   -0.8130   -1.1263 C.2       1 <0>        -0.2609
      4 C4          0.0282   -2.1160   -0.7132 C.2       1 <0>         0.2741
      5 N1          0.0334   -2.1161    0.6295 N.pl3     1 <0>        -0.4471
      6 H1          0.0460   -2.9000    1.2006 H         1 <0>         0.4464
      7 N2          0.0231   -0.7800    1.0597 N.2       1 <0>        -0.2643
      8 O1          0.0417   -3.1589   -1.5801 O.3       1 <0>        -0.2318
      9 C5          0.3111   -2.8918   -2.8741 C.2       1 <0>         0.4374
     10 C6          0.3091   -1.6476   -3.4017 C.2       1 <0>        -0.2551
     11 C7         -0.0050   -0.4214   -2.5814 C.3       1 <0>         0.1214
     12 H2          0.7484    0.3451   -2.7627 H         1 <0>         0.0966
     13 C8         -1.3670    0.1050   -2.9541 C.ar      1 <0>        -0.0762
     14 C9         -2.4815   -0.7008   -2.8142 C.ar      1 <0>        -0.0960
     15 C10        -3.7308   -0.2179   -3.1561 C.ar      1 <0>        -0.1174
     16 C11        -3.8657    1.0709   -3.6375 C.ar      1 <0>        -0.0755
     17 C12        -2.7514    1.8769   -3.7766 C.ar      1 <0>        -0.1123
     18 C13        -1.5026    1.3955   -3.4307 C.ar      1 <0>        -0.1098
     19 C14        -5.2276    1.5969   -4.0112 C.3       1 <0>        -0.0582
     20 C15        -5.5515    2.8251   -3.1583 C.3       1 <0>        -0.1441
     21 C16        -5.2353    1.9869   -5.4907 C.3       1 <0>        -0.1448
     22 C17         0.6161   -1.4874   -4.7912 C.1       1 <0>         0.2708
     23 N3          0.8596   -1.3603   -5.8935 N.1       1 <0>        -0.4379
     24 N4          0.6051   -3.9452   -3.7039 N.pl3     1 <0>        -0.8318
     25 H3          1.0042    1.8801    0.0026 H         1 <0>         0.0848
     26 H4         -0.5455    1.8639   -0.8728 H         1 <0>         0.0851
     27 H5         -0.5286    1.8543    0.9071 H         1 <0>         0.0791
     28 H6         -2.3761   -1.7076   -2.4380 H         1 <0>         0.1109
     29 H7         -4.6015   -0.8477   -3.0474 H         1 <0>         0.1178
     30 H8         -2.8567    2.8837   -4.1531 H         1 <0>         0.1207
     31 H9         -0.6324    2.0265   -3.5358 H         1 <0>         0.1224
     32 H10        -5.9763    0.8246   -3.8352 H         1 <0>         0.0756
     33 H11        -6.5366    3.2056   -3.4286 H         1 <0>         0.0574
     34 H12        -5.5460    2.5473   -2.1043 H         1 <0>         0.0559
     35 H13        -4.8028    3.5975   -3.3344 H         1 <0>         0.0572
     36 H14        -5.0045    1.1119   -6.0983 H         1 <0>         0.0551
     37 H15        -6.2204    2.3674   -5.7610 H         1 <0>         0.0577
     38 H16        -4.4866    2.7593   -5.6667 H         1 <0>         0.0570
     39 H17         0.6147   -4.8499   -3.3543 H         1 <0>         0.4112
     40 H18         0.8032   -3.7847   -4.6398 H         1 <0>         0.4279
@<TRIPOS>BOND
     1    1    2 1
     2    1   25 1
     3    1   26 1
     4    1   27 1
     5    2    7 2
     6    2    3 1
     7    3   11 1
     8    3    4 2
     9    4    5 1
    10    4    8 1
    11    5    6 1
    12    5    7 1
    13    8    9 1
    14    9   10 2
    15    9   24 1
    16   10   11 1
    17   10   22 1
    18   11   12 1
    19   11   13 1
    20   13   18 ar
    21   13   14 ar
    22   14   15 ar
    23   14   28 1
    24   15   16 ar
    25   15   29 1
    26   16   17 ar
    27   16   19 1
    28   17   18 ar
    29   17   30 1
    30   18   31 1
    31   19   20 1
    32   19   21 1
    33   19   32 1
    34   20   33 1
    35   20   34 1
    36   20   35 1
    37   21   36 1
    38   21   37 1
    39   21   38 1
    40   22   23 3
    41   24   39 1
    42   24   40 1
@<TRIPOS>MOLECULE
ZINC37441738
   33    35     0     0     0
SMALL
USER_CHARGES

@<TRIPOS>ATOM
      1 C1         -0.4997   -1.6539    0.4908 C.3       1 <0>        -0.1656
      2 C2         -0.1688   -0.2565   -0.0371 C.3       1 <0>         0.1312
      3 C3          0.6344    0.5095    1.0160 C.3       1 <0>        -0.1683
      4 N1          0.6219   -0.3728   -1.2649 N.pl3     1 <0>        -0.4792
      5 C4          1.8480   -1.0017   -1.3960 C.ar      1 <0>         0.0641
      6 C5          2.6813   -1.6746   -0.5147 C.ar      1 <0>        -0.1006
      7 C6          3.8729   -2.2042   -0.9644 C.ar      1 <0>        -0.0836
      8 C7          4.2452   -2.0686   -2.2948 C.ar      1 <0>        -0.0983
      9 C8          3.4305   -1.4038   -3.1842 C.ar      1 <0>        -0.0360
     10 C9          2.2193   -0.8612   -2.7441 C.ar      1 <0>         0.0561
     11 N2          1.2296   -0.1701   -3.3635 N.2       1 <0>        -0.4966
     12 C10         0.2833    0.1152   -2.4992 C.2       1 <0>         0.3927
     13 C11        -0.9547    0.8528   -2.8094 C.2       1 <0>        -0.2781
     14 C12        -1.4977    1.9280   -2.0726 C.2       1 <0>         0.1105
     15 N3         -2.5959    2.3131   -2.6618 N.2       1 <0>        -0.2930
     16 N4         -2.8130    1.5170   -3.7918 N.pl3     1 <0>        -0.4956
     17 H1         -3.5597    1.5950   -4.4060 H         1 <0>         0.4423
     18 C13        -1.8037    0.6249   -3.8850 C.2       1 <0>         0.4284
     19 N5         -1.6461   -0.3383   -4.8667 N.pl3     1 <0>        -0.8350
     20 Br1         5.8834   -2.8018   -2.8904 Br        1 <0>        -0.0464
     21 H2         -0.9849   -2.2335   -0.2946 H         1 <0>         0.0632
     22 H3          0.4195   -2.1540    0.7962 H         1 <0>         0.0657
     23 H4         -1.1692   -1.5698    1.3467 H         1 <0>         0.0792
     24 H5         -1.0935    0.2799   -0.2499 H         1 <0>         0.1077
     25 H6          1.5102   -0.0738    1.3002 H         1 <0>         0.0659
     26 H7          0.9535    1.4669    0.6041 H         1 <0>         0.0658
     27 H8          0.0116    0.6812    1.8940 H         1 <0>         0.0803
     28 H9          2.3979   -1.7833    0.5218 H         1 <0>         0.1298
     29 H10         4.5208   -2.7275   -0.2768 H         1 <0>         0.1383
     30 H11         3.7262   -1.3016   -4.2178 H         1 <0>         0.1380
     31 H12        -1.0766    2.3572   -1.1755 H         1 <0>         0.1860
     32 H13        -0.8823   -0.9358   -4.8418 H         1 <0>         0.4257
     33 H14        -2.2995   -0.4158   -5.5794 H         1 <0>         0.4055
@<TRIPOS>BOND
     1    1    2 1
     2    1   21 1
     3    1   22 1
     4    1   23 1
     5    2    3 1
     6    2    4 1
     7    2   24 1
     8    3   25 1
     9    3   26 1
    10    3   27 1
    11    4   12 1
    12    4    5 1
    13    5   10 ar
    14    5    6 ar
    15    6    7 ar
    16    6   28 1
    17    7    8 ar
    18    7   29 1
    19    8    9 ar
    20    8   20 1
    21    9   10 ar
    22    9   30 1
    23   10   11 1
    24   11   12 2
    25   12   13 1
    26   13   18 2
    27   13   14 1
    28   14   15 2
    29   14   31 1
    30   15   16 1
    31   16   17 1
    32   16   18 1
    33   18   19 1
    34   19   32 1
    35   19   33 1
@<TRIPOS>MOLECULE
ZINC43593101
   34    35     0     0     0
SMALL
USER_CHARGES

@<TRIPOS>ATOM
      1 C1         -0.0187    1.5258    0.0104 C.3       1 <0>        -0.1536
      2 C2          0.0021   -0.0041    0.0020 C.3       1 <0>        -0.0707
      3 C3          0.7074   -0.4901   -1.2379 C.2       1 <0>         0.0845
      4 C4          2.0044   -0.7940   -1.1885 C.2       1 <0>        -0.1578
      5 S1          2.3356   -1.3008   -2.8683 S.3       1 <0>        -0.0240
      6 C5          0.6903   -1.0654   -3.5231 C.2       1 <0>         0.5059
      7 N1          0.0154   -0.6230   -2.4059 N.pl3     1 <0>        -0.6022
      8 N2          0.2437   -1.2647   -4.7387 N.2       1 <0>        -0.9687
      9 S2          1.2685   -1.8143   -5.9176 S.o2      1 <0>         2.6525
     10 O1          2.2205   -0.7834   -6.1411 O.2       1 <0>        -0.9631
     11 O2          1.6464   -3.1325   -5.5451 O.2       1 <0>        -0.9560
     12 C6          0.3270   -1.9603   -7.3998 C.ar      1 <0>        -0.7375
     13 C7          0.6241   -1.1602   -8.4877 C.ar      1 <0>         0.0518
     14 C8         -0.1114   -1.2721   -9.6511 C.ar      1 <0>        -0.2247
     15 C9         -1.1516   -2.1900   -9.7292 C.ar      1 <0>         0.2956
     16 C10        -1.4491   -2.9929   -8.6362 C.ar      1 <0>        -0.2550
     17 C11        -0.7056   -2.8802   -7.4750 C.ar      1 <0>         0.2505
     18 F1         -0.9902   -3.6642   -6.4122 F         1 <0>        -0.1168
     19 N3         -1.8969   -2.3044  -10.9049 N.pl3     1 <0>        -0.8579
     20 C12         2.9488   -0.7263   -0.0161 C.3       1 <0>        -0.0642
     21 H1          1.0039    1.9031    0.0027 H         1 <0>         0.0647
     22 H2         -0.5459    1.8868   -0.8726 H         1 <0>         0.0573
     23 H3         -0.5289    1.8773    0.9072 H         1 <0>         0.0708
     24 H4          0.5293   -0.3651    0.8851 H         1 <0>         0.1014
     25 H5         -1.0205   -0.3814    0.0098 H         1 <0>         0.0844
     26 H6          1.4323   -0.4464   -8.4273 H         1 <0>         0.1544
     27 H7          0.1216   -0.6462  -10.4998 H         1 <0>         0.1406
     28 H8         -2.2570   -3.7073   -8.6939 H         1 <0>         0.1449
     29 H9         -1.6886   -1.7427  -11.6678 H         1 <0>         0.4077
     30 H10        -2.6229   -2.9454  -10.9585 H         1 <0>         0.4061
     31 H11         2.9400   -1.6793    0.5130 H         1 <0>         0.0841
     32 H12         3.9574   -0.5185   -0.3735 H         1 <0>         0.0817
     33 H13         2.6322    0.0677    0.6602 H         1 <0>         0.0873
     34 H14        -0.9294   -0.4079   -2.4499 H         1 <0>         0.4262
@<TRIPOS>BOND
     1    1    2 1
     2    1   21 1
     3    1   22 1
     4    1   23 1
     5    2    3 1
     6    2   24 1
     7    2   25 1
     8    3    7 1
     9    3    4 2
    10    4    5 1
    11    4   20 1
    12    5    6 1
    13    6    7 1
    14    6    8 2
    15    7   34 1
    16    8    9 1
    17    9   10 2
    18    9   11 2
    19    9   12 1
    20   12   17 ar
    21   12   13 ar
    22   13   14 ar
    23   13   26 1
    24   14   15 ar
    25   14   27 1
    26   15   16 ar
    27   15   19 1
    28   16   17 ar
    29   16   28 1
    30   17   18 1
    31   19   29 1
    32   19   30 1
    33   20   31 1
    34   20   32 1
    35   20   33 1
@<TRIPOS>MOLECULE
ZINC32558251
   35    38     0     0     0
SMALL
USER_CHARGES

@<TRIPOS>ATOM
      1 C1         -0.0167    1.3790    0.0096 C.ar      1 <0>        -0.1056
      2 C2          1.1687    2.0918    0.0021 C.ar      1 <0>        -0.1202
      3 C3          2.3774    1.4256   -0.0130 C.ar      1 <0>        -0.0858
      4 C4          2.4021    0.0326   -0.0207 C.ar      1 <0>        -0.0212
      5 C5          1.2052   -0.6804   -0.0131 C.ar      1 <0>        -0.0913
      6 C6          0.0021   -0.0041    0.0020 C.ar      1 <0>        -0.1191
      7 C7          3.6989   -0.6892   -0.0375 C.2       1 <0>         0.1660
      8 C8          3.9720   -1.9046    0.5971 C.2       1 <0>        -0.2567
      9 C9          5.2718   -2.2324    0.3406 C.2       1 <0>         0.2826
     10 N1          5.7976   -1.2557   -0.4275 N.pl3     1 <0>        -0.4432
     11 H1          6.7067   -1.2219   -0.7640 H         1 <0>         0.4497
     12 N2          4.7960   -0.2999   -0.6587 N.2       1 <0>        -0.2475
     13 O1          5.8488   -3.3645    0.8153 O.3       1 <0>        -0.2274
     14 C10         5.0372   -4.3122    1.3269 C.2       1 <0>         0.4465
     15 C11         3.7375   -4.1036    1.6333 C.2       1 <0>        -0.2649
     16 C12         3.0641   -2.7687    1.4335 C.3       1 <0>         0.1654
     17 H2          2.1137   -2.9098    0.9188 H         1 <0>         0.1102
     18 C13         2.8272   -2.1131    2.7696 C.2       1 <0>        -0.1251
     19 C14         1.6587   -1.7167    3.3307 C.2       1 <0>        -0.1496
     20 C15         1.6809   -1.1310    4.5825 C.2       1 <0>        -0.1518
     21 C16         2.8705   -0.9703    5.2121 C.2       1 <0>        -0.1775
     22 S1          4.0118   -1.6642    4.0275 S.3       1 <0>         0.0356
     23 C17         2.9717   -5.1895    2.1672 C.1       1 <0>         0.2705
     24 N3          2.3642   -6.0510    2.5906 N.1       1 <0>        -0.4331
     25 N4          5.5614   -5.5613    1.5489 N.pl3     1 <0>        -0.8276
     26 H3         -0.9602    1.9042    0.0260 H         1 <0>         0.1246
     27 H4          1.1483    3.1716    0.0078 H         1 <0>         0.1265
     28 H5          3.3023    1.9832   -0.0192 H         1 <0>         0.1272
     29 H6          1.2187   -1.7603   -0.0194 H         1 <0>         0.1270
     30 H7         -0.9264   -0.5558    0.0083 H         1 <0>         0.1276
     31 H8          0.7243   -1.8560    2.8073 H         1 <0>         0.1315
     32 H9          0.7642   -0.8059    5.0519 H         1 <0>         0.1319
     33 H10         3.0746   -0.5384    6.1807 H         1 <0>         0.1829
     34 H11         6.4910   -5.7416    1.3386 H         1 <0>         0.4128
     35 H12         5.0022   -6.2637    1.9161 H         1 <0>         0.4291
@<TRIPOS>BOND
     1    1    6 ar
     2    1    2 ar
     3    1   26 1
     4    2    3 ar
     5    2   27 1
     6    3    4 ar
     7    3   28 1
     8    4    5 ar
     9    4    7 1
    10    5    6 ar
    11    5   29 1
    12    6   30 1
    13    7   12 2
    14    7    8 1
    15    8   16 1
    16    8    9 2
    17    9   10 1
    18    9   13 1
    19   10   11 1
    20   10   12 1
    21   13   14 1
    22   14   15 2
    23   14   25 1
    24   15   16 1
    25   15   23 1
    26   16   17 1
    27   16   18 1
    28   18   22 1
    29   18   19 2
    30   19   20 1
    31   19   31 1
    32   20   21 2
    33   20   32 1
    34   21   22 1
    35   21   33 1
    36   23   24 3
    37   25   34 1
    38   25   35 1
@<TRIPOS>MOLECULE
ZINC13127449
   39    42     0     0     0
SMALL
USER_CHARGES

@<TRIPOS>ATOM
      1 C1         -0.0167    1.3782    0.0096 C.ar      1 <0>        -0.0708
      2 C2          1.1703    2.0860    0.0021 C.ar      1 <0>        -0.1506
      3 C3          2.3786    1.4101   -0.0131 C.ar      1 <0>         0.1087
      4 C4          2.3962    0.0256   -0.0207 C.ar      1 <0>        -0.1506
      5 C5          1.2079   -0.6800   -0.0132 C.ar      1 <0>        -0.0744
      6 C6          0.0021   -0.0041    0.0020 C.ar      1 <0>        -0.1124
      7 C7         -1.2930   -0.7747    0.0103 C.3       1 <0>         0.2023
      8 H1         -2.0973   -0.1345    0.3726 H         1 <0>         0.0900
      9 C8         -1.6161   -1.2532   -1.4098 C.3       1 <0>        -0.1425
     10 C9         -2.9608   -1.9907   -1.4141 C.3       1 <0>         0.2156
     11 H2         -3.7695   -1.2767   -1.2580 H         1 <0>         0.0990
     12 N1         -2.9619   -2.9764   -0.3335 N.pl3     1 <0>        -0.4072
     13 C10        -2.1190   -2.9478    0.7264 C.2       1 <0>         0.5479
     14 N2         -2.3914   -3.9715    1.4910 N.2       1 <0>        -0.5982
     15 C11        -3.4004   -4.6737    0.9550 C.2       1 <0>         0.4897
     16 N3         -3.7779   -4.0956   -0.1636 N.2       1 <0>        -0.3627
     17 N4         -3.9596   -5.8317    1.4973 N.pl3     1 <0>        -0.8253
     18 N5         -1.1630   -1.9525    0.8897 N.pl3     1 <0>        -0.7051
     19 C12        -3.1505   -2.6873   -2.7369 C.ar      1 <0>        -0.1026
     20 C13        -2.2470   -3.6502   -3.1463 C.ar      1 <0>        -0.0594
     21 C14        -2.4201   -4.2900   -4.3589 C.ar      1 <0>        -0.1535
     22 C15        -3.4990   -3.9662   -5.1640 C.ar      1 <0>         0.1090
     23 C16        -4.4033   -3.0016   -4.7530 C.ar      1 <0>        -0.1530
     24 C17        -4.2310   -2.3669   -3.5376 C.ar      1 <0>        -0.0661
     25 F1         -3.6691   -4.5907   -6.3499 F         1 <0>        -0.1372
     26 F2          3.5396    2.1009   -0.0209 F         1 <0>        -0.1357
     27 H3         -0.9592    1.9052    0.0260 H         1 <0>         0.1384
     28 H4          1.1554    3.1659    0.0077 H         1 <0>         0.1407
     29 H5          3.3381   -0.5027   -0.0329 H         1 <0>         0.1395
     30 H6          1.2213   -1.7599   -0.0195 H         1 <0>         0.1353
     31 H7         -1.6717   -0.3939   -2.0781 H         1 <0>         0.1124
     32 H8         -0.8315   -1.9278   -1.7524 H         1 <0>         0.0897
     33 H9         -3.6179   -6.1907    2.3312 H         1 <0>         0.4132
     34 H10        -4.6899   -6.2776    1.0405 H         1 <0>         0.4134
     35 H11        -0.4490   -2.0286    1.5419 H         1 <0>         0.4262
     36 H12        -1.4053   -3.9023   -2.5183 H         1 <0>         0.1249
     37 H13        -1.7139   -5.0420   -4.6786 H         1 <0>         0.1366
     38 H14        -5.2451   -2.7480   -5.3803 H         1 <0>         0.1392
     39 H15        -4.9387   -1.6177   -3.2147 H         1 <0>         0.1354
@<TRIPOS>BOND
     1    1    6 ar
     2    1    2 ar
     3    1   27 1
     4    2    3 ar
     5    2   28 1
     6    3    4 ar
     7    3   26 1
     8    4    5 ar
     9    4   29 1
    10    5    6 ar
    11    5   30 1
    12    6    7 1
    13    7    8 1
    14    7   18 1
    15    7    9 1
    16    9   10 1
    17    9   31 1
    18    9   32 1
    19   10   11 1
    20   10   12 1
    21   10   19 1
    22   12   16 1
    23   12   13 1
    24   13   14 2
    25   13   18 1
    26   14   15 1
    27   15   16 2
    28   15   17 1
    29   17   33 1
    30   17   34 1
    31   18   35 1
    32   19   24 ar
    33   19   20 ar
    34   20   21 ar
    35   20   36 1
    36   21   22 ar
    37   21   37 1
    38   22   23 ar
    39   22   25 1
    40   23   24 ar
    41   23   38 1
    42   24   39 1
@<TRIPOS>MOLECULE
ZINC02990683
   29    30     0     0     0
SMALL
USER_CHARGES
5-[3-(4-nitrophenyl)prop-2-enylsulfanyl]-1,3,4-thiadiazol-2-amine
@<TRIPOS>ATOM
      1 C1         -0.0126    1.0758    0.0080 C.ar      1 <0>        -0.1057
      2 C2         -1.2158    1.7509    0.0173 C.ar      1 <0>        -0.0509
      3 C3         -1.2362    3.1341    0.0312 C.ar      1 <0>        -0.0466
      4 C4         -0.0521    3.8495    0.0233 C.ar      1 <0>        -0.0494
      5 C5          1.1578    3.1864    0.0082 C.ar      1 <0>        -0.1154
      6 C6          1.1853    1.7914    0.0004 C.ar      1 <0>        -0.0034
      7 C7          2.4779    1.0746   -0.0164 C.2       1 <0>        -0.1006
      8 C8          3.6143    1.7572   -0.0236 C.2       1 <0>        -0.1141
      9 C9          4.9322    1.0265   -0.0406 C.3       1 <0>        -0.0883
     10 S1          5.7963    1.3743   -1.5972 S.3       1 <0>         0.0527
     11 C10         7.2972    0.4608   -1.4648 C.2       1 <0>         0.0381
     12 N1          7.7248   -0.3065   -0.4806 N.2       1 <0>        -0.2727
     13 N2          8.9436   -0.9363   -0.5839 N.2       1 <0>        -0.3748
     14 C11         9.6786   -0.7702   -1.6660 C.2       1 <0>         0.3542
     15 S2          8.6431    0.3198   -2.6307 S.3       1 <0>         0.0017
     16 N3         10.9239   -1.3045   -1.9754 N.pl3     1 <0>        -0.7878
     17 N4         -2.5305    3.8518    0.0475 N.pl3     1 <0>         0.0264
     18 O1         -2.5516    5.0696    0.0539 O.2       1 <0>        -0.1581
     19 O2         -3.5746    3.2246    0.0545 O.3       1 <0>        -0.1581
     20 H1          0.0021   -0.0041    0.0020 H         1 <0>         0.1517
     21 H2         -2.1437    1.1983    0.0183 H         1 <0>         0.1566
     22 H3         -0.0748    4.9292    0.0294 H         1 <0>         0.1565
     23 H4          2.0815    3.7460    0.0020 H         1 <0>         0.1502
     24 H5          2.4966   -0.0052   -0.0227 H         1 <0>         0.1360
     25 H6          3.5956    2.8371   -0.0172 H         1 <0>         0.1324
     26 H7          5.5440    1.3610    0.7972 H         1 <0>         0.1150
     27 H8          4.7543   -0.0455    0.0446 H         1 <0>         0.1067
     28 H9         11.3697   -1.8920   -1.3453 H         1 <0>         0.4236
     29 H10        11.3471   -1.0899   -2.8214 H         1 <0>         0.4241
@<TRIPOS>BOND
     1    1    6 ar
     2    1    2 ar
     3    1   20 1
     4    2    3 ar
     5    2   21 1
     6    3    4 ar
     7    3   17 1
     8    4    5 ar
     9    4   22 1
    10    5    6 ar
    11    5   23 1
    12    6    7 1
    13    7    8 2
    14    7   24 1
    15    8    9 1
    16    8   25 1
    17    9   10 1
    18    9   26 1
    19    9   27 1
    20   10   11 1
    21   11   15 1
    22   11   12 2
    23   12   13 1
    24   13   14 2
    25   14   15 1
    26   14   16 1
    27   16   28 1
    28   16   29 1
    29   17   18 2
    30   17   19 1
@<TRIPOS>MOLECULE
ZINC32196273
   38    40     0     0     0
SMALL
USER_CHARGES
3-[(1S)-1-(2,4,6-trimethylphenoxy)ethyl]-[1,2,4]triazolo[3,4-b][1,3,4]thiadiazol-6-amine
@<TRIPOS>ATOM
      1 C1          0.3901   -2.3082    2.6450 C.3       1 <0>        -0.1179
      2 C2          0.1745   -1.7208    1.2741 C.ar      1 <0>        -0.0781
      3 C3          0.5186   -2.4481    0.1496 C.ar      1 <0>        -0.1167
      4 C4          0.3220   -1.9119   -1.1082 C.ar      1 <0>        -0.0931
      5 C5         -0.2252   -0.6441   -1.2427 C.ar      1 <0>         0.0808
      6 C6         -0.5647    0.0858   -0.1128 C.ar      1 <0>        -0.0812
      7 C7         -0.3665   -0.4552    1.1428 C.ar      1 <0>        -0.1166
      8 C8         -1.1549    1.4650   -0.2551 C.3       1 <0>        -0.1248
      9 O1         -0.4244   -0.1164   -2.4791 O.3       1 <0>        -0.3101
     10 C9         -1.6125   -0.5100   -3.1688 C.3       1 <0>         0.1860
     11 H1         -1.8550   -1.5214   -2.8108 H         1 <0>         0.0889
     12 C10        -2.7343    0.4836   -2.8600 C.3       1 <0>        -0.1742
     13 C11        -1.3500   -0.5260   -4.6527 C.2       1 <0>         0.2339
     14 N1         -0.7228    0.3952   -5.3298 N.2       1 <0>        -0.2303
     15 N2         -0.6733    0.0693   -6.5747 N.2       1 <0>        -0.2227
     16 C12        -1.2669   -1.0735   -6.7439 C.2       1 <0>         0.1057
     17 N3         -1.7258   -1.5201   -5.5312 N.pl3     1 <0>        -0.3210
     18 N4         -2.3971   -2.7357   -5.5305 N.2       1 <0>        -0.3594
     19 C13        -2.5673   -3.4159   -6.6336 C.2       1 <0>         0.3935
     20 S1         -1.7744   -2.3702   -7.8452 S.3       1 <0>         0.1288
     21 N5         -3.2004   -4.6340   -6.8161 N.pl3     1 <0>        -0.7974
     22 C14         0.6967   -2.7054   -2.3333 C.3       1 <0>        -0.1169
     23 H2          0.8254   -3.3138    2.5487 H         1 <0>         0.0661
     24 H3         -0.5736   -2.3746    3.1711 H         1 <0>         0.0715
     25 H4          1.0759   -1.6649    3.2158 H         1 <0>         0.0722
     26 H5          0.9410   -3.4365    0.2548 H         1 <0>         0.1255
     27 H6         -0.6348    0.1108    2.0226 H         1 <0>         0.1278
     28 H7         -1.3568    1.8821    0.7425 H         1 <0>         0.0660
     29 H8         -2.0942    1.4049   -0.8244 H         1 <0>         0.0788
     30 H9         -0.4445    2.1147   -0.7873 H         1 <0>         0.0780
     31 H10        -3.6488    0.1806   -3.3909 H         1 <0>         0.0719
     32 H11        -2.4346    1.4892   -3.1903 H         1 <0>         0.0835
     33 H12        -2.9259    0.4953   -1.7769 H         1 <0>         0.0843
     34 H13        -3.2594   -5.0781   -7.8207 H         1 <0>         0.4582
     35 H14        -3.6442   -5.1574   -5.9564 H         1 <0>         0.4518
     36 H15         0.4683   -2.1178   -3.2347 H         1 <0>         0.0640
     37 H16         0.1229   -3.6437   -2.3521 H         1 <0>         0.0684
     38 H17         1.7724   -2.9339   -2.3073 H         1 <0>         0.0747
@<TRIPOS>BOND
     1    1    2 1
     2    1   23 1
     3    1   24 1
     4    1   25 1
     5    2    7 ar
     6    2    3 ar
     7    3    4 ar
     8    3   26 1
     9    4    5 ar
    10    4   22 1
    11    5    6 ar
    12    5    9 1
    13    6    7 ar
    14    6    8 1
    15    7   27 1
    16    8   28 1
    17    8   29 1
    18    8   30 1
    19    9   10 1
    20   10   11 1
    21   10   12 1
    22   10   13 1
    23   12   31 1
    24   12   32 1
    25   12   33 1
    26   13   17 1
    27   13   14 2
    28   14   15 1
    29   15   16 2
    30   16   20 1
    31   16   17 1
    32   17   18 1
    33   18   19 2
    34   19   20 1
    35   19   21 1
    36   21   34 1
    37   21   35 1
    38   22   36 1
    39   22   37 1
    40   22   38 1
@<TRIPOS>MOLECULE
ZINC37291268
   33    35     0     0     0
SMALL
USER_CHARGES

@<TRIPOS>ATOM
      1 C1         -0.0173    1.4248    0.0099 C.3       1 <0>         0.0235
      2 O1          0.0021   -0.0041    0.0020 O.3       1 <0>        -0.2910
      3 C2         -1.1999   -0.6372    0.0101 C.ar      1 <0>         0.1572
      4 C3         -2.3736    0.0992    0.0195 C.ar      1 <0>        -0.2147
      5 C4         -3.5957   -0.5460    0.0282 C.ar      1 <0>        -0.0647
      6 C5         -3.6553   -1.9286    0.0271 C.ar      1 <0>        -0.1606
      7 C6         -2.4940   -2.6743    0.0178 C.ar      1 <0>        -0.0480
      8 C7         -1.2569   -2.0340    0.0031 C.ar      1 <0>        -0.0601
      9 C8         -0.0058   -2.8307   -0.0136 C.2       1 <0>         0.1794
     10 C9          0.0778   -4.2364   -0.0277 C.2       1 <0>        -0.3322
     11 C10         1.3942   -4.5742   -0.0405 C.2       1 <0>         0.3915
     12 N1          2.1174   -3.4194   -0.0347 N.pl3     1 <0>        -0.3530
     13 N2          1.2180   -2.3457   -0.0237 N.2       1 <0>        -0.2676
     14 C11         3.5114   -3.3231   -0.0440 C.ar      1 <0>         0.3314
     15 C12         4.1303   -2.1778   -0.5417 C.ar      1 <0>        -0.0962
     16 C13         5.5155   -2.1307   -0.5286 C.ar      1 <0>        -0.0777
     17 C14         6.2008   -3.2269   -0.0207 C.ar      1 <0>         0.0953
     18 N3          5.5320   -4.2709    0.4305 N.ar      1 <0>        -0.1941
     19 N4          4.2493   -4.3171    0.4251 N.ar      1 <0>        -0.2557
     20 Cl1         7.9364   -3.2235    0.0200 Cl        1 <0>         0.0074
     21 N5          1.9104   -5.8663   -0.0562 N.pl3     1 <0>        -0.8419
     22 H1          1.0053    1.8021    0.0021 H         1 <0>         0.1004
     23 H2         -0.5445    1.7859   -0.8732 H         1 <0>         0.0556
     24 H3         -0.5275    1.7763    0.9067 H         1 <0>         0.0554
     25 H4         -2.3334    1.1784    0.0204 H         1 <0>         0.1321
     26 H5         -4.5083    0.0313    0.0363 H         1 <0>         0.1282
     27 H6         -4.6140   -2.4258    0.0340 H         1 <0>         0.1304
     28 H7         -2.5443   -3.7531    0.0177 H         1 <0>         0.1366
     29 H8         -0.7555   -4.9235   -0.0276 H         1 <0>         0.1579
     30 H9          3.5487   -1.3529   -0.9260 H         1 <0>         0.1734
     31 H10         6.0461   -1.2675   -0.9026 H         1 <0>         0.1717
     32 H11         1.3102   -6.6283   -0.0591 H         1 <0>         0.4181
     33 H12         2.8704   -6.0050   -0.0642 H         1 <0>         0.4119
@<TRIPOS>BOND
     1    1    2 1
     2    1   22 1
     3    1   23 1
     4    1   24 1
     5    2    3 1
     6    3    8 ar
     7    3    4 ar
     8    4    5 ar
     9    4   25 1
    10    5    6 ar
    11    5   26 1
    12    6    7 ar
    13    6   27 1
    14    7    8 ar
    15    7   28 1
    16    8    9 1
    17    9   13 2
    18    9   10 1
    19   10   11 2
    20   10   29 1
    21   11   12 1
    22   11   21 1
    23   12   13 1
    24   12   14 1
    25   14   19 ar
    26   14   15 ar
    27   15   16 ar
    28   15   30 1
    29   16   17 ar
    30   16   31 1
    31   17   18 ar
    32   17   20 1
    33   18   19 ar
    34   21   32 1
    35   21   33 1
@<TRIPOS>MOLECULE
ZINC42014705
   33    35     0     0     0
SMALL
USER_CHARGES

@<TRIPOS>ATOM
      1 C1         -0.2668    1.5137   -0.1428 C.3       1 <0>         0.0270
      2 O1         -0.2054    0.0881   -0.2195 O.3       1 <0>        -0.3165
      3 C2         -1.3676   -0.5913   -0.0261 C.ar      1 <0>         0.0730
      4 C3         -2.5427    0.1048    0.2265 C.ar      1 <0>        -0.1229
      5 C4         -3.7275   -0.5762    0.4247 C.ar      1 <0>        -0.1586
      6 C5         -3.7509   -1.9627    0.3724 C.ar      1 <0>         0.2427
      7 C6         -2.5685   -2.6700    0.1174 C.ar      1 <0>        -0.1012
      8 C7         -1.3770   -1.9733   -0.0871 C.ar      1 <0>        -0.0657
      9 C8         -2.5843   -4.1466    0.0605 C.2       1 <0>         0.3149
     10 N1         -3.4140   -4.8965   -0.6363 N.2       1 <0>        -0.3200
     11 N2         -3.1513   -6.1409   -0.4610 N.2       1 <0>        -0.0303
     12 N3         -2.1551   -6.2851    0.3437 N.2       1 <0>        -0.0683
     13 N4         -1.7385   -4.9946    0.7149 N.pl3     1 <0>        -0.3310
     14 C9         -0.6847   -4.6530    1.5731 C.ar      1 <0>         0.1363
     15 C10        -0.8504   -3.6412    2.5098 C.ar      1 <0>        -0.0956
     16 C11         0.1896   -3.3062    3.3545 C.ar      1 <0>        -0.0846
     17 C12         1.3959   -3.9768    3.2684 C.ar      1 <0>        -0.0913
     18 C13         1.5648   -4.9853    2.3360 C.ar      1 <0>        -0.0217
     19 C14         0.5249   -5.3292    1.4923 C.ar      1 <0>        -0.0883
     20 Cl1         3.0809   -5.8243    2.2308 Cl        1 <0>        -0.0467
     21 N5         -4.9482   -2.6504    0.5736 N.pl3     1 <0>        -0.8629
     22 H1          0.7257    1.9299   -0.3154 H         1 <0>         0.1011
     23 H2         -0.9549    1.8890   -0.9002 H         1 <0>         0.0556
     24 H3         -0.6179    1.8096    0.8457 H         1 <0>         0.0555
     25 H4         -2.5296    1.1839    0.2686 H         1 <0>         0.1378
     26 H5         -4.6376   -0.0288    0.6210 H         1 <0>         0.1377
     27 H6         -0.4629   -2.5121   -0.2884 H         1 <0>         0.1320
     28 H7         -1.7918   -3.1163    2.5774 H         1 <0>         0.1395
     29 H8          0.0607   -2.5194    4.0829 H         1 <0>         0.1496
     30 H9          2.2077   -3.7128    3.9299 H         1 <0>         0.1470
     31 H10         0.6550   -6.1197    0.7681 H         1 <0>         0.1474
     32 H11        -5.7658   -2.1594    0.7503 H         1 <0>         0.4046
     33 H12        -4.9629   -3.6196    0.5367 H         1 <0>         0.4037
@<TRIPOS>BOND
     1    1    2 1
     2    1   22 1
     3    1   23 1
     4    1   24 1
     5    2    3 1
     6    3    8 ar
     7    3    4 ar
     8    4    5 ar
     9    4   25 1
    10    5    6 ar
    11    5   26 1
    12    6    7 ar
    13    6   21 1
    14    7    8 ar
    15    7    9 1
    16    8   27 1
    17    9   13 1
    18    9   10 2
    19   10   11 1
    20   11   12 2
    21   12   13 1
    22   13   14 1
    23   14   19 ar
    24   14   15 ar
    25   15   16 ar
    26   15   28 1
    27   16   17 ar
    28   16   29 1
    29   17   18 ar
    30   17   30 1
    31   18   19 ar
    32   18   20 1
    33   19   31 1
    34   21   32 1
    35   21   33 1
@<TRIPOS>MOLECULE
ZINC49094881
   41    42     0     0     0
SMALL
USER_CHARGES

@<TRIPOS>ATOM
      1 C1         -0.0441    1.9258   -0.9211 C.3       1 <0>        -0.1517
      2 C2          0.0978    0.4294   -0.6353 C.3       1 <0>        -0.1206
      3 C3         -1.2762   -0.1603   -0.3106 C.3       1 <0>        -0.0990
      4 H1         -1.9686    0.0635   -1.1220 H         1 <0>         0.0900
      5 C4         -1.7996    0.4523    0.9901 C.3       1 <0>        -0.1499
      6 C5         -1.1547   -1.6767   -0.1474 C.3       1 <0>         0.1426
      7 H2         -0.4622   -1.9005    0.6641 H         1 <0>         0.1193
      8 C6         -2.5286   -2.2664    0.1774 C.3       1 <0>        -0.1700
      9 N1         -0.6535   -2.2633   -1.3928 N.pl3     1 <0>        -0.3629
     10 C7          0.3929   -3.1135   -1.5402 C.2       1 <0>         0.2934
     11 N2          0.4896   -3.3871   -2.8246 N.2       1 <0>        -0.3248
     12 N3         -0.4209   -2.7683   -3.4857 N.2       1 <0>        -0.0423
     13 N4         -1.1576   -2.0705   -2.6909 N.2       1 <0>        -0.0794
     14 C8          1.2616   -3.6346   -0.4621 C.ar      1 <0>        -0.0246
     15 C9          0.7457   -3.8257    0.8201 C.ar      1 <0>        -0.1186
     16 C10         1.5560   -4.3117    1.8255 C.ar      1 <0>        -0.1597
     17 C11         2.8845   -4.6117    1.5656 C.ar      1 <0>         0.0783
     18 C12         3.4069   -4.4237    0.2863 C.ar      1 <0>         0.2002
     19 C13         2.5967   -3.9413   -0.7271 C.ar      1 <0>        -0.1156
     20 N5          4.7484   -4.7271    0.0260 N.pl3     1 <0>        -0.8686
     21 O1          3.6793   -5.0895    2.5596 O.3       1 <0>        -0.3173
     22 C14         3.0794   -5.2573    3.8457 C.3       1 <0>         0.0280
     23 H3          0.9347    2.3459   -1.1525 H         1 <0>         0.0556
     24 H4         -0.7121    2.0719   -1.7700 H         1 <0>         0.0561
     25 H5         -0.4560    2.4256   -0.0444 H         1 <0>         0.0598
     26 H6          0.5097   -0.0704   -1.5120 H         1 <0>         0.0552
     27 H7          0.7657    0.2834    0.2135 H         1 <0>         0.0648
     28 H8         -1.8862    1.5326    0.8738 H         1 <0>         0.0697
     29 H9         -2.7784    0.0322    1.2214 H         1 <0>         0.0643
     30 H10        -1.1071    0.2285    1.8015 H         1 <0>         0.0601
     31 H11        -2.4420   -3.3467    0.2936 H         1 <0>         0.0654
     32 H12        -2.9015   -1.8300    1.1040 H         1 <0>         0.0906
     33 H13        -3.2210   -2.0427   -0.6341 H         1 <0>         0.0756
     34 H14        -0.2886   -3.5927    1.0259 H         1 <0>         0.1287
     35 H15         1.1546   -4.4585    2.8173 H         1 <0>         0.1386
     36 H16         2.9980   -3.7988   -1.7196 H         1 <0>         0.1431
     37 H17         5.3150   -5.0682    0.7356 H         1 <0>         0.4064
     38 H18         5.1115   -4.5962   -0.8639 H         1 <0>         0.4025
     39 H19         3.8210   -5.6439    4.5448 H         1 <0>         0.1022
     40 H20         2.7100   -4.2960    4.2026 H         1 <0>         0.0571
     41 H21         2.2497   -5.9603    3.7707 H         1 <0>         0.0574
@<TRIPOS>BOND
     1    1    2 1
     2    1   23 1
     3    1   24 1
     4    1   25 1
     5    2    3 1
     6    2   26 1
     7    2   27 1
     8    3    4 1
     9    3    5 1
    10    3    6 1
    11    5   28 1
    12    5   29 1
    13    5   30 1
    14    6    7 1
    15    6    8 1
    16    6    9 1
    17    8   31 1
    18    8   32 1
    19    8   33 1
    20    9   13 1
    21    9   10 1
    22   10   11 2
    23   10   14 1
    24   11   12 1
    25   12   13 2
    26   14   19 ar
    27   14   15 ar
    28   15   16 ar
    29   15   34 1
    30   16   17 ar
    31   16   35 1
    32   17   18 ar
    33   17   21 1
    34   18   19 ar
    35   18   20 1
    36   19   36 1
    37   20   37 1
    38   20   38 1
    39   21   22 1
    40   22   39 1
    41   22   40 1
    42   22   41 1
@<TRIPOS>MOLECULE
ZINC09447957
   44    47     0     0     0
SMALL
USER_CHARGES
2-phenyl-2-phenylsulfanyl-N-[3-(1H-tetrazol-5-yl)phenyl]-acetamide
@<TRIPOS>ATOM
      1 C1          2.0874    3.4717    4.0770 C.ar      1 <0>        -0.1100
      2 C2          1.9578    4.3439    3.0124 C.ar      1 <0>        -0.1185
      3 C3          1.6952    3.8550    1.7464 C.ar      1 <0>        -0.1086
      4 C4          1.5631    2.4938    1.5448 C.ar      1 <0>        -0.0902
      5 C5          1.6879    1.6220    2.6102 C.ar      1 <0>        -0.0852
      6 C6          1.9548    2.1106    3.8755 C.ar      1 <0>        -0.1146
      7 C7          1.2768    1.9608    0.1645 C.3       1 <0>        -0.0720
      8 H1          1.2085    2.7909   -0.5386 H         1 <0>         0.1198
      9 C8         -0.0271    1.2055    0.1782 C.2       1 <0>         0.5348
     10 O1         -0.0293    0.0019    0.3284 O.2       1 <0>        -0.4797
     11 N1         -1.1906    1.8666    0.0178 N.am      1 <0>        -0.6612
     12 C9         -2.3912    1.1551   -0.0860 C.ar      1 <0>         0.1333
     13 C10        -3.5645    1.6928    0.4295 C.ar      1 <0>        -0.1544
     14 C11        -4.7533    0.9959    0.3249 C.ar      1 <0>        -0.1051
     15 C12        -4.7809   -0.2434   -0.2827 C.ar      1 <0>        -0.1113
     16 C13        -3.6074   -0.7937   -0.7983 C.ar      1 <0>         0.0618
     17 C14        -2.4092   -0.0886   -0.6978 C.ar      1 <0>        -0.0964
     18 C15        -3.6346   -2.1222   -1.4507 C.2       1 <0>         0.1246
     19 N2         -4.2439   -4.0587   -2.2835 N.2       1 <0>        -0.2080
     20 N3         -2.9789   -3.8870   -2.4610 N.2       1 <0>        -0.1569
     21 N4         -2.6097   -2.7538   -1.9828 N.2       1 <0>        -0.3936
     22 S1          2.6156    0.8470   -0.3431 S.3       1 <0>        -0.0167
     23 C16         4.0258    1.8976   -0.4527 C.ar      1 <0>        -0.0949
     24 C17         3.9074    3.2538   -0.1733 C.ar      1 <0>        -0.1403
     25 C18         5.0157    4.0733   -0.2555 C.ar      1 <0>        -0.1012
     26 C19         6.2405    3.5477   -0.6251 C.ar      1 <0>        -0.1291
     27 C20         6.3610    2.1995   -0.9090 C.ar      1 <0>        -0.1017
     28 C21         5.2580    1.3732   -0.8242 C.ar      1 <0>        -0.0995
     29 H2          2.2925    3.8537    5.0662 H         1 <0>         0.1235
     30 H3          2.0613    5.4074    3.1699 H         1 <0>         0.1251
     31 H4          1.5936    4.5365    0.9147 H         1 <0>         0.1251
     32 H5          1.5803    0.5588    2.4535 H         1 <0>         0.1342
     33 H6          2.0564    1.4291    4.7072 H         1 <0>         0.1265
     34 H7         -1.1958    2.8356   -0.0256 H         1 <0>         0.4077
     35 H8         -3.5479    2.6600    0.9098 H         1 <0>         0.1190
     36 H9         -5.6628    1.4202    0.7239 H         1 <0>         0.1244
     37 H10        -5.7112   -0.7867   -0.3591 H         1 <0>         0.1307
     38 H11        -1.4976   -0.5102   -1.0950 H         1 <0>         0.1439
     39 H12         2.9504    3.6657    0.1114 H         1 <0>         0.1311
     40 H13         4.9253    5.1266   -0.0349 H         1 <0>         0.1221
     41 H14         7.1048    4.1918   -0.6926 H         1 <0>         0.1218
     42 H15         7.3188    1.7927   -1.1976 H         1 <0>         0.1262
     43 H16         5.3527    0.3206   -1.0467 H         1 <0>         0.1279
     44 N5         -4.6952   -2.9212   -1.6264 N.2       1 <0>        -0.4141
@<TRIPOS>BOND
     1    1    6 ar
     2    1    2 ar
     3    1   29 1
     4    2    3 ar
     5    2   30 1
     6    3    4 ar
     7    3   31 1
     8    4    5 ar
     9    4    7 1
    10    5    6 ar
    11    5   32 1
    12    6   33 1
    13    7    8 1
    14    7    9 1
    15    7   22 1
    16    9   10 2
    17    9   11 am
    18   11   12 1
    19   11   34 1
    20   12   17 ar
    21   12   13 ar
    22   13   14 ar
    23   13   35 1
    24   14   15 ar
    25   14   36 1
    26   15   16 ar
    27   15   37 1
    28   16   17 ar
    29   16   18 1
    30   17   38 1
    31   18   21 2
    32   18   44 1
    33   19   20 2
    34   19   44 1
    35   20   21 1
    36   22   23 1
    37   23   28 ar
    38   23   24 ar
    39   24   25 ar
    40   24   39 1
    41   25   26 ar
    42   25   40 1
    43   26   27 ar
    44   26   41 1
    45   27   28 ar
    46   27   42 1
    47   28   43 1
@<TRIPOS>MOLECULE
ZINC32609995
   44    46     0     0     0
SMALL
USER_CHARGES
(1S,2S)-2-[[4-chloro-1-[(2-chlorophenyl)methyl]pyrazol-3-yl]carbamoyl]cyclohexanecarboxylic acid
@<TRIPOS>ATOM
      1 C1         -2.7361   -0.9217    3.4442 C.ar      1 <0>        -0.1273
      2 C2         -3.6633    0.0984    3.3383 C.ar      1 <0>        -0.0941
      3 C3         -3.7849    0.8019    2.1550 C.ar      1 <0>        -0.1114
      4 C4         -2.9781    0.4854    1.0763 C.ar      1 <0>         0.0093
      5 C5         -2.0503   -0.5351    1.1830 C.ar      1 <0>        -0.1139
      6 C6         -1.9333   -1.2415    2.3655 C.ar      1 <0>        -0.0909
      7 C7         -1.1716   -0.8807    0.0085 C.3       1 <0>         0.1808
      8 N1          0.0021   -0.0041    0.0020 N.pl3     1 <0>        -0.3653
      9 C8          1.2919   -0.4050   -0.0125 C.2       1 <0>         0.0797
     10 C9          2.0700    0.7017   -0.0139 C.2       1 <0>        -0.2077
     11 C10         1.2240    1.8230    0.0002 C.2       1 <0>         0.3232
     12 N2         -0.0169    1.3965    0.0097 N.2       1 <0>        -0.2378
     13 N3          1.6339    3.1636    0.0027 N.am      1 <0>        -0.6598
     14 C11         0.7148    4.1492    0.0166 C.2       1 <0>         0.5203
     15 O1         -0.4670    3.8764    0.0267 O.2       1 <0>        -0.4518
     16 C12         1.1554    5.5904    0.0193 C.3       1 <0>        -0.0751
     17 H1          1.7653    5.7702    0.9169 H         1 <0>         0.0949
     18 C13         1.9821    5.8733   -1.2367 C.3       1 <0>        -0.1112
     19 C14         2.4294    7.3365   -1.2338 C.3       1 <0>        -0.1145
     20 C15         1.1992    8.2459   -1.2174 C.3       1 <0>        -0.1205
     21 C16         0.3725    7.9629    0.0386 C.3       1 <0>        -0.0969
     22 C17        -0.0748    6.4998    0.0358 C.3       1 <0>        -0.1100
     23 H2         -0.6986    6.3011   -0.8482 H         1 <0>         0.0723
     24 C18        -0.8890    6.2211    1.2729 C.2       1 <0>         0.4784
     25 O2         -0.5229    5.3812    2.0606 O.co2     1 <0>        -0.6329
     26 O3         -2.0210    6.9058    1.4997 O.co2     1 <0>        -0.7791
     27 Cl1         3.8056    0.7309   -0.0298 Cl        1 <0>        -0.0507
     28 Cl2        -3.1306    1.3683   -0.4107 Cl        1 <0>        -0.0378
     29 H3         -2.6415   -1.4712    4.3692 H         1 <0>         0.1274
     30 H4         -4.2930    0.3454    4.1803 H         1 <0>         0.1314
     31 H5         -4.5096    1.5983    2.0721 H         1 <0>         0.1362
     32 H6         -1.2121   -2.0412    2.4475 H         1 <0>         0.1277
     33 H7         -0.8463   -1.9284    0.0897 H         1 <0>         0.1087
     34 H8         -1.7368   -0.7436   -0.9252 H         1 <0>         0.0994
     35 H9          1.6401   -1.4273   -0.0207 H         1 <0>         0.1795
     36 H10         2.7057    3.4111   -0.0067 H         1 <0>         0.4326
     37 H11         2.8666    5.2194   -1.2484 H         1 <0>         0.0600
     38 H12         1.3703    5.6786   -2.1299 H         1 <0>         0.0641
     39 H13         3.0411    7.5311   -0.3406 H         1 <0>         0.0625
     40 H14         3.0238    7.5400   -2.1367 H         1 <0>         0.0586
     41 H15         1.5209    9.2978   -1.2154 H         1 <0>         0.0568
     42 H16         0.5874    8.0513   -2.1106 H         1 <0>         0.0589
     43 H17         0.9843    8.1576    0.9318 H         1 <0>         0.0544
     44 H18        -0.5120    8.6167    0.0504 H         1 <0>         0.0713
@<TRIPOS>BOND
     1    1    6 ar
     2    1    2 ar
     3    1   29 1
     4    2    3 ar
     5    2   30 1
     6    3    4 ar
     7    3   31 1
     8    4    5 ar
     9    4   28 1
    10    5    6 ar
    11    5    7 1
    12    6   32 1
    13    7    8 1
    14    7   33 1
    15    7   34 1
    16    8   12 1
    17    8    9 1
    18    9   10 2
    19    9   35 1
    20   10   11 1
    21   10   27 1
    22   11   12 2
    23   11   13 1
    24   13   14 am
    25   13   36 1
    26   14   15 2
    27   14   16 1
    28   16   17 1
    29   16   22 1
    30   16   18 1
    31   18   19 1
    32   18   37 1
    33   18   38 1
    34   19   20 1
    35   19   39 1
    36   19   40 1
    37   20   21 1
    38   20   41 1
    39   20   42 1
    40   21   22 1
    41   21   43 1
    42   21   44 1
    43   22   23 1
    44   22   24 1
    45   24   25 2
    46   24   26 1
@<TRIPOS>MOLECULE
ZINC13355585
   46    49     0     0     0
SMALL
USER_CHARGES

@<TRIPOS>ATOM
      1 C1         -0.0454    1.5184    0.0178 C.3       1 <0>        -0.1471
      2 C2         -0.0145   -0.0113    0.0085 C.3       1 <0>        -0.0877
      3 H1         -1.0336   -0.3978    0.0212 H         1 <0>         0.0790
      4 C3          0.7061   -0.5031   -1.2502 C.3       1 <0>        -0.1142
      5 C4          0.5262   -2.0144   -1.3934 C.3       1 <0>        -0.0690
      6 C5          0.9505   -2.6889   -0.0913 C.2       1 <0>        -0.0845
      7 C6          1.0336   -1.9771    1.0557 C.2       1 <0>        -0.1374
      8 S1          1.5526   -3.1410    2.2919 S.3       1 <0>         0.1150
      9 C7          1.6587   -4.5772    1.2739 C.ar      1 <0>         0.1169
     10 C8          1.2830   -4.1012   -0.0078 C.ar      1 <0>        -0.1697
     11 C9          1.2722   -5.0521   -1.0693 C.ar      1 <0>         0.1943
     12 N1          1.6196   -6.2953   -0.7383 N.ar      1 <0>        -0.5458
     13 C10         1.9582   -6.6652    0.4801 C.ar      1 <0>         0.3229
     14 N2          1.9888   -5.8308    1.5128 N.ar      1 <0>        -0.4683
     15 S2          0.8281   -4.6113   -2.7165 S.3       1 <0>         0.0849
     16 C11         0.9800   -6.1639   -3.6423 C.3       1 <0>        -0.1657
     17 C12         0.6233   -5.9243   -5.0867 C.2       1 <0>         0.5275
     18 O1          0.2986   -4.8155   -5.4553 O.2       1 <0>        -0.5041
     19 N3          0.6652   -6.9423   -5.9690 N.am      1 <0>        -0.6574
     20 C13         0.2440   -6.7439   -7.2822 C.ar      1 <0>         0.1167
     21 C14         0.4771   -5.5231   -7.9089 C.ar      1 <0>        -0.1311
     22 C15         0.0642   -5.3240   -9.2012 C.ar      1 <0>        -0.0707
     23 C16        -0.5919   -6.3500   -9.8900 C.ar      1 <0>        -0.1384
     24 C17        -0.8239   -7.5759   -9.2566 C.ar      1 <0>        -0.0708
     25 C18        -0.4036   -7.7689   -7.9658 C.ar      1 <0>        -0.1552
     26 C19        -1.0374   -6.1402  -11.2775 C.2       1 <0>         0.5190
     27 O2         -0.8341   -5.0676  -11.8297 O.co2     1 <0>        -0.6867
     28 O3         -1.6109   -7.0384  -11.8783 O.co2     1 <0>        -0.6884
     29 C20         0.7442   -0.5187    1.2430 C.3       1 <0>        -0.0360
     30 H2          0.9746    1.9025    0.0051 H         1 <0>         0.0574
     31 H3         -0.5794    1.8763   -0.8625 H         1 <0>         0.0613
     32 H4         -0.5535    1.8661    0.9173 H         1 <0>         0.0572
     33 H5          0.2889   -0.0041   -2.1248 H         1 <0>         0.0778
     34 H6          1.7682   -0.2704   -1.1739 H         1 <0>         0.0684
     35 H7         -0.5207   -2.2397   -1.5969 H         1 <0>         0.0889
     36 H8          1.1458   -2.3797   -2.2124 H         1 <0>         0.0896
     37 H9          2.2238   -7.6986    0.6474 H         1 <0>         0.2051
     38 H10         2.0056   -6.5271   -3.5768 H         1 <0>         0.1258
     39 H11         0.3037   -6.9068   -3.2194 H         1 <0>         0.1262
     40 H12         0.9885   -7.8132   -5.6897 H         1 <0>         0.4090
     41 H13         0.9836   -4.7317   -7.3765 H         1 <0>         0.1309
     42 H14         0.2448   -4.3762   -9.6866 H         1 <0>         0.1303
     43 H15        -1.3303   -8.3702   -9.7849 H         1 <0>         0.1311
     44 H16        -0.5787   -8.7162   -7.4776 H         1 <0>         0.1174
     45 H17         1.6813    0.0281    1.3472 H         1 <0>         0.0892
     46 H18         0.1322   -0.3752    2.1335 H         1 <0>         0.0864
@<TRIPOS>BOND
     1    1    2 1
     2    1   30 1
     3    1   31 1
     4    1   32 1
     5    2    3 1
     6    2   29 1
     7    2    4 1
     8    4    5 1
     9    4   33 1
    10    4   34 1
    11    5    6 1
    12    5   35 1
    13    5   36 1
    14    6   10 1
    15    6    7 2
    16    7    8 1
    17    7   29 1
    18    8    9 1
    19    9   14 ar
    20    9   10 ar
    21   10   11 ar
    22   11   12 ar
    23   11   15 1
    24   12   13 ar
    25   13   14 ar
    26   13   37 1
    27   15   16 1
    28   16   17 1
    29   16   38 1
    30   16   39 1
    31   17   18 2
    32   17   19 am
    33   19   20 1
    34   19   40 1
    35   20   25 ar
    36   20   21 ar
    37   21   22 ar
    38   21   41 1
    39   22   23 ar
    40   22   42 1
    41   23   24 ar
    42   23   26 1
    43   24   25 ar
    44   24   43 1
    45   25   44 1
    46   26   27 2
    47   26   28 1
    48   29   45 1
    49   29   46 1
@<TRIPOS>MOLECULE
ZINC54360543
   45    47     0     0     0
SMALL
USER_CHARGES

@<TRIPOS>ATOM
      1 C1         -0.0189    1.5026    0.0416 C.3       1 <0>        -0.1175
      2 C2          0.0017   -0.0041    0.0246 C.ar      1 <0>        -0.0603
      3 C3         -0.0007   -0.6794   -1.1830 C.ar      1 <0>        -0.1296
      4 C4          0.0180   -2.0586   -1.2057 C.ar      1 <0>        -0.0361
      5 C5          0.0394   -2.7729   -0.0066 C.ar      1 <0>        -0.1380
      6 C6          0.0417   -2.0855    1.2083 C.ar      1 <0>        -0.0388
      7 C7          0.0285   -0.7060    1.2167 C.ar      1 <0>        -0.1300
      8 C8          0.0643   -2.8484    2.5077 C.3       1 <0>        -0.1244
      9 C9          0.0591   -4.2509   -0.0232 C.2       1 <0>         0.5683
     10 O1          1.1198   -4.8445   -0.0404 O.2       1 <0>        -0.5018
     11 N1         -1.0990   -4.9403   -0.0193 N.am      1 <0>        -0.6684
     12 C10        -1.0834   -6.3341   -0.1325 C.ar      1 <0>         0.1757
     13 C11        -2.0900   -6.9868   -0.8324 C.ar      1 <0>        -0.1672
     14 C12        -2.0713   -8.3633   -0.9427 C.ar      1 <0>        -0.0035
     15 C13        -1.0522   -9.0917   -0.3570 C.ar      1 <0>        -0.6356
     16 C14        -0.0487   -8.4450    0.3409 C.ar      1 <0>        -0.0034
     17 C15        -0.0581   -7.0682    0.4497 C.ar      1 <0>        -0.1446
     18 S1         -1.0325  -10.8478   -0.4996 S.o2      1 <0>         2.6373
     19 O2         -0.2724  -11.3359    0.5973 O.2       1 <0>        -1.0105
     20 O3         -2.3744  -11.2512   -0.7361 O.2       1 <0>        -1.0113
     21 N2         -0.1786  -11.2183   -1.8693 N.2       1 <0>        -1.0308
     22 C16         0.0012  -12.5426   -2.2370 C.2       1 <0>         0.4018
     23 N3         -0.4343  -13.6262   -1.6302 N.2       1 <0>        -0.6662
     24 C17        -0.1757  -14.8287   -2.1133 C.2       1 <0>         0.1003
     25 C18         0.5531  -14.8909   -3.2534 C.2       1 <0>        -0.3467
     26 S2          0.8233  -13.1550   -3.5717 S.3       1 <0>         0.0098
     27 C19         0.0149   -2.7924   -2.5219 C.3       1 <0>        -0.1250
     28 H1          1.0036    1.8801    0.0309 H         1 <0>         0.0738
     29 H2         -0.5505    1.8687   -0.8368 H         1 <0>         0.0687
     30 H3         -0.5246    1.8490    0.9429 H         1 <0>         0.0685
     31 H4         -0.0176   -0.1255   -2.1100 H         1 <0>         0.1287
     32 H5          0.0347   -0.1728    2.1559 H         1 <0>         0.1283
     33 H6          1.0973   -3.0185    2.8112 H         1 <0>         0.0799
     34 H7         -0.4501   -2.2719    3.2765 H         1 <0>         0.0747
     35 H8         -0.4380   -3.8067    2.3752 H         1 <0>         0.0666
     36 H9         -1.9433   -4.4697    0.0620 H         1 <0>         0.4125
     37 H10        -2.8866   -6.4186   -1.2895 H         1 <0>         0.1305
     38 H11        -2.8538   -8.8715   -1.4868 H         1 <0>         0.1422
     39 H12         0.7456   -9.0167    0.7975 H         1 <0>         0.1414
     40 H13         0.7283   -6.5633    0.9911 H         1 <0>         0.1425
     41 H14        -0.5295  -15.7223   -1.6206 H         1 <0>         0.1455
     42 H15         0.8780  -15.7531   -3.8168 H         1 <0>         0.1704
     43 H16         1.0417   -2.9552   -2.8496 H         1 <0>         0.0802
     44 H17        -0.4846   -3.7536   -2.4008 H         1 <0>         0.0676
     45 H18        -0.5146   -2.1992   -3.2674 H         1 <0>         0.0749
@<TRIPOS>BOND
     1    1    2 1
     2    1   28 1
     3    1   29 1
     4    1   30 1
     5    2    7 ar
     6    2    3 ar
     7    3    4 ar
     8    3   31 1
     9    4    5 ar
    10    4   27 1
    11    5    6 ar
    12    5    9 1
    13    6    7 ar
    14    6    8 1
    15    7   32 1
    16    8   33 1
    17    8   34 1
    18    8   35 1
    19    9   10 2
    20    9   11 am
    21   11   12 1
    22   11   36 1
    23   12   17 ar
    24   12   13 ar
    25   13   14 ar
    26   13   37 1
    27   14   15 ar
    28   14   38 1
    29   15   16 ar
    30   15   18 1
    31   16   17 ar
    32   16   39 1
    33   17   40 1
    34   18   19 2
    35   18   20 2
    36   18   21 1
    37   21   22 1
    38   22   26 1
    39   22   23 2
    40   23   24 1
    41   24   25 2
    42   24   41 1
    43   25   26 1
    44   25   42 1
    45   27   43 1
    46   27   44 1
    47   27   45 1
@<TRIPOS>MOLECULE
ZINC08687860
   49    51     0     0     0
SMALL
USER_CHARGES

@<TRIPOS>ATOM
      1 C1         -0.5025    1.3676    0.5340 C.3       1 <0>         0.0278
      2 O1         -0.3194   -0.0386    0.3572 O.3       1 <0>        -0.3106
      3 C2         -1.4140   -0.7641    0.0039 C.ar      1 <0>         0.1484
      4 C3         -2.6356   -0.1357   -0.1743 C.ar      1 <0>        -0.2240
      5 C4         -3.7477   -0.8747   -0.5331 C.ar      1 <0>        -0.0033
      6 C5         -3.6449   -2.2415   -0.7155 C.ar      1 <0>        -0.7027
      7 C6         -2.4297   -2.8760   -0.5401 C.ar      1 <0>         0.0599
      8 C7         -1.3083   -2.1402   -0.1853 C.ar      1 <0>         0.1313
      9 N1         -0.0744   -2.7802   -0.0122 N.pl3     1 <0>        -0.6516
     10 C8         -0.0081   -3.9724    0.6680 C.2       1 <0>         0.5473
     11 N2          1.1288   -4.6279    0.7358 N.2       1 <0>        -0.6312
     12 C9          1.1948   -5.8157    1.4136 C.ar      1 <0>         0.1653
     13 C10         0.5938   -5.9420    2.6677 C.ar      1 <0>        -0.0953
     14 C11         0.6642   -7.1416    3.3451 C.ar      1 <0>        -0.1251
     15 C12         1.3288   -8.2181    2.7847 C.ar      1 <0>        -0.1576
     16 C13         1.9269   -8.0999    1.5426 C.ar      1 <0>        -0.1285
     17 C14         1.8585   -6.9082    0.8513 C.ar      1 <0>        -0.1393
     18 S1         -1.4476   -4.6221    1.4494 S.3       1 <0>        -0.8691
     19 S2         -5.0667   -3.1766   -1.1721 S.o2      1 <0>         2.6911
     20 O2         -4.8276   -4.5120   -0.7491 O.2       1 <0>        -0.9392
     21 O3         -6.1979   -2.4321   -0.7414 O.2       1 <0>        -0.9676
     22 N3         -5.1221   -3.2070   -2.8269 N.pl3     1 <0>        -0.9992
     23 C15        -5.8377   -2.1616   -3.5712 C.3       1 <0>         0.1211
     24 C16        -4.8858   -1.5544   -4.6067 C.3       1 <0>        -0.1367
     25 C17        -4.3132   -2.6704   -5.4835 C.3       1 <0>        -0.1150
     26 C18        -3.5204   -3.6488   -4.6139 C.3       1 <0>        -0.1377
     27 C19        -4.4516   -4.2764   -3.5788 C.3       1 <0>         0.1196
     28 H1          0.4464    1.8252    0.8138 H         1 <0>         0.0980
     29 H2         -0.8573    1.8078   -0.3979 H         1 <0>         0.0545
     30 H3         -1.2362    1.5424    1.3209 H         1 <0>         0.0560
     31 H4         -2.7194    0.9317   -0.0326 H         1 <0>         0.1320
     32 H5         -4.6995   -0.3831   -0.6708 H         1 <0>         0.1328
     33 H6         -2.3522   -3.9436   -0.6832 H         1 <0>         0.1635
     34 H7          0.0754   -5.1023    3.1065 H         1 <0>         0.1336
     35 H8          0.1999   -7.2406    4.3151 H         1 <0>         0.1038
     36 H9          1.3812   -9.1550    3.3195 H         1 <0>         0.1024
     37 H10         2.4446   -8.9440    1.1114 H         1 <0>         0.1054
     38 H11         2.3216   -6.8187   -0.1203 H         1 <0>         0.1066
     39 H12        -6.6985   -2.5980   -4.0778 H         1 <0>         0.0709
     40 H13        -6.1712   -1.3857   -2.8822 H         1 <0>         0.0883
     41 H14        -5.4307   -0.8453   -5.2299 H         1 <0>         0.0716
     42 H15        -4.0723   -1.0399   -4.0953 H         1 <0>         0.0689
     43 H16        -5.1289   -3.2004   -5.9754 H         1 <0>         0.0624
     44 H17        -3.6546   -2.2384   -6.2370 H         1 <0>         0.0616
     45 H18        -3.0934   -4.4304   -5.2424 H         1 <0>         0.0741
     46 H19        -2.7197   -3.1145   -4.1025 H         1 <0>         0.0693
     47 H20        -3.8710   -4.8953   -2.8948 H         1 <0>         0.0939
     48 H21        -5.1969   -4.8891   -4.0860 H         1 <0>         0.0714
     49 H22         0.7333   -2.3818   -0.3726 H         1 <0>         0.4010
@<TRIPOS>BOND
     1    1    2 1
     2    1   28 1
     3    1   29 1
     4    1   30 1
     5    2    3 1
     6    3    8 ar
     7    3    4 ar
     8    4    5 ar
     9    4   31 1
    10    5    6 ar
    11    5   32 1
    12    6    7 ar
    13    6   19 1
    14    7    8 ar
    15    7   33 1
    16    8    9 1
    17    9   10 1
    18    9   49 1
    19   10   11 2
    20   10   18 1
    21   11   12 1
    22   12   17 ar
    23   12   13 ar
    24   13   14 ar
    25   13   34 1
    26   14   15 ar
    27   14   35 1
    28   15   16 ar
    29   15   36 1
    30   16   17 ar
    31   16   37 1
    32   17   38 1
    33   19   20 2
    34   19   21 2
    35   19   22 1
    36   22   27 1
    37   22   23 1
    38   23   24 1
    39   23   39 1
    40   23   40 1
    41   24   25 1
    42   24   41 1
    43   24   42 1
    44   25   26 1
    45   25   43 1
    46   25   44 1
    47   26   27 1
    48   26   45 1
    49   26   46 1
    50   27   47 1
    51   27   48 1
@<TRIPOS>MOLECULE
ZINC01202654
   46    49     0     0     0
SMALL
USER_CHARGES

@<TRIPOS>ATOM
      1 C1          0.8941    0.7230    0.7400 C.3       1 <0>        -0.1435
      2 C2         -0.1323    0.0084   -0.1413 C.3       1 <0>        -0.0534
      3 C3         -1.2000    1.0069   -0.5930 C.3       1 <0>        -0.1440
      4 C4          0.5585   -0.5693   -1.3496 C.ar      1 <0>        -0.0832
      5 C5          1.2338    0.2639   -2.2224 C.ar      1 <0>        -0.1078
      6 C6          1.8680   -0.2625   -3.3307 C.ar      1 <0>        -0.0988
      7 C7          1.8269   -1.6299   -3.5680 C.ar      1 <0>         0.1547
      8 C8          1.1480   -2.4640   -2.6899 C.ar      1 <0>        -0.1000
      9 C9          0.5206   -1.9322   -1.5803 C.ar      1 <0>        -0.1105
     10 N1          2.4689   -2.1670   -4.6918 N.am      1 <0>        -0.5529
     11 C10         3.7314   -2.6319   -4.5765 C.2       1 <0>         0.5679
     12 O1          4.3210   -2.5926   -3.5123 O.2       1 <0>        -0.5274
     13 C11         4.3716   -3.1888   -5.7811 C.2       1 <0>        -0.2886
     14 C12         5.6706   -3.6896   -5.7488 C.2       1 <0>         0.1230
     15 C13         6.3272   -4.0211   -6.9489 C.2       1 <0>        -0.2216
     16 C14         6.3847   -3.2594   -8.1055 C.2       1 <0>         0.2192
     17 N2          7.1034   -3.9100   -9.0368 N.pl3     1 <0>        -0.5749
     18 H1          7.2817   -3.5737   -9.9290 H         1 <0>         0.4156
     19 C15         7.5539   -5.1221   -8.5511 C.ar      1 <0>         0.0734
     20 C16         7.1002   -5.2487   -7.2292 C.ar      1 <0>        -0.0540
     21 C17         7.4152   -6.3819   -6.4870 C.ar      1 <0>        -0.0870
     22 C18         8.1791   -7.3796   -7.0551 C.ar      1 <0>        -0.1387
     23 C19         8.6321   -7.2553   -8.3595 C.ar      1 <0>        -0.1209
     24 C20         8.3191   -6.1410   -9.1085 C.ar      1 <0>        -0.1188
     25 C21         3.5788   -3.1927   -7.0169 C.2       1 <0>         0.5031
     26 O2          4.0914   -3.6856   -8.1644 O.3       1 <0>        -0.6365
     27 N3          2.3501   -2.7024   -6.9804 N.2       1 <0>        -0.6665
     28 C22         1.8175   -2.2159   -5.8631 C.2       1 <0>         0.6691
     29 O3          0.6781   -1.7864   -5.9072 O.2       1 <0>        -0.5685
     30 H2          1.6547    0.0117    1.0618 H         1 <0>         0.0561
     31 H3          1.3644    1.5257    0.1720 H         1 <0>         0.0565
     32 H4          0.3944    1.1409    1.6139 H         1 <0>         0.0544
     33 H5         -0.6027   -0.7943    0.4267 H         1 <0>         0.0754
     34 H6         -0.7296    1.8096   -1.1610 H         1 <0>         0.0567
     35 H7         -1.9312    0.4977   -1.2208 H         1 <0>         0.0570
     36 H8         -1.6997    1.4247    0.2809 H         1 <0>         0.0543
     37 H9          1.2652    1.3275   -2.0374 H         1 <0>         0.1219
     38 H10         2.3950    0.3888   -4.0122 H         1 <0>         0.1196
     39 H11         1.1140   -3.5280   -2.8721 H         1 <0>         0.1196
     40 H12        -0.0039   -2.5810   -0.8944 H         1 <0>         0.1222
     41 H13         6.1743   -3.8237   -4.8029 H         1 <0>         0.1271
     42 H14         5.9228   -2.2923   -8.2383 H         1 <0>         0.1759
     43 H15         7.0637   -6.4798   -5.4705 H         1 <0>         0.1199
     44 H16         8.4256   -8.2609   -6.4817 H         1 <0>         0.1190
     45 H17         9.2300   -8.0420   -8.7953 H         1 <0>         0.1201
     46 H18         8.6782   -6.0537  -10.1233 H         1 <0>         0.1158
@<TRIPOS>BOND
     1    1    2 1
     2    1   30 1
     3    1   31 1
     4    1   32 1
     5    2    3 1
     6    2    4 1
     7    2   33 1
     8    3   34 1
     9    3   35 1
    10    3   36 1
    11    4    9 ar
    12    4    5 ar
    13    5    6 ar
    14    5   37 1
    15    6    7 ar
    16    6   38 1
    17    7    8 ar
    18    7   10 1
    19    8    9 ar
    20    8   39 1
    21    9   40 1
    22   10   28 am
    23   10   11 am
    24   11   12 2
    25   11   13 1
    26   13   14 2
    27   13   25 1
    28   14   15 1
    29   14   41 1
    30   15   20 1
    31   15   16 2
    32   16   17 1
    33   16   42 1
    34   17   18 1
    35   17   19 1
    36   19   24 ar
    37   19   20 ar
    38   20   21 ar
    39   21   22 ar
    40   21   43 1
    41   22   23 ar
    42   22   44 1
    43   23   24 ar
    44   23   45 1
    45   24   46 1
    46   25   26 1
    47   25   27 2
    48   27   28 1
    49   28   29 2
@<TRIPOS>MOLECULE
ZINC15774985
   41    42     0     0     0
SMALL
USER_CHARGES
(2S,3S,4S,5E)-5-[(4-methyl-2-quinolyl)hydrazono]pentane-1,2,3,4-tetrol
@<TRIPOS>ATOM
      1 C1          0.9369    5.2317    8.6776 C.3       1 <0>        -0.1217
      2 C2          1.6746    4.8009    7.4362 C.ar      1 <0>         0.0118
      3 C3          1.0899    3.9693    6.5291 C.ar      1 <0>        -0.2151
      4 C4          1.7973    3.5769    5.3837 C.ar      1 <0>         0.4357
      5 N1          3.0225    4.0025    5.1507 N.ar      1 <0>        -0.5082
      6 C5          3.6450    4.8247    6.0025 C.ar      1 <0>         0.1749
      7 C6          2.9854    5.2528    7.1806 C.ar      1 <0>        -0.1406
      8 C7          3.6447    6.1154    8.0698 C.ar      1 <0>        -0.0835
      9 C8          4.9109    6.5321    7.7899 C.ar      1 <0>        -0.1346
     10 C9          5.5616    6.1125    6.6320 C.ar      1 <0>        -0.0889
     11 C10         4.9517    5.2757    5.7482 C.ar      1 <0>        -0.1065
     12 N2          1.1911    2.7254    4.4719 N.pl3     1 <0>        -0.5696
     13 N3          1.8810    2.3277    3.3192 N.2       1 <0>        -0.1960
     14 C11         1.3215    1.5418    2.4776 C.2       1 <0>         0.0106
     15 C12         2.0636    1.1140    1.2377 C.3       1 <0>         0.1476
     16 H1          2.1644    0.0287    1.2309 H         1 <0>         0.1268
     17 C13         1.2864    1.5618   -0.0018 C.3       1 <0>         0.0527
     18 H2          1.1856    2.6471    0.0050 H         1 <0>         0.1140
     19 C14         2.0397    1.1274   -1.2607 C.3       1 <0>         0.0830
     20 H3          2.9933    1.6528   -1.3129 H         1 <0>         0.1219
     21 C15         1.2036    1.4640   -2.4970 C.3       1 <0>         0.0480
     22 O1          1.9547    1.1658   -3.6756 O.3       1 <0>        -0.5650
     23 O2          2.2741   -0.2815   -1.2132 O.3       1 <0>        -0.5407
     24 O3         -0.0110    0.9628    0.0073 O.3       1 <0>        -0.5489
     25 O4          3.3610    1.7129    1.2285 O.3       1 <0>        -0.5323
     26 H4          0.3809    6.1462    8.4710 H         1 <0>         0.0831
     27 H5          0.2446    4.4460    8.9799 H         1 <0>         0.0760
     28 H6          1.6517    5.4146    9.4800 H         1 <0>         0.0778
     29 H7          0.0851    3.6095    6.6941 H         1 <0>         0.1357
     30 H8          3.1508    6.4471    8.9711 H         1 <0>         0.1290
     31 H9          5.4171    7.1962    8.4748 H         1 <0>         0.1261
     32 H10         6.5656    6.4566    6.4320 H         1 <0>         0.1292
     33 H11         5.4701    4.9593    4.8552 H         1 <0>         0.1350
     34 H12         0.2896    2.4053    4.6323 H         1 <0>         0.3961
     35 H13         0.3178    1.1854    2.6562 H         1 <0>         0.1173
     36 H14         0.2889    0.8713   -2.4895 H         1 <0>         0.0555
     37 H15         0.9498    2.5240   -2.4864 H         1 <0>         0.0550
     38 H16         1.4853    1.3550   -4.4995 H         1 <0>         0.3816
     39 H17         1.4676   -0.8129   -1.1657 H         1 <0>         0.3676
     40 H18         0.0021   -0.0041    0.0020 H         1 <0>         0.3772
     41 H19         3.3479    2.6798    1.2338 H         1 <0>         0.3825
@<TRIPOS>BOND
     1    1    2 1
     2    1   26 1
     3    1   27 1
     4    1   28 1
     5    2    7 ar
     6    2    3 ar
     7    3    4 ar
     8    3   29 1
     9    4    5 ar
    10    4   12 1
    11    5    6 ar
    12    6   11 ar
    13    6    7 ar
    14    7    8 ar
    15    8    9 ar
    16    8   30 1
    17    9   10 ar
    18    9   31 1
    19   10   11 ar
    20   10   32 1
    21   11   33 1
    22   12   13 1
    23   12   34 1
    24   13   14 2
    25   14   15 1
    26   14   35 1
    27   15   16 1
    28   15   17 1
    29   15   25 1
    30   17   18 1
    31   17   19 1
    32   17   24 1
    33   19   20 1
    34   19   21 1
    35   19   23 1
    36   21   22 1
    37   21   36 1
    38   21   37 1
    39   22   38 1
    40   23   39 1
    41   24   40 1
    42   25   41 1
@<TRIPOS>MOLECULE
ZINC35339655
   41    42     0     0     0
SMALL
USER_CHARGES

@<TRIPOS>ATOM
      1 C1         -0.0178    1.4608    0.0101 C.3       1 <0>         0.0824
      2 N1          0.0021   -0.0041    0.0020 N.pl3     1 <0>        -1.1206
      3 S1          0.7421   -0.8289    1.2326 S.o2      1 <0>         2.6960
      4 O1          0.5703   -2.2120    0.9554 O.2       1 <0>        -0.9594
      5 O2          2.0239   -0.2396    1.4033 O.2       1 <0>        -0.9545
      6 C2         -0.1663   -0.4937    2.7047 C.ar      1 <0>        -0.6301
      7 C3          0.1741    0.5898    3.4930 C.ar      1 <0>        -0.0751
      8 C4         -0.5347    0.8584    4.6494 C.ar      1 <0>        -0.0973
      9 C5         -1.5907    0.0402    5.0211 C.ar      1 <0>         0.1462
     10 C6         -1.9344   -1.0526    4.2256 C.ar      1 <0>         0.1937
     11 C7         -1.2212   -1.3117    3.0650 C.ar      1 <0>        -0.0962
     12 N2         -2.9993   -1.8830    4.5955 N.pl3     1 <0>        -0.8710
     13 N3         -2.3096    0.3101    6.1920 N.pl3     1 <0>        -0.6761
     14 C8         -1.8938   -0.2702    7.4762 C.3       1 <0>         0.1418
     15 C9         -3.0887   -1.0004    8.0972 C.3       1 <0>        -0.1181
     16 C10        -4.2742   -0.0377    8.1969 C.3       1 <0>        -0.1052
     17 C11        -4.6707    0.4328    6.7956 C.3       1 <0>        -0.1292
     18 C12        -3.4904    1.1838    6.1608 C.3       1 <0>         0.1449
     19 C13        -5.4411   -0.7429    8.8387 C.2       1 <0>         0.5183
     20 O3         -5.3352   -1.9012    9.1824 O.2       1 <0>        -0.5404
     21 N4         -6.6025   -0.0865    9.0307 N.am      1 <0>        -0.8562
     22 H1          1.0048    1.8381    0.0023 H         1 <0>         0.0697
     23 H2         -0.5450    1.8219   -0.8730 H         1 <0>         0.0833
     24 H3         -0.5280    1.8123    0.9069 H         1 <0>         0.0612
     25 H4         -0.4183   -0.4908   -0.7241 H         1 <0>         0.4194
     26 H5          0.9963    1.2281    3.2049 H         1 <0>         0.1381
     27 H6         -0.2657    1.7053    5.2633 H         1 <0>         0.1322
     28 H7         -1.4873   -2.1547    2.4445 H         1 <0>         0.1379
     29 H8         -3.4992   -1.6986    5.4061 H         1 <0>         0.4010
     30 H9         -3.2372   -2.6426    4.0412 H         1 <0>         0.3990
     31 H10        -1.0795   -0.9759    7.3118 H         1 <0>         0.0751
     32 H11        -1.5625    0.5236    8.1457 H         1 <0>         0.0573
     33 H12        -3.3615   -1.8498    7.4709 H         1 <0>         0.0696
     34 H13        -2.8218   -1.3532    9.0934 H         1 <0>         0.0805
     35 H14        -3.9926    0.8235    8.8029 H         1 <0>         0.1010
     36 H15        -4.9286   -0.4301    6.1816 H         1 <0>         0.0682
     37 H16        -5.5297    1.1001    6.8654 H         1 <0>         0.0758
     38 H17        -3.2867    2.0937    6.7253 H         1 <0>         0.0589
     39 H18        -3.7299    1.4377    5.1282 H         1 <0>         0.0744
     40 H19        -6.6872    0.8399    8.7558 H         1 <0>         0.4012
     41 H20        -7.3536   -0.5405    9.4438 H         1 <0>         0.4021
@<TRIPOS>BOND
     1    1    2 1
     2    1   22 1
     3    1   23 1
     4    1   24 1
     5    2    3 1
     6    2   25 1
     7    3    4 2
     8    3    5 2
     9    3    6 1
    10    6   11 ar
    11    6    7 ar
    12    7    8 ar
    13    7   26 1
    14    8    9 ar
    15    8   27 1
    16    9   10 ar
    17    9   13 1
    18   10   11 ar
    19   10   12 1
    20   11   28 1
    21   12   29 1
    22   12   30 1
    23   13   18 1
    24   13   14 1
    25   14   15 1
    26   14   31 1
    27   14   32 1
    28   15   16 1
    29   15   33 1
    30   15   34 1
    31   16   17 1
    32   16   19 1
    33   16   35 1
    34   17   18 1
    35   17   36 1
    36   17   37 1
    37   18   38 1
    38   18   39 1
    39   19   20 2
    40   19   21 am
    41   21   40 1
    42   21   41 1
@<TRIPOS>MOLECULE
ZINC29351969
   42    42     0     0     0
SMALL
USER_CHARGES

@<TRIPOS>ATOM
      1 C1         -0.0187    1.5258    0.0104 C.3       1 <0>        -0.1436
      2 C2          0.0021   -0.0041    0.0020 C.3       1 <0>        -0.0991
      3 H1         -1.0205   -0.3814    0.0098 H         1 <0>         0.1102
      4 C3          0.7309   -0.5033    1.2229 C.2       1 <0>         0.5353
      5 O1          1.9109   -0.7754    1.1557 O.2       1 <0>        -0.5149
      6 N1          0.0715   -0.6474    2.3895 N.am      1 <0>        -0.7261
      7 C4          0.7801   -1.1327    3.5763 C.3       1 <0>         0.1167
      8 C5         -0.1910   -1.2038    4.7565 C.3       1 <0>        -0.1274
      9 C6          0.5490   -1.7106    5.9960 C.3       1 <0>        -0.0935
     10 C7         -0.3885   -1.6638    7.2043 C.3       1 <0>        -0.1482
     11 C8          1.0082   -3.1513    5.7623 C.3       1 <0>        -0.1539
     12 S1          0.8511   -0.5891   -1.4904 S.3       1 <0>        -0.1389
     13 C9         -0.2200   -0.0410   -2.8480 C.3       1 <0>        -0.0438
     14 C10         0.3780   -0.4685   -4.1636 C.ar      1 <0>         0.4500
     15 N2          1.2220    0.3292   -4.7940 N.ar      1 <0>        -0.6233
     16 C11         1.7526   -0.0450   -5.9561 C.ar      1 <0>         0.6338
     17 N3          1.4326   -1.2224   -6.4819 N.ar      1 <0>        -0.6541
     18 C12         0.5836   -2.0217   -5.8451 C.ar      1 <0>         0.6338
     19 N4          0.0611   -1.6425   -4.6810 N.ar      1 <0>        -0.6251
     20 N5          0.2481   -3.2455   -6.3871 N.pl3     1 <0>        -0.8038
     21 N6          2.6336    0.7889   -6.6139 N.pl3     1 <0>        -0.8035
     22 H2          1.0039    1.9031    0.0027 H         1 <0>         0.0785
     23 H3         -0.5459    1.8868   -0.8726 H         1 <0>         0.0719
     24 H4         -0.5289    1.8773    0.9072 H         1 <0>         0.0704
     25 H5         -0.8722   -0.4298    2.4432 H         1 <0>         0.4015
     26 H6          1.1839   -2.1254    3.3778 H         1 <0>         0.0729
     27 H7          1.5952   -0.4503    3.8172 H         1 <0>         0.0692
     28 H8         -0.5949   -0.2111    4.9551 H         1 <0>         0.0702
     29 H9         -1.0062   -1.8862    4.5157 H         1 <0>         0.0708
     30 H10         1.4168   -1.0787    6.1848 H         1 <0>         0.0736
     31 H11        -1.2563   -2.2957    7.0156 H         1 <0>         0.0553
     32 H12         0.1387   -2.0249    8.0874 H         1 <0>         0.0573
     33 H13        -0.7156   -0.6375    7.3708 H         1 <0>         0.0550
     34 H14         1.6760   -3.1846    4.9015 H         1 <0>         0.0582
     35 H15         1.5354   -3.5124    6.6454 H         1 <0>         0.0567
     36 H16         0.1403   -3.7832    5.5736 H         1 <0>         0.0556
     37 H17        -1.2074   -0.4887   -2.7351 H         1 <0>         0.1128
     38 H18        -0.3087    1.0451   -2.8251 H         1 <0>         0.1144
     39 H19         0.6321   -3.5227   -7.2337 H         1 <0>         0.4179
     40 H20        -0.3718   -3.8286   -5.9217 H         1 <0>         0.4196
     41 H21         2.8665    1.6485   -6.2295 H         1 <0>         0.4198
     42 H22         3.0198    0.5155   -7.4606 H         1 <0>         0.4178
@<TRIPOS>BOND
     1    1    2 1
     2    1   22 1
     3    1   23 1
     4    1   24 1
     5    2    3 1
     6    2    4 1
     7    2   12 1
     8    4    5 2
     9    4    6 am
    10    6    7 1
    11    6   25 1
    12    7    8 1
    13    7   26 1
    14    7   27 1
    15    8    9 1
    16    8   28 1
    17    8   29 1
    18    9   10 1
    19    9   11 1
    20    9   30 1
    21   10   31 1
    22   10   32 1
    23   10   33 1
    24   11   34 1
    25   11   35 1
    26   11   36 1
    27   12   13 1
    28   13   14 1
    29   13   37 1
    30   13   38 1
    31   14   19 ar
    32   14   15 ar
    33   15   16 ar
    34   16   17 ar
    35   16   21 1
    36   17   18 ar
    37   18   19 ar
    38   18   20 1
    39   20   39 1
    40   20   40 1
    41   21   41 1
    42   21   42 1
@<TRIPOS>MOLECULE
ZINC56229462
   41    42     0     0     0
SMALL
USER_CHARGES

@<TRIPOS>ATOM
      1 C1          0.0387    1.5599   -0.0342 C.3       1 <0>        -0.1444
      2 C2          0.0548    0.0301   -0.0502 C.3       1 <0>        -0.1014
      3 H1          0.5753   -0.3184   -0.9423 H         1 <0>         0.1118
      4 C3         -1.3606   -0.4871   -0.0601 C.2       1 <0>         0.5396
      5 O1         -1.9020   -0.7922    0.9814 O.2       1 <0>        -0.5184
      6 N1         -2.0248   -0.6107   -1.2263 N.am      1 <0>        -0.8485
      7 S1          0.9116   -0.5811    1.4272 S.3       1 <0>        -0.1382
      8 C4          2.6187   -0.0057    1.2141 C.3       1 <0>        -0.0442
      9 C5          3.4497   -0.4521    2.3894 C.ar      1 <0>         0.4512
     10 N2          3.5505    0.3208    3.4568 N.ar      1 <0>        -0.6191
     11 C6          4.2835   -0.0699    4.4968 C.ar      1 <0>         0.6305
     12 N3          4.9143   -1.2387    4.4610 N.ar      1 <0>        -0.6384
     13 C7          4.8106   -2.0129    3.3863 C.ar      1 <0>         0.6300
     14 N4          4.0712   -1.6175    2.3521 N.ar      1 <0>        -0.6170
     15 N5          5.4644   -3.2285    3.3442 N.pl3     1 <0>        -0.6113
     16 C8          6.3350   -3.5918    4.3797 C.ar      1 <0>         0.1317
     17 C9          6.9454   -2.6132    5.1506 C.ar      1 <0>        -0.0894
     18 C10         7.8036   -2.9741    6.1720 C.ar      1 <0>        -0.1351
     19 C11         8.0563   -4.3092    6.4280 C.ar      1 <0>        -0.0978
     20 C12         7.4519   -5.2900    5.6636 C.ar      1 <0>        -0.1877
     21 C13         6.5856   -4.9368    4.6419 C.ar      1 <0>         0.0991
     22 O2          5.9857   -5.9005    3.8931 O.3       1 <0>        -0.3210
     23 C14         6.2896   -7.2583    4.2189 C.3       1 <0>         0.0297
     24 N6          4.3884    0.7380    5.6106 N.pl3     1 <0>        -0.8016
     25 H2          1.0624    1.9340   -0.0271 H         1 <0>         0.0725
     26 H3         -0.4762    1.9272   -0.9220 H         1 <0>         0.0712
     27 H4         -0.4818    1.9085    0.8578 H         1 <0>         0.0789
     28 H5         -1.5918   -0.3667   -2.0593 H         1 <0>         0.4031
     29 H6         -2.9359   -0.9436   -1.2327 H         1 <0>         0.4077
     30 H7          3.0317   -0.4254    0.2968 H         1 <0>         0.1140
     31 H8          2.6304    1.0825    1.1532 H         1 <0>         0.1156
     32 H9          5.3208   -3.8308    2.5976 H         1 <0>         0.4313
     33 H10         6.7504   -1.5696    4.9524 H         1 <0>         0.1556
     34 H11         8.2783   -2.2115    6.7716 H         1 <0>         0.1273
     35 H12         8.7279   -4.5866    7.2270 H         1 <0>         0.1261
     36 H13         7.6520   -6.3319    5.8657 H         1 <0>         0.1324
     37 H14         5.7467   -7.9233    3.5473 H         1 <0>         0.1016
     38 H15         7.3609   -7.4271    4.1098 H         1 <0>         0.0568
     39 H16         5.9930   -7.4601    5.2482 H         1 <0>         0.0566
     40 H17         3.9278    1.5913    5.6359 H         1 <0>         0.4205
     41 H18         4.9227    0.4526    6.3682 H         1 <0>         0.4184
@<TRIPOS>BOND
     1    1    2 1
     2    1   25 1
     3    1   26 1
     4    1   27 1
     5    2    3 1
     6    2    4 1
     7    2    7 1
     8    4    5 2
     9    4    6 am
    10    6   28 1
    11    6   29 1
    12    7    8 1
    13    8    9 1
    14    8   30 1
    15    8   31 1
    16    9   14 ar
    17    9   10 ar
    18   10   11 ar
    19   11   12 ar
    20   11   24 1
    21   12   13 ar
    22   13   14 ar
    23   13   15 1
    24   15   16 1
    25   15   32 1
    26   16   21 ar
    27   16   17 ar
    28   17   18 ar
    29   17   33 1
    30   18   19 ar
    31   18   34 1
    32   19   20 ar
    33   19   35 1
    34   20   21 ar
    35   20   36 1
    36   21   22 1
    37   22   23 1
    38   23   37 1
    39   23   38 1
    40   23   39 1
    41   24   40 1
    42   24   41 1
@<TRIPOS>MOLECULE
ZINC66142429
   49    50     0     0     0
SMALL
USER_CHARGES

@<TRIPOS>ATOM
      1 C1         -0.0521    0.3102   -0.1453 C.3       1 <0>        -0.1088
      2 C2          0.0024   -1.1805    0.0690 C.ar      1 <0>        -0.1114
      3 C3          0.0956   -2.0320   -1.0151 C.ar      1 <0>        -0.0833
      4 C4          0.1451   -3.3996   -0.8192 C.ar      1 <0>        -0.1522
      5 C5          0.1019   -3.9189    0.4617 C.ar      1 <0>        -0.0862
      6 C6          0.0092   -3.0720    1.5489 C.ar      1 <0>        -0.2086
      7 C7         -0.0353   -1.6987    1.3551 C.ar      1 <0>         0.1261
      8 O1         -0.1208   -0.8630    2.4234 O.3       1 <0>        -0.2815
      9 C8         -0.2863   -1.4670    3.7079 C.3       1 <0>         0.0678
     10 H1         -0.9040   -2.3599    3.6127 H         1 <0>         0.0996
     11 C9          1.0834   -1.8520    4.2707 C.3       1 <0>        -0.1752
     12 C10        -0.9557   -0.4900    4.6399 C.2       1 <0>         0.5233
     13 O2         -1.2611    0.6146    4.2431 O.2       1 <0>        -0.5156
     14 N1         -1.2151   -0.8439    5.9142 N.am      1 <0>        -0.7053
     15 C11        -1.8658    0.1058    6.8202 C.3       1 <0>         0.1250
     16 H2         -1.5284    1.1165    6.5906 H         1 <0>         0.1036
     17 C12        -3.3832    0.0221    6.6427 C.3       1 <0>         0.0658
     18 O3         -3.8382   -1.2738    7.0373 O.3       1 <0>        -0.5687
     19 C13        -1.5018   -0.2374    8.2661 C.3       1 <0>         0.1574
     20 H3         -1.7981   -1.2640    8.4815 H         1 <0>         0.1168
     21 C14        -0.0140   -0.0933    8.4572 C.ar      1 <0>        -0.1779
     22 C15         0.5262    1.1433    8.7595 C.ar      1 <0>        -0.0584
     23 C16         1.8892    1.2788    8.9354 C.ar      1 <0>        -0.1935
     24 C17         2.7179    0.1712    8.8083 C.ar      1 <0>         0.2197
     25 C18         2.1720   -1.0695    8.5045 C.ar      1 <0>        -0.1954
     26 C19         0.8075   -1.1991    8.3355 C.ar      1 <0>        -0.0590
     27 N2          4.0970    0.3049    8.9850 N.pl3     1 <0>        -0.8777
     28 O4         -2.1843    0.6514    9.1529 O.3       1 <0>        -0.5420
     29 H4          0.9604    0.7139   -0.1491 H         1 <0>         0.0684
     30 H5         -0.5315    0.5226   -1.1009 H         1 <0>         0.0651
     31 H6         -0.6245    0.7722    0.6590 H         1 <0>         0.0737
     32 H7          0.1294   -1.6288   -2.0165 H         1 <0>         0.1297
     33 H8          0.2172   -4.0635   -1.6679 H         1 <0>         0.1245
     34 H9          0.1404   -4.9877    0.6122 H         1 <0>         0.1250
     35 H10        -0.0245   -3.4780    2.5490 H         1 <0>         0.1286
     36 H11         0.9572   -2.3127    5.2504 H         1 <0>         0.0780
     37 H12         1.5676   -2.5586    3.5966 H         1 <0>         0.0770
     38 H13         1.7012   -0.9590    4.3659 H         1 <0>         0.0756
     39 H14        -0.9708   -1.7274    6.2315 H         1 <0>         0.4028
     40 H15        -3.8638    0.7799    7.2614 H         1 <0>         0.0623
     41 H16        -3.6366    0.1931    5.5964 H         1 <0>         0.0521
     42 H17        -4.7932   -1.3985    6.9510 H         1 <0>         0.3823
     43 H18        -0.1186    2.0041    8.8579 H         1 <0>         0.1186
     44 H19         2.3105    2.2450    9.1711 H         1 <0>         0.1208
     45 H20         2.8135   -1.9325    8.4046 H         1 <0>         0.1209
     46 H21         0.3819   -2.1642    8.1037 H         1 <0>         0.1193
     47 H22         4.4770    1.1718    9.1967 H         1 <0>         0.3991
     48 H23         4.6746   -0.4693    8.8960 H         1 <0>         0.3988
     49 H24        -2.0285    1.5877    8.9682 H         1 <0>         0.3730
@<TRIPOS>BOND
     1    1    2 1
     2    1   29 1
     3    1   30 1
     4    1   31 1
     5    2    7 ar
     6    2    3 ar
     7    3    4 ar
     8    3   32 1
     9    4    5 ar
    10    4   33 1
    11    5    6 ar
    12    5   34 1
    13    6    7 ar
    14    6   35 1
    15    7    8 1
    16    8    9 1
    17    9   10 1
    18    9   11 1
    19    9   12 1
    20   11   36 1
    21   11   37 1
    22   11   38 1
    23   12   13 2
    24   12   14 am
    25   14   15 1
    26   14   39 1
    27   15   16 1
    28   15   17 1
    29   15   19 1
    30   17   18 1
    31   17   40 1
    32   17   41 1
    33   18   42 1
    34   19   20 1
    35   19   21 1
    36   19   28 1
    37   21   26 ar
    38   21   22 ar
    39   22   23 ar
    40   22   43 1
    41   23   24 ar
    42   23   44 1
    43   24   25 ar
    44   24   27 1
    45   25   26 ar
    46   25   45 1
    47   26   46 1
    48   27   47 1
    49   27   48 1
    50   28   49 1
@<TRIPOS>MOLECULE
ZINC11757157
   24    25     0     0     0
SMALL
USER_CHARGES
1-allylindazol-6-amine
@<TRIPOS>ATOM
      1 C1         -0.4783   -0.6600   -1.0252 C.2       1 <0>        -0.1672
      2 C2          0.0021   -0.0041    0.0020 C.2       1 <0>        -0.1782
      3 C3         -0.0184    1.5028    0.0103 C.3       1 <0>         0.1704
      4 N1         -0.7041    1.9752    1.2156 N.pl3     1 <0>        -0.4086
      5 C4         -2.0476    2.2267    1.3194 C.ar      1 <0>         0.1796
      6 C5         -3.1171    2.1236    0.4346 C.ar      1 <0>        -0.2395
      7 C6         -4.3908    2.4546    0.8586 C.ar      1 <0>         0.2638
      8 C7         -4.6123    2.8846    2.1685 C.ar      1 <0>        -0.2212
      9 C8         -3.5771    2.9852    3.0493 C.ar      1 <0>         0.0062
     10 C9         -2.2792    2.6555    2.6408 C.ar      1 <0>        -0.2335
     11 C10        -0.9804    2.6494    3.3068 C.2       1 <0>         0.0846
     12 N2         -0.0920    2.2478    2.4434 N.2       1 <0>        -0.2652
     13 N3         -5.4640    2.3578   -0.0298 N.pl3     1 <0>        -0.8718
     14 H1         -0.8889   -0.1209   -1.8661 H         1 <0>         0.0995
     15 H2         -0.4636   -1.7399   -1.0311 H         1 <0>         0.1046
     16 H3          0.4127   -0.5432    0.8429 H         1 <0>         0.1150
     17 H4          1.0042    1.8801    0.0026 H         1 <0>         0.1007
     18 H5         -0.5455    1.8639   -0.8728 H         1 <0>         0.0920
     19 H6         -2.9521    1.7912   -0.5797 H         1 <0>         0.1192
     20 H7         -5.6125    3.1393    2.4865 H         1 <0>         0.1254
     21 H8         -3.7576    3.3191    4.0604 H         1 <0>         0.1295
     22 H9         -0.7900    2.9280    4.3328 H         1 <0>         0.1942
     23 H10        -6.3592    2.5888    0.2639 H         1 <0>         0.4013
     24 H11        -5.3143    2.0595   -0.9406 H         1 <0>         0.3993
@<TRIPOS>BOND
     1    1    2 2
     2    1   14 1
     3    1   15 1
     4    2    3 1
     5    2   16 1
     6    3    4 1
     7    3   17 1
     8    3   18 1
     9    4   12 1
    10    4    5 1
    11    5   10 ar
    12    5    6 ar
    13    6    7 ar
    14    6   19 1
    15    7    8 ar
    16    7   13 1
    17    8    9 ar
    18    8   20 1
    19    9   10 ar
    20    9   21 1
    21   10   11 1
    22   11   12 2
    23   11   22 1
    24   13   23 1
    25   13   24 1
@<TRIPOS>MOLECULE
ZINC36893203
   22    22     0     0     0
SMALL
USER_CHARGES

@<TRIPOS>ATOM
      1 C1          0.8129    1.3572   -0.0404 C.3       1 <0>        -0.0968
      2 C2          0.3587   -0.0790    0.0053 C.2       1 <0>         0.1591
      3 C3          0.1087   -0.9066   -1.1125 C.2       1 <0>        -0.2715
      4 C4         -0.2847   -2.1382   -0.6279 C.2       1 <0>         0.1399
      5 N1         -0.2748   -2.0641    0.7135 N.pl3     1 <0>        -0.3511
      6 N2          0.1330   -0.7776    1.0837 N.2       1 <0>        -0.2976
      7 C5         -0.6262   -3.1487    1.6334 C.3       1 <0>         0.0905
      8 C6         -0.6569   -3.3437   -1.4521 C.3       1 <0>        -0.1183
      9 C7          0.2424   -0.5265   -2.5294 C.2       1 <0>         0.4415
     10 S1          0.5750    1.0989   -2.9518 S.2       1 <0>        -0.5733
     11 N3          0.1028   -1.4582   -3.4931 N.pl3     1 <0>        -0.7804
     12 H1          1.8959    1.3922   -0.1583 H         1 <0>         0.0845
     13 H2          0.3392    1.8615   -0.8826 H         1 <0>         0.1256
     14 H3          0.5320    1.8567    0.8868 H         1 <0>         0.0670
     15 H4          0.2666   -3.7269    1.8714 H         1 <0>         0.0852
     16 H5         -1.0415   -2.7281    2.5493 H         1 <0>         0.0994
     17 H6         -1.3653   -3.7980    1.1641 H         1 <0>         0.0929
     18 H7          0.2471   -3.8803   -1.7399 H         1 <0>         0.0994
     19 H8         -1.2983   -4.0012   -0.8651 H         1 <0>         0.0919
     20 H9         -1.1889   -3.0217   -2.3473 H         1 <0>         0.0926
     21 H10        -0.0073   -2.3916   -3.2531 H         1 <0>         0.3980
     22 H11         0.1123   -1.1954   -4.4268 H         1 <0>         0.4216
@<TRIPOS>BOND
     1    1    2 1
     2    1   12 1
     3    1   13 1
     4    1   14 1
     5    2    6 2
     6    2    3 1
     7    3    4 2
     8    3    9 1
     9    4    5 1
    10    4    8 1
    11    5    6 1
    12    5    7 1
    13    7   15 1
    14    7   16 1
    15    7   17 1
    16    8   18 1
    17    8   19 1
    18    8   20 1
    19    9   10 2
    20    9   11 1
    21   11   21 1
    22   11   22 1
@<TRIPOS>MOLECULE
ZINC40231657
   19    20     0     0     0
SMALL
USER_CHARGES

@<TRIPOS>ATOM
      1 C1         -0.0169    1.3971    0.0097 C.ar      1 <0>        -0.1762
      2 C2          1.1793    2.0812    0.0020 C.ar      1 <0>         0.1104
      3 N1          2.3303    1.4346   -0.0125 N.ar      1 <0>        -0.4925
      4 C3          2.3936    0.1159   -0.0202 C.ar      1 <0>         0.1105
      5 C4          1.2466   -0.6479   -0.0133 C.ar      1 <0>        -0.1673
      6 C5          0.0021   -0.0041    0.0020 C.ar      1 <0>         0.0680
      7 C6         -1.2534   -0.7799    0.0103 C.2       1 <0>        -0.2302
      8 C7         -1.4428   -2.1372    0.0105 C.2       1 <0>         0.1214
      9 N2         -2.6884   -2.5608    0.0190 N.2       1 <0>        -0.5918
     10 C8         -3.6990   -1.7142    0.0270 C.2       1 <0>         0.3215
     11 S1         -2.9453   -0.2095    0.0308 S.3       1 <0>         0.1167
     12 N3         -5.0531   -1.9952    0.0360 N.pl3     1 <0>        -0.7957
     13 H1         -0.9547    1.9326    0.0260 H         1 <0>         0.1330
     14 H2          1.1752    3.1612    0.0075 H         1 <0>         0.1588
     15 H3          3.3576   -0.3709   -0.0324 H         1 <0>         0.1600
     16 H4          1.3060   -1.7263   -0.0200 H         1 <0>         0.1378
     17 H5         -0.6104   -2.8253    0.0037 H         1 <0>         0.1762
     18 H6         -5.3574   -2.9163    0.0374 H         1 <0>         0.4175
     19 H7         -5.6987   -1.2712    0.0409 H         1 <0>         0.4219
@<TRIPOS>BOND
     1    1    6 ar
     2    1    2 ar
     3    1   13 1
     4    2    3 ar
     5    2   14 1
     6    3    4 ar
     7    4    5 ar
     8    4   15 1
     9    5    6 ar
    10    5   16 1
    11    6    7 1
    12    7   11 1
    13    7    8 2
    14    8    9 1
    15    8   17 1
    16    9   10 2
    17   10   11 1
    18   10   12 1
    19   12   18 1
    20   12   19 1
@<TRIPOS>MOLECULE
ZINC18554479
   15    16     0     0     0
SMALL
USER_CHARGES

@<TRIPOS>ATOM
      1 C1         -0.0178    1.4635    0.0101 C.2       1 <0>        -0.1607
      2 C2          1.2592    1.8676    0.0001 C.2       1 <0>         0.0587
      3 N1          2.0993    0.7790   -0.0138 N.pl3     1 <0>        -0.5908
      4 H1          3.0681    0.8256   -0.0228 H         1 <0>         0.4272
      5 C3          1.3735   -0.3758   -0.0131 C.2       1 <0>         0.4350
      6 C4          0.0021   -0.0041    0.0020 C.2       1 <0>        -0.2611
      7 C5         -0.9606   -0.9889    0.0059 C.2       1 <0>         0.2374
      8 N2         -0.5642   -2.2822   -0.0048 N.am      1 <0>        -0.6153
      9 C6          0.7429   -2.5967   -0.0185 C.2       1 <0>         0.6440
     10 O1          1.0688   -3.7730   -0.0276 O.2       1 <0>        -0.5464
     11 N3          1.6911   -1.6647   -0.0239 N.2       1 <0>        -0.5844
     12 H2         -0.8933    2.0956    0.0258 H         1 <0>         0.1603
     13 H3          1.5820    2.8982    0.0022 H         1 <0>         0.1852
     14 H4         -2.0100   -0.7340    0.0177 H         1 <0>         0.1852
     15 H5         -1.2287   -2.9888   -0.0023 H         1 <0>         0.4256
@<TRIPOS>BOND
     1    1    6 1
     2    1    2 2
     3    1   12 1
     4    2    3 1
     5    2   13 1
     6    3    4 1
     7    3    5 1
     8    5   11 2
     9    5    6 1
    10    6    7 2
    11    7    8 1
    12    7   14 1
    13    8    9 am
    14    8   15 1
    15    9   10 2
    16    9   11 1
@<TRIPOS>MOLECULE
ZINC13686427
   22    22     0     0     0
SMALL
USER_CHARGES

@<TRIPOS>ATOM
      1 C1         -0.0187    1.5258    0.0104 C.3       1 <0>        -0.1619
      2 C2          0.0021   -0.0041    0.0020 C.3       1 <0>         0.1228
      3 H1          0.5128   -0.3519   -0.8959 H         1 <0>         0.0883
      4 C3         -1.4350   -0.5285    0.0006 C.3       1 <0>        -0.1417
      5 C4         -1.4062   -2.0455    0.2327 C.3       1 <0>         0.2922
      6 H2         -0.8172   -2.5275   -0.5476 H         1 <0>         0.0833
      7 N1         -0.7872   -2.2859    1.5445 N.pl3     1 <0>        -0.7098
      8 C5          0.3334   -1.5791    1.8820 C.cat     1 <0>         0.5669
      9 N2          0.7189   -0.4825    1.1799 N.pl3     1 <0>        -0.6798
     10 S1          1.2426   -2.0720    3.1804 S.3       1 <0>        -0.5932
     11 O1         -2.7385   -2.5623    0.2226 O.3       1 <0>        -0.3715
     12 C6         -2.8081   -3.9895    0.2047 C.3       1 <0>         0.0216
     13 H3          1.0039    1.9031    0.0027 H         1 <0>         0.0713
     14 H4         -0.5459    1.8868   -0.8726 H         1 <0>         0.0816
     15 H5         -0.5289    1.8773    0.9072 H         1 <0>         0.0686
     16 H6         -2.0005   -0.0472    0.7985 H         1 <0>         0.0923
     17 H7         -1.9012   -0.3146   -0.9612 H         1 <0>         0.1101
     18 H8         -1.1668   -2.9334    2.1590 H         1 <0>         0.4288
     19 H9         -2.3101   -4.3664   -0.6886 H         1 <0>         0.0521
     20 H10        -2.3152   -4.3884    1.0913 H         1 <0>         0.0488
     21 H11        -3.8523   -4.3022    0.1979 H         1 <0>         0.0994
     22 H12         1.5052    0.0034    1.4738 H         1 <0>         0.4299
@<TRIPOS>BOND
     1    1    2 1
     2    1   13 1
     3    1   14 1
     4    1   15 1
     5    2    3 1
     6    2    9 1
     7    2    4 1
     8    4    5 1
     9    4   16 1
    10    4   17 1
    11    5    6 1
    12    5    7 1
    13    5   11 1
    14    7    8 1
    15    7   18 1
    16    8    9 2
    17    8   10 1
    18    9   22 1
    19   11   12 1
    20   12   19 1
    21   12   20 1
    22   12   21 1
@<TRIPOS>MOLECULE
ZINC20588333
   26    27     0     0     0
SMALL
USER_CHARGES
2-[[4-amino-5-(5-methyl-2-thienyl)-1,2,4-triazol-3-yl]sulfanyl]acetic acid
@<TRIPOS>ATOM
      1 C1          6.1566   -0.1957    0.1967 C.3       1 <0>        -0.0737
      2 C2          4.9265    0.6670    0.0797 C.2       1 <0>        -0.1324
      3 C3          4.8343    1.9826   -0.2446 C.2       1 <0>        -0.1539
      4 C4          3.5927    2.5752   -0.2996 C.2       1 <0>        -0.1107
      5 C5          2.4872    1.8151   -0.0120 C.2       1 <0>        -0.0711
      6 S1          3.2161    0.2217    0.3307 S.3       1 <0>         0.0419
      7 C6          1.0693    2.2092    0.0037 C.2       1 <0>         0.2124
      8 N1          0.5988    3.4370    0.0148 N.2       1 <0>        -0.2453
      9 N2         -0.6860    3.4143    0.0270 N.2       1 <0>        -0.2796
     10 C7         -1.1168    2.1734    0.0184 C.2       1 <0>         0.1451
     11 N3         -0.0164    1.3618    0.0095 N.pl3     1 <0>        -0.2167
     12 N4          0.0021   -0.0041    0.0020 N.3       1 <0>        -0.7599
     13 S2         -2.7998    1.6518    0.0223 S.3       1 <0>         0.0439
     14 C8         -3.6277    3.2613    0.0344 C.3       1 <0>        -0.1398
     15 C9         -5.1209    3.0581    0.0393 C.2       1 <0>         0.4825
     16 O1         -5.5784    1.9398    0.0351 O.co2     1 <0>        -0.6216
     17 O2         -5.9427    4.1194    0.0485 O.co2     1 <0>        -0.7436
     18 H1          7.0494    0.4065   -0.0273 H         1 <0>         0.0850
     19 H2          6.0885   -1.0300   -0.5169 H         1 <0>         0.0786
     20 H3          6.2297   -0.5933    1.2197 H         1 <0>         0.0788
     21 H4          5.7236    2.5557   -0.4616 H         1 <0>         0.1412
     22 H5          3.4913    3.6182   -0.5607 H         1 <0>         0.1469
     23 H6         -0.9429   -0.5670    0.0080 H         1 <0>         0.4534
     24 H7          0.9620   -0.5411   -0.0100 H         1 <0>         0.4347
     25 H8         -3.3307    3.8196    0.9344 H         1 <0>         0.1020
     26 H9         -3.3379    3.8295   -0.8618 H         1 <0>         0.1020
@<TRIPOS>BOND
     1    1    2 1
     2    1   18 1
     3    1   19 1
     4    1   20 1
     5    2    6 1
     6    2    3 2
     7    3    4 1
     8    3   21 1
     9    4    5 2
    10    4   22 1
    11    5    6 1
    12    5    7 1
    13    7   11 1
    14    7    8 2
    15    8    9 1
    16    9   10 2
    17   10   11 1
    18   10   13 1
    19   11   12 1
    20   12   23 1
    21   12   24 1
    22   13   14 1
    23   14   15 1
    24   14   25 1
    25   14   26 1
    26   15   16 2
    27   15   17 1
@<TRIPOS>MOLECULE
ZINC40534728
   39    39     0     0     0
SMALL
USER_CHARGES

@<TRIPOS>ATOM
      1 C1          0.0110    1.5261   -0.0319 C.3       1 <0>        -0.1496
      2 C2          0.0247   -0.0038   -0.0302 C.3       1 <0>        -0.1222
      3 C3          0.7415   -0.5088   -1.2841 C.3       1 <0>        -0.1102
      4 C4          0.7552   -2.0387   -1.2824 C.3       1 <0>         0.0931
      5 H1         -0.2646   -2.4111   -1.1851 H         1 <0>         0.0826
      6 C5          1.3509   -2.5371   -2.5739 C.2       1 <0>         0.4904
      7 O1          2.5520   -2.7297   -2.6569 O.co2     1 <0>        -0.6924
      8 O2          0.6318   -2.7478   -3.5356 O.co2     1 <0>        -0.6951
      9 N1          1.5599   -2.5186   -0.1562 N.am      1 <0>        -0.7029
     10 C6          1.3326   -3.7421    0.3614 C.2       1 <0>         0.7035
     11 O3          0.4597   -4.4476   -0.1064 O.2       1 <0>        -0.5784
     12 N2          2.0729   -4.1837    1.3975 N.am      1 <0>        -0.6839
     13 C7          1.7761   -5.4159    1.9961 C.ar      1 <0>         0.1536
     14 C8          1.3041   -6.4678    1.2250 C.ar      1 <0>        -0.0860
     15 C9          1.0121   -7.6818    1.8174 C.ar      1 <0>        -0.1352
     16 C10         1.1893   -7.8513    3.1782 C.ar      1 <0>        -0.1081
     17 C11         1.6593   -6.8073    3.9531 C.ar      1 <0>        -0.1936
     18 C12         1.9598   -5.5890    3.3659 C.ar      1 <0>         0.0927
     19 O4          2.4275   -4.5629    4.1259 O.3       1 <0>        -0.3171
     20 C13         2.5910   -4.8128    5.5233 C.3       1 <0>         0.0573
     21 C14         3.1222   -3.5519    6.2081 C.3       1 <0>        -0.1520
     22 H2          1.0353    1.8986   -0.0397 H         1 <0>         0.0515
     23 H3         -0.5124    1.8838   -0.9186 H         1 <0>         0.0530
     24 H4         -0.4997    1.8859    0.8614 H         1 <0>         0.0478
     25 H5          0.5481   -0.3615    0.8564 H         1 <0>         0.0575
     26 H6         -0.9996   -0.3763   -0.0225 H         1 <0>         0.0592
     27 H7          0.2181   -0.1511   -2.1707 H         1 <0>         0.0764
     28 H8          1.7659   -0.1363   -1.2918 H         1 <0>         0.0637
     29 H9          2.2562   -1.9559    0.2170 H         1 <0>         0.3890
     30 H10         2.8110   -3.6487    1.7289 H         1 <0>         0.4053
     31 H11         1.1645   -6.3381    0.1619 H         1 <0>         0.1521
     32 H12         0.6443   -8.5001    1.2160 H         1 <0>         0.1250
     33 H13         0.9595   -8.8016    3.6370 H         1 <0>         0.1211
     34 H14         1.7966   -6.9430    5.0157 H         1 <0>         0.1259
     35 H15         1.6296   -5.0851    5.9587 H         1 <0>         0.0593
     36 H16         3.2988   -5.6293    5.6661 H         1 <0>         0.0594
     37 H17         4.0836   -3.2796    5.7728 H         1 <0>         0.0659
     38 H18         2.4144   -2.7353    6.0654 H         1 <0>         0.0658
     39 H19         3.2469   -3.7425    7.2741 H         1 <0>         0.0756
@<TRIPOS>BOND
     1    1    2 1
     2    1   22 1
     3    1   23 1
     4    1   24 1
     5    2    3 1
     6    2   25 1
     7    2   26 1
     8    3    4 1
     9    3   27 1
    10    3   28 1
    11    4    5 1
    12    4    6 1
    13    4    9 1
    14    6    7 2
    15    6    8 1
    16    9   10 am
    17    9   29 1
    18   10   11 2
    19   10   12 am
    20   12   13 1
    21   12   30 1
    22   13   18 ar
    23   13   14 ar
    24   14   15 ar
    25   14   31 1
    26   15   16 ar
    27   15   32 1
    28   16   17 ar
    29   16   33 1
    30   17   18 ar
    31   17   34 1
    32   18   19 1
    33   19   20 1
    34   20   21 1
    35   20   35 1
    36   20   36 1
    37   21   37 1
    38   21   38 1
    39   21   39 1
@<TRIPOS>MOLECULE
ZINC50031299
   31    31     0     0     0
SMALL
USER_CHARGES

@<TRIPOS>ATOM
      1 C1         -0.1933    1.9430   -0.2492 C.3       1 <0>        -0.1668
      2 C2         -0.2193    0.4448    0.0601 C.3       1 <0>         0.1275
      3 H1          0.3646   -0.0909   -0.6883 H         1 <0>         0.1159
      4 C3          0.3714    0.2034    1.4253 C.2       1 <0>         0.5139
      5 O1         -0.2978   -0.3181    2.2920 O.2       1 <0>        -0.5328
      6 N1          1.6433    0.5671    1.6832 N.am      1 <0>        -0.7305
      7 C4          2.2175    0.3324    3.0104 C.3       1 <0>         0.0875
      8 N2         -1.6032   -0.0351    0.0350 N.pl3     1 <0>        -0.7205
      9 C5         -2.1911   -0.4116   -1.1772 C.ar      1 <0>         0.2131
     10 C6         -1.4633   -0.3362   -2.3524 C.ar      1 <0>        -0.1382
     11 C7         -2.0549   -0.7140   -3.5608 C.ar      1 <0>        -0.0411
     12 C8         -3.3778   -1.1656   -3.5752 C.ar      1 <0>        -0.0421
     13 C9         -4.0947   -1.2373   -2.3998 C.ar      1 <0>        -0.0679
     14 C10        -3.5068   -0.8679   -1.2011 C.ar      1 <0>         0.0217
     15 F1         -4.2136   -0.9456   -0.0524 F         1 <0>        -0.1349
     16 N3         -4.0091   -1.5664   -4.8526 N.pl3     1 <0>         0.0449
     17 O2         -5.0841   -1.1099   -5.1651 O.2       1 <0>        -0.2175
     18 O3         -3.4497   -2.3503   -5.5836 O.3       1 <0>        -0.0686
     19 C11        -1.2866   -0.6360   -4.8163 C.2       1 <0>         0.5129
     20 O4         -0.0933   -0.3691   -4.7875 O.co2     1 <0>        -0.6691
     21 O5         -1.8423   -0.8382   -5.8870 O.co2     1 <0>        -0.6485
     22 H2          0.8364    2.3000   -0.2305 H         1 <0>         0.0728
     23 H3         -0.6206    2.1175   -1.2367 H         1 <0>         0.0805
     24 H4         -0.7773    2.4786    0.4992 H         1 <0>         0.0649
     25 H5          2.1785    0.9842    0.9900 H         1 <0>         0.4063
     26 H6          3.2472    0.6895    3.0290 H         1 <0>         0.0778
     27 H7          1.6336    0.8681    3.7588 H         1 <0>         0.0601
     28 H8          2.1990   -0.7349    3.2307 H         1 <0>         0.0607
     29 H9         -2.1119   -0.0918    0.8589 H         1 <0>         0.4133
     30 H10        -0.4417    0.0138   -2.3354 H         1 <0>         0.1560
     31 H11        -5.1167   -1.5861   -2.4131 H         1 <0>         0.1487
@<TRIPOS>BOND
     1    1    2 1
     2    1   22 1
     3    1   23 1
     4    1   24 1
     5    2    3 1
     6    2    4 1
     7    2    8 1
     8    4    5 2
     9    4    6 am
    10    6    7 1
    11    6   25 1
    12    7   26 1
    13    7   27 1
    14    7   28 1
    15    8    9 1
    16    8   29 1
    17    9   14 ar
    18    9   10 ar
    19   10   11 ar
    20   10   30 1
    21   11   12 ar
    22   11   19 1
    23   12   13 ar
    24   12   16 1
    25   13   14 ar
    26   13   31 1
    27   14   15 1
    28   16   17 2
    29   16   18 1
    30   19   20 2
    31   19   21 1
@<TRIPOS>MOLECULE
ZINC48520706
   33    33     0     0     0
SMALL
USER_CHARGES

@<TRIPOS>ATOM
      1 C1          0.2347    1.8384   -0.2025 C.3       1 <0>        -0.1617
      2 C2          0.0623    0.3215   -0.1018 C.3       1 <0>         0.1799
      3 H1         -0.9996    0.0759   -0.0991 H         1 <0>         0.0889
      4 C3          0.7050   -0.1800    1.1930 C.3       1 <0>        -0.1968
      5 C4          0.4293   -1.6529    1.3530 C.2       1 <0>         0.4870
      6 O1         -0.2210   -2.2465    0.5096 O.co2     1 <0>        -0.6844
      7 O2          0.8565   -2.2510    2.3258 O.co2     1 <0>        -0.7082
      8 N1          0.7092   -0.3207   -1.2487 N.am      1 <0>        -0.7046
      9 C5          0.0419   -0.4520   -2.4123 C.2       1 <0>         0.7095
     10 O3         -1.0969   -0.0374   -2.5102 O.2       1 <0>        -0.5775
     11 N2          0.6370   -1.0428   -3.4674 N.am      1 <0>        -0.6901
     12 C6         -0.0907   -1.2795   -4.6391 C.ar      1 <0>         0.2203
     13 C7          0.5420   -1.2211   -5.8745 C.ar      1 <0>        -0.1919
     14 C8         -0.1762   -1.4546   -7.0309 C.ar      1 <0>        -0.0633
     15 C9         -1.5255   -1.7465   -6.9625 C.ar      1 <0>        -0.2357
     16 C10        -2.1627   -1.8057   -5.7312 C.ar      1 <0>         0.1455
     17 C11        -1.4437   -1.5784   -4.5680 C.ar      1 <0>        -0.1536
     18 O4         -3.4895   -2.0923   -5.6654 O.3       1 <0>        -0.3140
     19 C12        -4.1659   -2.3215   -6.9032 C.3       1 <0>         0.0292
     20 H2          1.2967    2.0840   -0.2051 H         1 <0>         0.0489
     21 H3         -0.2231    2.1956   -1.1249 H         1 <0>         0.0541
     22 H4         -0.2465    2.3162    0.6509 H         1 <0>         0.0609
     23 H5          1.7816   -0.0143    1.1522 H         1 <0>         0.0608
     24 H6          0.2858    0.3623    2.0405 H         1 <0>         0.0739
     25 H7          1.6177   -0.6515   -1.1706 H         1 <0>         0.3913
     26 H8          1.5697   -1.3039   -3.4147 H         1 <0>         0.4061
     27 H9          1.5961   -0.9926   -5.9307 H         1 <0>         0.1241
     28 H10         0.3173   -1.4088   -7.9905 H         1 <0>         0.1247
     29 H11        -2.0846   -1.9283   -7.8684 H         1 <0>         0.1241
     30 H12        -1.9369   -1.6288   -3.6085 H         1 <0>         0.1488
     31 H13        -4.0889   -1.4326   -7.5293 H         1 <0>         0.0532
     32 H14        -3.7085   -3.1677   -7.4159 H         1 <0>         0.0534
     33 H15        -5.2160   -2.5390   -6.7085 H         1 <0>         0.0972
@<TRIPOS>BOND
     1    1    2 1
     2    1   20 1
     3    1   21 1
     4    1   22 1
     5    2    3 1
     6    2    4 1
     7    2    8 1
     8    4    5 1
     9    4   23 1
    10    4   24 1
    11    5    6 2
    12    5    7 1
    13    8    9 am
    14    8   25 1
    15    9   10 2
    16    9   11 am
    17   11   12 1
    18   11   26 1
    19   12   17 ar
    20   12   13 ar
    21   13   14 ar
    22   13   27 1
    23   14   15 ar
    24   14   28 1
    25   15   16 ar
    26   15   29 1
    27   16   17 ar
    28   16   18 1
    29   17   30 1
    30   18   19 1
    31   19   31 1
    32   19   32 1
    33   19   33 1
@<TRIPOS>MOLECULE
ZINC62925469
   42    42     0     0     0
SMALL
USER_CHARGES

@<TRIPOS>ATOM
      1 C1         -0.0187    1.5258    0.0104 C.3       1 <0>        -0.1597
      2 C2          0.0021   -0.0041    0.0020 C.3       1 <0>        -0.0803
      3 C3          0.7182   -0.4975   -1.2568 C.3       1 <0>        -0.1435
      4 C4          0.6864   -2.0419   -1.3223 C.3       1 <0>        -0.1098
      5 C5         -0.5190   -2.3222   -2.2547 C.3       1 <0>         0.1028
      6 N1         -0.4294   -1.2387   -3.2605 N.am      1 <0>        -0.6261
      7 C6         -0.0316   -0.0284   -2.5175 C.3       1 <0>         0.1533
      8 C7         -0.6628   -1.3385   -4.5842 C.2       1 <0>         0.7289
      9 O1         -0.5503   -0.3598   -5.2968 O.2       1 <0>        -0.5949
     10 N2         -1.0208   -2.5232   -5.1179 N.am      1 <0>        -0.7401
     11 C8         -1.2744   -2.6317   -6.5566 C.3       1 <0>         0.1225
     12 C9         -1.6552   -4.0503   -6.8940 C.2       1 <0>         0.5123
     13 O2         -1.7093   -4.8881   -6.0188 O.2       1 <0>        -0.5349
     14 N3         -1.9355   -4.3879   -8.1683 N.am      1 <0>        -0.7249
     15 C10        -2.3056   -5.7669   -8.4963 C.3       1 <0>         0.1361
     16 C11        -3.1448   -5.7792   -9.7755 C.3       1 <0>        -0.1607
     17 C12        -1.0388   -6.5980   -8.7093 C.3       1 <0>        -0.1653
     18 C13         2.1405    0.0003   -1.2780 C.2       1 <0>         0.5080
     19 O3          2.5611    0.6831   -0.3596 O.co2     1 <0>        -0.6867
     20 O4          2.8705   -0.2797   -2.2135 O.co2     1 <0>        -0.6903
     21 H1          1.0039    1.9031    0.0027 H         1 <0>         0.0929
     22 H2         -0.5459    1.8868   -0.8726 H         1 <0>         0.0374
     23 H3         -0.5289    1.8773    0.9072 H         1 <0>         0.0349
     24 H4          0.5293   -0.3651    0.8851 H         1 <0>         0.0605
     25 H5         -1.0205   -0.3814    0.0098 H         1 <0>         0.0378
     26 H6          1.6083   -2.4289   -1.7564 H         1 <0>         0.0781
     27 H7          0.5162   -2.4668   -0.3331 H         1 <0>         0.0718
     28 H8         -0.4186   -3.2978   -2.7303 H         1 <0>         0.0686
     29 H9         -1.4561   -2.2573   -1.7018 H         1 <0>         0.0675
     30 H10        -0.9169    0.5403   -2.2328 H         1 <0>         0.0562
     31 H11         0.6253    0.5860   -3.1331 H         1 <0>         0.0764
     32 H12        -1.1105   -3.3040   -4.5493 H         1 <0>         0.4053
     33 H13        -2.0881   -1.9615   -6.8337 H         1 <0>         0.0957
     34 H14        -0.3741   -2.3567   -7.1061 H         1 <0>         0.0970
     35 H15        -1.8922   -3.7178   -8.8683 H         1 <0>         0.4033
     36 H16        -2.8856   -6.1920   -7.6772 H         1 <0>         0.0886
     37 H17        -2.5648   -5.3541  -10.5947 H         1 <0>         0.0618
     38 H18        -3.4202   -6.8052  -10.0196 H         1 <0>         0.0725
     39 H19        -4.0473   -5.1871   -9.6238 H         1 <0>         0.0621
     40 H20        -0.4410   -6.5892   -7.7980 H         1 <0>         0.0619
     41 H21        -1.3142   -7.6240   -8.9533 H         1 <0>         0.0653
     42 H22        -0.4588   -6.1729   -9.5284 H         1 <0>         0.0574
@<TRIPOS>BOND
     1    1    2 1
     2    1   21 1
     3    1   22 1
     4    1   23 1
     5    2    3 1
     6    2   24 1
     7    2   25 1
     8    3    7 1
     9    3    4 1
    10    3   18 1
    11    4    5 1
    12    4   26 1
    13    4   27 1
    14    5    6 1
    15    5   28 1
    16    5   29 1
    17    6    7 1
    18    6    8 am
    19    7   30 1
    20    7   31 1
    21    8    9 2
    22    8   10 am
    23   10   11 1
    24   10   32 1
    25   11   12 1
    26   11   33 1
    27   11   34 1
    28   12   13 2
    29   12   14 am
    30   14   15 1
    31   14   35 1
    32   15   16 1
    33   15   17 1
    34   15   36 1
    35   16   37 1
    36   16   38 1
    37   16   39 1
    38   17   40 1
    39   17   41 1
    40   17   42 1
    41   18   19 2
    42   18   20 1
@<TRIPOS>MOLECULE
ZINC06783100
   33    34     0     0     0
SMALL
USER_CHARGES
1-butyl-5-(1H-pyrrol-2-ylmethylene)hexahydropyrimidine-2,4,6-trione
@<TRIPOS>ATOM
      1 C1          7.3682    8.1517    3.4769 C.3       1 <0>        -0.1508
      2 C2          7.1547    7.8106    2.0007 C.3       1 <0>        -0.1190
      3 C3          6.2076    6.6145    1.8855 C.3       1 <0>        -0.1292
      4 C4          5.9942    6.2733    0.4094 C.3       1 <0>         0.1071
      5 N1          5.0873    5.1280    0.2990 N.am      1 <0>        -0.5847
      6 C5          3.7588    5.3452    0.2132 C.2       1 <0>         0.5706
      7 O1          3.3083    6.4755    0.2273 O.2       1 <0>        -0.5449
      8 C6          2.8678    4.1773    0.1026 C.2       1 <0>        -0.3520
      9 C7          1.4883    4.3234    0.0108 C.2       1 <0>         0.1118
     10 C8          0.6408    3.3325    0.5335 C.2       1 <0>        -0.0218
     11 C9         -0.7403    3.2682    0.3868 C.2       1 <0>        -0.1383
     12 C10        -1.1664    2.1245    1.0594 C.2       1 <0>        -0.2341
     13 C11        -0.0741    1.5252    1.6009 C.2       1 <0>         0.0380
     14 N2          1.0246    2.2427    1.2881 N.pl3     1 <0>        -0.4946
     15 H1          2.0862    2.0888    1.5318 H         1 <0>         0.4520
     16 C12         3.5018    2.8476    0.0997 C.2       1 <0>         0.5341
     17 O2          2.8311    1.8358    0.0160 O.3       1 <0>        -0.5688
     18 N3          4.8464    2.7819    0.1870 N.2       1 <0>        -0.7045
     19 C13         5.5968    3.8883    0.2852 C.2       1 <0>         0.6659
     20 O3          6.8028    3.7606    0.3654 O.2       1 <0>        -0.5852
     21 H2          8.0491    9.0116    3.5597 H         1 <0>         0.0512
     22 H3          7.8070    7.2854    3.9936 H         1 <0>         0.0536
     23 H4          6.4020    8.4033    3.9385 H         1 <0>         0.0520
     24 H5          6.7159    8.6769    1.4840 H         1 <0>         0.0611
     25 H6          8.1209    7.5591    1.5390 H         1 <0>         0.0634
     26 H7          6.6464    5.7483    2.4024 H         1 <0>         0.0666
     27 H8          5.2414    6.8661    2.3471 H         1 <0>         0.0601
     28 H9          5.5555    7.1396   -0.1074 H         1 <0>         0.0783
     29 H10         6.9604    6.0217   -0.0522 H         1 <0>         0.0884
     30 H11         1.0605    5.2149   -0.4711 H         1 <0>         0.1446
     31 H12        -1.3633    3.9684   -0.1499 H         1 <0>         0.1365
     32 H13        -2.1859    1.7770    1.1381 H         1 <0>         0.1329
     33 H14        -0.0834    0.6167    2.1847 H         1 <0>         0.1598
@<TRIPOS>BOND
     1    1    2 1
     2    1   21 1
     3    1   22 1
     4    1   23 1
     5    2    3 1
     6    2   24 1
     7    2   25 1
     8    3    4 1
     9    3   26 1
    10    3   27 1
    11    4    5 1
    12    4   28 1
    13    4   29 1
    14    5   19 am
    15    5    6 am
    16    6    7 2
    17    6    8 1
    18    8    9 2
    19    8   16 1
    20    9   10 1
    21    9   30 1
    22   10   14 1
    23   10   11 2
    24   11   12 1
    25   11   31 1
    26   12   13 2
    27   12   32 1
    28   13   14 1
    29   13   33 1
    30   14   15 1
    31   16   17 1
    32   16   18 2
    33   18   19 1
    34   19   20 2
@<TRIPOS>MOLECULE
ZINC44373455
   26    27     0     0     0
SMALL
USER_CHARGES

@<TRIPOS>ATOM
      1 C1          0.2026    2.1755    0.5791 C.3       1 <0>        -0.1574
      2 C2          0.2358    0.6764    0.2751 C.3       1 <0>         0.2584
      3 H1         -0.7820    0.3103    0.1405 H         1 <0>         0.0911
      4 C3          1.0266    0.4369   -0.9852 C.2       1 <0>         0.0363
      5 N1          0.5379    0.1345   -2.1792 N.2       1 <0>        -0.3760
      6 N2          1.5342    0.0110   -2.9882 N.2       1 <0>        -0.1906
      7 N3          2.6276    0.2253   -2.3429 N.2       1 <0>        -0.1884
      8 N4          2.3442    0.4937   -1.1140 N.2       1 <0>        -0.3733
      9 N5          0.8669   -0.0341    1.3900 N.pl3     1 <0>        -0.7003
     10 C4          0.1051   -0.4119    2.4981 C.ar      1 <0>         0.2895
     11 C5         -1.2206   -0.0092    2.6016 C.ar      1 <0>        -0.2021
     12 C6         -1.9710   -0.3848    3.6981 C.ar      1 <0>        -0.0249
     13 C7         -1.4044   -1.1611    4.6928 C.ar      1 <0>        -0.1889
     14 C8         -0.0853   -1.5632    4.5931 C.ar      1 <0>        -0.0140
     15 C9          0.6694   -1.1958    3.4962 C.ar      1 <0>        -0.1358
     16 N6          2.0796   -1.6318    3.3874 N.pl3     1 <0>         0.0433
     17 O1          2.5359   -1.9391    2.3108 O.2       1 <0>        -0.1693
     18 O2          2.7751   -1.6807    4.3750 O.3       1 <0>        -0.1660
     19 H2          1.2204    2.5416    0.7137 H         1 <0>         0.0635
     20 H3         -0.2669    2.7042   -0.2504 H         1 <0>         0.0695
     21 H4         -0.3694    2.3488    1.4907 H         1 <0>         0.0572
     22 H5          1.8138   -0.2422    1.3587 H         1 <0>         0.4187
     23 H6         -1.6635    0.5972    1.8254 H         1 <0>         0.1456
     24 H7         -3.0014   -0.0718    3.7794 H         1 <0>         0.1369
     25 H8         -1.9936   -1.4535    5.5494 H         1 <0>         0.1367
     26 H9          0.3543   -2.1687    5.3719 H         1 <0>         0.1402
@<TRIPOS>BOND
     1    1    2 1
     2    1   19 1
     3    1   20 1
     4    1   21 1
     5    2    3 1
     6    2    4 1
     7    2    9 1
     8    4    5 1
     9    4    8 2
    10    5    6 1
    11    6    7 2
    12    7    8 1
    13    9   10 1
    14    9   22 1
    15   10   15 ar
    16   10   11 ar
    17   11   12 ar
    18   11   23 1
    19   12   13 ar
    20   12   24 1
    21   13   14 ar
    22   13   25 1
    23   14   15 ar
    24   14   26 1
    25   15   16 1
    26   16   17 2
    27   16   18 1
@<TRIPOS>MOLECULE
ZINC50711883
   24    25     0     0     0
SMALL
USER_CHARGES

@<TRIPOS>ATOM
      1 C1         -0.0178    1.4608    0.0101 C.3       1 <0>         0.0980
      2 N1          0.0021   -0.0041    0.0020 N.pl3     1 <0>        -0.7324
      3 C2         -1.1886   -0.7133    0.0096 C.ar      1 <0>         0.3989
      4 C3         -2.3993   -0.0229    0.0191 C.ar      1 <0>        -0.2509
      5 C4         -3.5736   -0.7262    0.0266 C.ar      1 <0>         0.0093
      6 C5         -3.5140   -2.1289    0.0243 C.ar      1 <0>        -0.1690
      7 C6         -2.2655   -2.7541    0.0146 C.ar      1 <0>         0.1931
      8 N2         -1.1597   -2.0387    0.0022 N.ar      1 <0>        -0.5549
      9 C7         -4.7512   -2.9298    0.0326 C.2       1 <0>         0.4702
     10 O1         -5.9549   -2.3143    0.0424 O.3       1 <0>        -0.6416
     11 N3         -4.6844   -4.2411    0.0304 N.2       1 <0>        -0.6119
     12 C8         -5.8256   -4.9799    0.0380 C.2       1 <0>         0.3783
     13 N4         -7.0995   -4.5894    0.0421 N.2       1 <0>        -0.3604
     14 N5         -8.0466   -5.4223    0.0493 N.2       1 <0>        -0.2514
     15 C9         -7.8377   -6.7249    0.0530 C.2       1 <0>        -0.0574
     16 S1         -6.0476   -6.7567    0.0373 S.3       1 <0>        -0.1575
     17 H1          1.0048    1.8381    0.0023 H         1 <0>         0.0746
     18 H2         -0.5450    1.8219   -0.8730 H         1 <0>         0.0544
     19 H3         -0.5280    1.8123    0.9069 H         1 <0>         0.0544
     20 H4          0.8486   -0.4776   -0.0086 H         1 <0>         0.4032
     21 H5         -2.4108    1.0570    0.0210 H         1 <0>         0.1283
     22 H6         -4.5242   -0.2137    0.0344 H         1 <0>         0.1409
     23 H7         -2.2061   -3.8324    0.0127 H         1 <0>         0.1713
     24 H8         -8.5456   -7.5406    0.0595 H         1 <0>         0.2125
@<TRIPOS>BOND
     1    1    2 1
     2    1   17 1
     3    1   18 1
     4    1   19 1
     5    2    3 1
     6    2   20 1
     7    3    8 ar
     8    3    4 ar
     9    4    5 ar
    10    4   21 1
    11    5    6 ar
    12    5   22 1
    13    6    7 ar
    14    6    9 1
    15    7    8 ar
    16    7   23 1
    17    9   10 1
    18    9   11 2
    19   11   12 1
    20   12   16 1
    21   12   13 2
    22   13   14 1
    23   14   15 2
    24   15   16 1
    25   15   24 1
@<TRIPOS>MOLECULE
ZINC61844881
   25    26     0     0     0
SMALL
USER_CHARGES

@<TRIPOS>ATOM
      1 C1         -0.0184    1.5028    0.0103 C.3       1 <0>        -0.1107
      2 C2          0.0021   -0.0041    0.0020 C.ar      1 <0>        -0.1172
      3 C3          0.0057   -0.6888   -1.1991 C.ar      1 <0>        -0.0840
      4 C4          0.0245   -2.0707   -1.2067 C.ar      1 <0>        -0.1438
      5 C5          0.0400   -2.7685   -0.0132 C.ar      1 <0>        -0.0291
      6 C6          0.0373   -2.0840    1.1875 C.ar      1 <0>        -0.6174
      7 C7          0.0229   -0.7015    1.1951 C.ar      1 <0>        -0.0234
      8 S1          0.0566   -2.9732    2.7086 S.o2      1 <0>         2.6512
      9 O1         -0.5005   -2.1103    3.6906 O.2       1 <0>        -1.0158
     10 O2         -0.4791   -4.2603    2.4334 O.2       1 <0>        -1.0157
     11 N1          1.6437   -3.1998    3.1232 N.2       1 <0>        -1.0859
     12 C8          1.9656   -3.8778    4.2881 C.2       1 <0>         0.5045
     13 N2          3.2211   -4.1333    4.7574 N.pl3     1 <0>        -0.6122
     14 C9          3.0470   -4.8213    5.9263 C.2       1 <0>         0.0776
     15 N3          1.7639   -4.9505    6.1125 N.2       1 <0>        -0.2862
     16 N4          1.1204   -4.3903    5.1512 N.2       1 <0>        -0.4284
     17 H1          1.0042    1.8801    0.0026 H         1 <0>         0.0692
     18 H2         -0.5455    1.8639   -0.8728 H         1 <0>         0.0638
     19 H3         -0.5286    1.8543    0.9071 H         1 <0>         0.0678
     20 H4         -0.0064   -0.1437   -2.1314 H         1 <0>         0.1222
     21 H5          0.0266   -2.6056   -2.1449 H         1 <0>         0.1257
     22 H6          0.0540   -3.8484   -0.0191 H         1 <0>         0.1363
     23 H7          0.0246   -0.1666    2.1333 H         1 <0>         0.1359
     24 H8          3.8282   -5.1897    6.5747 H         1 <0>         0.2011
     25 H9          4.0626   -3.8800    4.3468 H         1 <0>         0.4143
@<TRIPOS>BOND
     1    1    2 1
     2    1   17 1
     3    1   18 1
     4    1   19 1
     5    2    7 ar
     6    2    3 ar
     7    3    4 ar
     8    3   20 1
     9    4    5 ar
    10    4   21 1
    11    5    6 ar
    12    5   22 1
    13    6    7 ar
    14    6    8 1
    15    7   23 1
    16    8    9 2
    17    8   10 2
    18    8   11 1
    19   11   12 1
    20   12   16 2
    21   12   13 1
    22   13   14 1
    23   13   25 1
    24   14   15 2
    25   14   24 1
    26   15   16 1
@<TRIPOS>MOLECULE
ZINC62767291
   28    29     0     0     0
SMALL
USER_CHARGES

@<TRIPOS>ATOM
      1 C1         -0.0178    1.4608    0.0101 C.3       1 <0>         0.0959
      2 N1          0.0021   -0.0041    0.0020 N.am      1 <0>        -0.5393
      3 C2          0.0082   -0.7871   -1.0951 C.2       1 <0>         0.6513
      4 O1         -0.0014   -0.4052   -2.2520 O.2       1 <0>        -0.5635
      5 N2          0.0273   -2.0704   -0.6796 N.am      1 <0>        -0.5464
      6 H1          0.0360   -2.8574   -1.2465 H         1 <0>         0.4538
      7 N3          0.0329   -2.0574    0.7220 N.2       1 <0>        -0.2782
      8 C3          0.0237   -0.8158    1.1136 C.2       1 <0>         0.2631
      9 S1          0.0325   -0.2660    2.7876 S.3       1 <0>        -0.0085
     10 C4          0.0623   -1.8012    3.7535 C.3       1 <0>        -0.0438
     11 H2          0.8994   -2.4241    3.4383 H         1 <0>         0.1159
     12 C5         -1.2644   -2.5666    3.5703 C.3       1 <0>        -0.1091
     13 C6         -1.5463   -3.1775    4.9655 C.3       1 <0>        -0.1155
     14 C7         -1.0795   -2.0584    5.9292 C.3       1 <0>        -0.0977
     15 C8          0.1812   -1.4781    5.2532 C.3       1 <0>        -0.1375
     16 H3          0.2209   -0.3988    5.4006 H         1 <0>         0.0717
     17 C9          1.4176   -2.1235    5.8240 C.2       1 <0>         0.5049
     18 O2          2.1013   -1.5210    6.6339 O.co2     1 <0>        -0.6931
     19 O3          1.7342   -3.2482    5.4758 O.co2     1 <0>        -0.6861
     20 H4          1.0048    1.8381    0.0023 H         1 <0>         0.0767
     21 H5         -0.5450    1.8219   -0.8730 H         1 <0>         0.0904
     22 H6         -0.5280    1.8123    0.9069 H         1 <0>         0.0914
     23 H7         -2.0634   -1.8823    3.2850 H         1 <0>         0.0669
     24 H8         -1.1509   -3.3539    2.8250 H         1 <0>         0.0733
     25 H9         -2.6103   -3.3772    5.0919 H         1 <0>         0.0610
     26 H10        -0.9614   -4.0850    5.1151 H         1 <0>         0.0774
     27 H11        -1.8486   -1.2920    6.0249 H         1 <0>         0.0580
     28 H12        -0.8310   -2.4747    6.9054 H         1 <0>         0.0668
@<TRIPOS>BOND
     1    1    2 1
     2    1   20 1
     3    1   21 1
     4    1   22 1
     5    2    8 1
     6    2    3 am
     7    3    4 2
     8    3    5 am
     9    5    6 1
    10    5    7 1
    11    7    8 2
    12    8    9 1
    13    9   10 1
    14   10   11 1
    15   10   15 1
    16   10   12 1
    17   12   13 1
    18   12   23 1
    19   12   24 1
    20   13   14 1
    21   13   25 1
    22   13   26 1
    23   14   15 1
    24   14   27 1
    25   14   28 1
    26   15   16 1
    27   15   17 1
    28   17   18 2
    29   17   19 1
@<TRIPOS>MOLECULE
ZINC19753951
   19    20     0     0     0
SMALL
USER_CHARGES
3-(trifluoromethyl)-[1,2,4]triazolo[3,4-f]pyridin-6-amine
@<TRIPOS>ATOM
      1 C1         -1.1951    1.7461    0.0172 C.2       1 <0>        -0.1188
      2 C2         -0.0126    1.0758    0.0080 C.2       1 <0>        -0.0366
      3 C3          1.1932    1.8033    0.0004 C.2       1 <0>         0.1833
      4 N1          2.4687    1.4484   -0.0142 N.2       1 <0>        -0.2649
      5 N2          3.2069    2.5023   -0.0158 N.2       1 <0>        -0.1849
      6 C4          2.4615    3.5777   -0.0026 C.2       1 <0>         0.0220
      7 N3          1.1623    3.1752    0.0081 N.pl3     1 <0>        -0.3236
      8 C5         -0.0300    3.8418    0.0235 C.2       1 <0>        -0.0794
      9 C6         -1.1993    3.1561    0.0313 C.2       1 <0>         0.2307
     10 N4         -2.4159    3.8506    0.0476 N.pl3     1 <0>        -0.8814
     11 C7          2.9528    5.0024   -0.0006 C.3       1 <0>         0.5764
     12 F1          4.3059    5.0295   -0.3550 F         1 <0>        -0.1448
     13 F2          2.2141    5.7517   -0.9225 F         1 <0>        -0.1671
     14 F3          2.7945    5.5484    1.2777 F         1 <0>        -0.1628
     15 H1         -2.1274    1.2009    0.0185 H         1 <0>         0.1559
     16 H2          0.0021   -0.0041    0.0020 H         1 <0>         0.1705
     17 H3         -0.0411    4.9217    0.0290 H         1 <0>         0.1663
     18 H4         -2.4212    4.9505    0.0586 H         1 <0>         0.4279
     19 H5         -3.3658    3.2960    0.0494 H         1 <0>         0.4316
@<TRIPOS>BOND
     1    1    9 1
     2    1    2 2
     3    1   15 1
     4    2    3 1
     5    2   16 1
     6    3    7 1
     7    3    4 2
     8    4    5 1
     9    5    6 2
    10    6    7 1
    11    6   11 1
    12    7    8 1
    13    8    9 2
    14    8   17 1
    15    9   10 1
    16   10   18 1
    17   10   19 1
    18   11   12 1
    19   11   13 1
    20   11   14 1
@<TRIPOS>MOLECULE
ZINC33464463
   29    30     0     0     0
SMALL
USER_CHARGES
5-amino-1-cyclohexyl-pyrimidin-2-one
@<TRIPOS>ATOM
      1 C1         -2.8540    4.4666   -4.5790 C.2       1 <0>         0.2164
      2 C2         -1.5147    4.8466   -4.4069 C.2       1 <0>         0.0581
      3 C3         -0.8382    4.4040   -3.3069 C.2       1 <0>         0.0633
      4 N1         -1.4820    3.6078   -2.4100 N.am      1 <0>        -0.4941
      5 C4         -2.7664    3.2608   -2.6138 C.2       1 <0>         0.6117
      6 O1         -3.3295    2.5422   -1.8045 O.2       1 <0>        -0.5362
      7 N2         -3.4356    3.6941   -3.6838 N.2       1 <0>        -0.5215
      8 C5         -0.7734    3.1225   -1.2231 C.3       1 <0>         0.1403
      9 C6         -0.7527    1.5927   -1.2315 C.3       1 <0>        -0.1373
     10 C7         -0.0127    1.0858    0.0080 C.3       1 <0>        -0.1132
     11 C8         -0.7288    1.5792    1.2668 C.3       1 <0>        -0.1248
     12 C9         -0.7496    3.1091    1.2752 C.3       1 <0>        -0.1132
     13 C10        -1.4896    3.6159    0.0357 C.3       1 <0>        -0.1368
     14 N3         -0.8803    5.6694   -5.3507 N.pl3     1 <0>        -0.8959
     15 H1         -3.4068    4.8064   -5.4423 H         1 <0>         0.1720
     16 H2          0.1935    4.6821   -3.1502 H         1 <0>         0.1636
     17 H3          0.2496    3.5240   -1.2694 H         1 <0>         0.0936
     18 H4         -1.7847    1.2120   -1.2237 H         1 <0>         0.0958
     19 H5         -0.2379    1.2379   -2.1365 H         1 <0>         0.0622
     20 H6          0.0022   -0.0141    0.0019 H         1 <0>         0.0696
     21 H7          1.0193    1.4665    0.0002 H         1 <0>         0.0622
     22 H8         -1.7608    1.1984    1.2746 H         1 <0>         0.0680
     23 H9         -0.1968    1.2148    2.1580 H         1 <0>         0.0657
     24 H10        -1.2645    3.4638    2.1802 H         1 <0>         0.0696
     25 H11         0.2824    3.4899    1.2674 H         1 <0>         0.0623
     26 H12        -1.5046    4.7158    0.0417 H         1 <0>         0.0623
     27 H13        -2.5216    3.2351    0.0435 H         1 <0>         0.0950
     28 H14         0.1703    5.9622   -5.2073 H         1 <0>         0.4182
     29 H15        -1.4337    6.0214   -6.2338 H         1 <0>         0.4233
@<TRIPOS>BOND
     1    1    7 2
     2    1    2 1
     3    1   15 1
     4    2    3 2
     5    2   14 1
     6    3    4 1
     7    3   16 1
     8    4    5 am
     9    4    8 1
    10    5    6 2
    11    5    7 1
    12    8   13 1
    13    8    9 1
    14    8   17 1
    15    9   10 1
    16    9   18 1
    17    9   19 1
    18   10   11 1
    19   10   20 1
    20   10   21 1
    21   11   12 1
    22   11   22 1
    23   11   23 1
    24   12   13 1
    25   12   24 1
    26   12   25 1
    27   13   26 1
    28   13   27 1
    29   14   28 1
    30   14   29 1
@<TRIPOS>MOLECULE
ZINC40455742
   32    32     0     0     0
SMALL
USER_CHARGES

@<TRIPOS>ATOM
      1 C1         -0.0187    1.5258    0.0104 C.3       1 <0>        -0.1643
      2 C2          0.0021   -0.0041    0.0020 C.3       1 <0>         0.1579
      3 H1          0.5123   -0.3556   -0.8948 H         1 <0>         0.1055
      4 C3          0.7421   -0.5109    1.2415 C.3       1 <0>        -0.1067
      5 C4          0.7628   -2.0407    1.2331 C.3       1 <0>        -0.1401
      6 C5          2.1775    0.0187    1.2307 C.3       1 <0>        -0.1470
      7 N1         -1.3723   -0.5112    0.0124 N.pl3     1 <0>        -0.5861
      8 C6         -2.2686   -0.1755    1.1216 C.3       1 <0>         0.1038
      9 C7         -1.8250   -1.3091   -1.0279 C.ar      1 <0>         0.5202
     10 N2         -0.9987   -1.6063   -2.0190 N.ar      1 <0>        -0.5304
     11 C8         -1.3954   -2.3649   -3.0277 C.ar      1 <0>         0.1214
     12 C9         -2.6993   -2.8513   -3.0371 C.ar      1 <0>         0.0513
     13 C10        -3.5383   -2.5175   -1.9781 C.ar      1 <0>         0.1212
     14 N3         -3.0705   -1.7581   -1.0011 N.ar      1 <0>        -0.5317
     15 N4         -3.1565   -3.6572   -4.0878 N.pl3     1 <0>        -0.8718
     16 H2          1.0039    1.9031    0.0027 H         1 <0>         0.0706
     17 H3         -0.5459    1.8868   -0.8726 H         1 <0>         0.0562
     18 H4         -0.5289    1.8773    0.9072 H         1 <0>         0.0568
     19 H5          0.2319   -0.1594    2.1383 H         1 <0>         0.0708
     20 H6          1.2730   -2.3923    0.3363 H         1 <0>         0.0539
     21 H7          1.2900   -2.4018    2.1162 H         1 <0>         0.0517
     22 H8         -0.2598   -2.4180    1.2409 H         1 <0>         0.0513
     23 H9          2.1627    1.1086    1.2367 H         1 <0>         0.0594
     24 H10         2.7046   -0.3424    2.1137 H         1 <0>         0.0568
     25 H11         2.6876   -0.3328    0.3339 H         1 <0>         0.0571
     26 H12        -2.8038    0.7455    0.8903 H         1 <0>         0.0467
     27 H13        -2.9842   -0.9845    1.2681 H         1 <0>         0.0760
     28 H14        -1.6846   -0.0376    2.0316 H         1 <0>         0.0661
     29 H15        -0.7165   -2.6033   -3.8331 H         1 <0>         0.1621
     30 H16        -4.5565   -2.8768   -1.9523 H         1 <0>         0.1621
     31 H17        -2.5620   -3.8824   -4.8204 H         1 <0>         0.3997
     32 H18        -4.0676   -3.9899   -4.0827 H         1 <0>         0.3997
@<TRIPOS>BOND
     1    1    2 1
     2    1   16 1
     3    1   17 1
     4    1   18 1
     5    2    3 1
     6    2    4 1
     7    2    7 1
     8    4    5 1
     9    4    6 1
    10    4   19 1
    11    5   20 1
    12    5   21 1
    13    5   22 1
    14    6   23 1
    15    6   24 1
    16    6   25 1
    17    7    8 1
    18    7    9 1
    19    8   26 1
    20    8   27 1
    21    8   28 1
    22    9   14 ar
    23    9   10 ar
    24   10   11 ar
    25   11   12 ar
    26   11   29 1
    27   12   13 ar
    28   12   15 1
    29   13   14 ar
    30   13   30 1
    31   15   31 1
    32   15   32 1
@<TRIPOS>MOLECULE
ZINC49811679
   19    20     0     0     0
SMALL
USER_CHARGES

@<TRIPOS>ATOM
      1 C1         -0.0370    1.3427    0.0604 C.ar      1 <0>        -0.1008
      2 C2          1.1358    2.0594   -0.0906 C.ar      1 <0>        -0.1188
      3 C3          2.3517    1.4023   -0.1192 C.ar      1 <0>         0.1304
      4 C4          2.3939    0.0124    0.0047 C.ar      1 <0>        -0.0522
      5 C5          1.2087   -0.7045    0.1566 C.ar      1 <0>        -0.1025
      6 C6         -0.0011   -0.0367    0.1837 C.ar      1 <0>         0.0985
      7 F1         -1.1510   -0.7305    0.3309 F         1 <0>        -0.1249
      8 C7          3.6949   -0.6983   -0.0257 C.2       1 <0>         0.1006
      9 C8          4.0024   -1.8965   -0.8164 C.2       1 <0>         0.3427
     10 N1          5.2417   -2.2321   -0.5867 N.2       1 <0>        -0.3472
     11 O1          5.7825   -1.3005    0.3331 O.3       1 <0>         0.0348
     12 N2          4.7668   -0.3626    0.6424 N.2       1 <0>        -0.2393
     13 N3          3.1236   -2.5597   -1.6638 N.pl3     1 <0>        -0.8129
     14 F2          3.4968    2.1038   -0.2672 F         1 <0>        -0.1176
     15 H1         -0.9843    1.8607    0.0867 H         1 <0>         0.1567
     16 H2          1.1018    3.1346   -0.1867 H         1 <0>         0.1590
     17 H3          1.2354   -1.7799    0.2525 H         1 <0>         0.1537
     18 H4          2.2438   -2.1895   -1.8364 H         1 <0>         0.4190
     19 H5          3.3898   -3.3931   -2.0829 H         1 <0>         0.4209
@<TRIPOS>BOND
     1    1    6 ar
     2    1    2 ar
     3    1   15 1
     4    2    3 ar
     5    2   16 1
     6    3    4 ar
     7    3   14 1
     8    4    5 ar
     9    4    8 1
    10    5    6 ar
    11    5   17 1
    12    6    7 1
    13    8   12 2
    14    8    9 1
    15    9   10 2
    16    9   13 1
    17   10   11 1
    18   11   12 1
    19   13   18 1
    20   13   19 1
@<TRIPOS>MOLECULE
ZINC55482509
   31    31     0     0     0
SMALL
USER_CHARGES

@<TRIPOS>ATOM
      1 C1         -0.0187    1.5258    0.0104 C.3       1 <0>        -0.1525
      2 C2          0.0021   -0.0041    0.0020 C.3       1 <0>        -0.0942
      3 H1          0.5123   -0.3556   -0.8948 H         1 <0>         0.0763
      4 C3         -1.4333   -0.5336    0.0129 C.3       1 <0>        -0.1153
      5 C4         -1.4126   -2.0635    0.0045 C.3       1 <0>        -0.1224
      6 C5         -0.6726   -2.5703    1.2440 C.3       1 <0>        -0.1193
      7 C6          0.7628   -2.0407    1.2331 C.3       1 <0>        -0.1305
      8 C7          0.7421   -0.5109    1.2415 C.3       1 <0>         0.1477
      9 H2          0.2319   -0.1594    2.1383 H         1 <0>         0.1019
     10 N1          2.1165   -0.0038    1.2311 N.pl3     1 <0>        -1.0005
     11 C8          3.0127   -0.3395    0.1220 C.3       1 <0>         0.0918
     12 S1          2.6570    0.9488    2.4732 S.o2      1 <0>         2.7889
     13 O1          3.7362    1.7156    1.9569 O.2       1 <0>        -0.9798
     14 O2          1.5074    1.5474    3.0558 O.2       1 <0>        -0.9764
     15 N2          3.2985   -0.0590    3.6199 N.pl3     1 <0>        -1.2616
     16 H3          1.0039    1.9031    0.0027 H         1 <0>         0.0506
     17 H4         -0.5459    1.8868   -0.8726 H         1 <0>         0.0587
     18 H5         -0.5289    1.8773    0.9072 H         1 <0>         0.0623
     19 H6         -1.9435   -0.1821    0.9097 H         1 <0>         0.0665
     20 H7         -1.9605   -0.1726   -0.8702 H         1 <0>         0.0678
     21 H8         -2.4352   -2.4408    0.0122 H         1 <0>         0.0651
     22 H9         -0.9024   -2.4150   -0.8923 H         1 <0>         0.0628
     23 H10        -1.1828   -2.2188    2.1408 H         1 <0>         0.0656
     24 H11        -0.6578   -3.6602    1.2380 H         1 <0>         0.0672
     25 H12         1.2900   -2.4018    2.1162 H         1 <0>         0.0650
     26 H13         1.2730   -2.3923    0.3363 H         1 <0>         0.0717
     27 H14         2.9221    0.4149   -0.6595 H         1 <0>         0.0609
     28 H15         4.0412   -0.3682    0.4818 H         1 <0>         0.0722
     29 H16         2.7417   -1.3151   -0.2817 H         1 <0>         0.0756
     30 H17         4.0235    0.2493    4.1857 H         1 <0>         0.4199
     31 H18         2.9491   -0.9577    3.7258 H         1 <0>         0.4138
@<TRIPOS>BOND
     1    1    2 1
     2    1   16 1
     3    1   17 1
     4    1   18 1
     5    2    3 1
     6    2    8 1
     7    2    4 1
     8    4    5 1
     9    4   19 1
    10    4   20 1
    11    5    6 1
    12    5   21 1
    13    5   22 1
    14    6    7 1
    15    6   23 1
    16    6   24 1
    17    7    8 1
    18    7   25 1
    19    7   26 1
    20    8    9 1
    21    8   10 1
    22   10   11 1
    23   10   12 1
    24   11   27 1
    25   11   28 1
    26   11   29 1
    27   12   13 2
    28   12   14 2
    29   12   15 1
    30   15   30 1
    31   15   31 1
@<TRIPOS>MOLECULE
ZINC12374474
   19    20     0     0     0
SMALL
USER_CHARGES
5-[(4-chlorophenyl)methyl]-1H-tetrazole
@<TRIPOS>ATOM
      1 C1         -1.2250    2.1774    0.0197 C.ar      1 <0>        -0.1019
      2 C2         -1.2443    3.5593    0.0331 C.ar      1 <0>        -0.1137
      3 C3         -0.0559    4.2676    0.0255 C.ar      1 <0>        -0.0446
      4 C4          1.1514    3.5919    0.0104 C.ar      1 <0>        -0.1122
      5 C5          1.1695    2.2099    0.0028 C.ar      1 <0>        -0.0865
      6 C6         -0.0184    1.5028    0.0103 C.ar      1 <0>        -0.0482
      7 C7          0.0021   -0.0041    0.0020 C.3       1 <0>         0.0329
      8 C8          0.0225   -0.5140    1.4200 C.2       1 <0>         0.0524
      9 N1         -0.4772   -1.5550    3.1992 N.2       1 <0>        -0.1858
     10 N2          0.5701   -0.8408    3.4236 N.2       1 <0>        -0.2112
     11 N3          0.8918   -0.2040    2.3507 N.2       1 <0>        -0.3745
     12 Cl1        -0.0794    6.0034    0.0356 Cl        1 <0>        -0.0879
     13 H1         -2.1527    1.6244    0.0211 H         1 <0>         0.1295
     14 H2         -2.1870    4.0862    0.0449 H         1 <0>         0.1275
     15 H3          2.0794    4.1443    0.0048 H         1 <0>         0.1285
     16 H4          2.1118    1.6824   -0.0087 H         1 <0>         0.1323
     17 H5         -0.8878   -0.3767   -0.5053 H         1 <0>         0.0818
     18 H6          0.8920   -0.3525   -0.5222 H         1 <0>         0.0759
     19 N4         -0.8335   -1.3743    1.9814 N.2       1 <0>        -0.3943
@<TRIPOS>BOND
     1    1    6 ar
     2    1    2 ar
     3    1   13 1
     4    2    3 ar
     5    2   14 1
     6    3    4 ar
     7    3   12 1
     8    4    5 ar
     9    4   15 1
    10    5    6 ar
    11    5   16 1
    12    6    7 1
    13    7    8 1
    14    7   17 1
    15    7   18 1
    16    8   11 2
    17    8   19 1
    18    9   10 2
    19    9   19 1
    20   10   11 1
@<TRIPOS>MOLECULE
ZINC34448790
   18    19     0     0     0
SMALL
USER_CHARGES

@<TRIPOS>ATOM
      1 C1         -0.0184    1.5028    0.0103 C.3       1 <0>        -0.0657
      2 C2          0.0021   -0.0041    0.0020 C.2       1 <0>        -0.2529
      3 C3          0.0079   -0.8000   -1.1048 C.2       1 <0>         0.0791
      4 O1          0.0272   -2.0819   -0.6892 O.3       1 <0>        -0.1170
      5 N1          0.0336   -2.0812    0.7266 N.2       1 <0>        -0.4359
      6 C4          0.0246   -0.8375    1.1346 C.2       1 <0>         0.3623
      7 O2          0.0325   -0.4237    2.4273 O.3       1 <0>        -0.7149
      8 C5         -0.0051   -0.3420   -2.5018 C.2       1 <0>         0.0732
      9 C6         -0.0047   -1.1409   -3.6063 C.2       1 <0>        -0.1893
     10 C7         -0.0204   -0.2863   -4.7241 C.2       1 <0>        -0.2113
     11 C8         -0.0295    0.9785   -4.2557 C.2       1 <0>        -0.0468
     12 O3         -0.0253    0.9412   -2.9140 O.3       1 <0>        -0.1595
     13 H1          1.0042    1.8801    0.0026 H         1 <0>         0.0537
     14 H2         -0.5455    1.8639   -0.8728 H         1 <0>         0.0533
     15 H3         -0.5286    1.8543    0.9071 H         1 <0>         0.0645
     16 H4          0.0056   -2.2207   -3.6207 H         1 <0>         0.1539
     17 H5         -0.0244   -0.5865   -5.7615 H         1 <0>         0.1492
     18 H6         -0.0422    1.8733   -4.8602 H         1 <0>         0.2040
@<TRIPOS>BOND
     1    1    2 1
     2    1   13 1
     3    1   14 1
     4    1   15 1
     5    2    6 1
     6    2    3 2
     7    3    4 1
     8    3    8 1
     9    4    5 1
    10    5    6 2
    11    6    7 1
    12    8   12 1
    13    8    9 2
    14    9   10 1
    15    9   16 1
    16   10   11 2
    17   10   17 1
    18   11   12 1
    19   11   18 1
@<TRIPOS>MOLECULE
ZINC05484088
   24    25     0     0     0
SMALL
USER_CHARGES

@<TRIPOS>ATOM
      1 C1         -0.0173    1.4248    0.0099 C.3       1 <0>         0.0274
      2 O1          0.0021   -0.0041    0.0020 O.3       1 <0>        -0.3198
      3 C2          0.6258   -0.6184    1.0415 C.ar      1 <0>         0.1227
      4 C3          1.2022    0.1384    2.0513 C.ar      1 <0>        -0.2084
      5 C4          1.8353   -0.4884    3.1070 C.ar      1 <0>        -0.0655
      6 C5          1.8951   -1.8688    3.1577 C.ar      1 <0>        -0.1186
      7 C6          1.3218   -2.6253    2.1523 C.ar      1 <0>        -0.0610
      8 C7          0.6822   -2.0034    1.0976 C.ar      1 <0>        -0.1526
      9 C8          2.5867   -2.5500    4.3104 C.3       1 <0>         0.0368
     10 C9          1.5923   -2.8038    5.4139 C.2       1 <0>         0.0903
     11 N1          0.8642   -3.8715    5.5616 N.2       1 <0>        -0.2823
     12 N2          0.1290   -3.7499    6.6103 N.2       1 <0>        -0.3483
     13 C10         0.3650   -2.5891    7.1732 C.2       1 <0>         0.3362
     14 S1         -0.3949   -1.9623    8.6341 S.3       1 <0>        -0.7426
     15 O2          1.3002   -1.9681    6.4299 O.3       1 <0>        -0.2426
     16 H1          1.0053    1.8021    0.0021 H         1 <0>         0.0544
     17 H2         -0.5445    1.7859   -0.8732 H         1 <0>         0.0977
     18 H3         -0.5275    1.7763    0.9067 H         1 <0>         0.0555
     19 H4          1.1564    1.2167    2.0118 H         1 <0>         0.1273
     20 H5          2.2842    0.1003    3.8934 H         1 <0>         0.1272
     21 H6          1.3701   -3.7035    2.1940 H         1 <0>         0.1348
     22 H7          0.2307   -2.5948    0.3148 H         1 <0>         0.1305
     23 H8          3.0056   -3.4983    3.9736 H         1 <0>         0.1073
     24 H9          3.3874   -1.9109    4.6827 H         1 <0>         0.0936
@<TRIPOS>BOND
     1    1    2 1
     2    1   16 1
     3    1   17 1
     4    1   18 1
     5    2    3 1
     6    3    8 ar
     7    3    4 ar
     8    4    5 ar
     9    4   19 1
    10    5    6 ar
    11    5   20 1
    12    6    7 ar
    13    6    9 1
    14    7    8 ar
    15    7   21 1
    16    8   22 1
    17    9   10 1
    18    9   23 1
    19    9   24 1
    20   10   15 1
    21   10   11 2
    22   11   12 1
    23   12   13 2
    24   13   14 1
    25   13   15 1
@<TRIPOS>MOLECULE
ZINC44830632
   18    20     0     0     0
SMALL
USER_CHARGES

@<TRIPOS>ATOM
      1 C1         -0.0167    1.3801    0.0096 C.ar      1 <0>        -0.2158
      2 C2          1.1827    2.0719    0.0019 C.ar      1 <0>         0.0084
      3 C3          2.3648    1.3362   -0.0133 C.ar      1 <0>        -0.1748
      4 C4          3.7940    1.6853   -0.0246 C.ar      1 <0>         0.2038
      5 C5          4.4802    0.4610   -0.0375 C.ar      1 <0>        -0.1501
      6 C6          5.8709    0.4929   -0.0506 C.ar      1 <0>         0.2992
      7 N1          6.4858    1.6655   -0.0503 N.ar      1 <0>        -0.5436
      8 C7          5.8042    2.8009   -0.0380 C.ar      1 <0>         0.5627
      9 N2          4.4824    2.8210   -0.0253 N.ar      1 <0>        -0.5490
     10 O1          6.4807    3.9753   -0.0383 O.3       1 <0>        -0.6564
     11 Cl1         6.7862   -0.9821   -0.0664 Cl        1 <0>        -0.0451
     12 O2          3.5759   -0.5406   -0.0346 O.3       1 <0>        -0.1755
     13 C8          2.3112   -0.0673   -0.0204 C.ar      1 <0>         0.3142
     14 N3          1.1337   -0.6772   -0.0121 N.ar      1 <0>        -0.4884
     15 C9          0.0021   -0.0041    0.0020 C.ar      1 <0>         0.1534
     16 H1         -0.9554    1.9138    0.0259 H         1 <0>         0.1437
     17 H2          1.2008    3.1517    0.0072 H         1 <0>         0.1439
     18 H3         -0.9330   -0.5444    0.0084 H         1 <0>         0.1694
@<TRIPOS>BOND
     1    1   15 ar
     2    1    2 ar
     3    1   16 1
     4    2    3 ar
     5    2   17 1
     6    3   13 ar
     7    3    4 1
     8    4    9 ar
     9    4    5 ar
    10    5    6 ar
    11    5   12 1
    12    6    7 ar
    13    6   11 1
    14    7    8 ar
    15    8    9 ar
    16    8   10 1
    17   12   13 1
    18   13   14 ar
    19   14   15 ar
    20   15   18 1
@<TRIPOS>MOLECULE
ZINC62117221
   27    27     0     0     0
SMALL
USER_CHARGES

@<TRIPOS>ATOM
      1 C1          0.0510    1.3443    0.7279 C.3       1 <0>        -0.1381
      2 C2          0.0014   -0.0022    0.0030 C.3       1 <0>        -0.1119
      3 C3          1.0115   -0.9604    0.6374 C.3       1 <0>        -0.1342
      4 C4         -1.3840   -0.5840    0.1185 C.2       1 <0>         0.5262
      5 O1         -1.6889   -1.2347    1.0955 O.2       1 <0>        -0.5492
      6 N1         -2.2840   -0.3814   -0.8640 N.am      1 <0>        -0.6175
      7 C5         -2.0172    0.2873   -2.1459 C.3       1 <0>         0.1009
      8 C6         -3.3297    0.2630   -2.9572 C.3       1 <0>        -0.1069
      9 C7         -4.1104   -0.9168   -2.3200 C.3       1 <0>        -0.1670
     10 H1         -3.7868   -1.8703   -2.7376 H         1 <0>         0.0748
     11 C8         -3.6975   -0.7991   -0.8339 C.3       1 <0>         0.1260
     12 C9         -5.5969   -0.7339   -2.4872 C.2       1 <0>         0.5043
     13 O2         -6.0831   -0.6834   -3.6042 O.co2     1 <0>        -0.6954
     14 O3         -6.3133   -0.6365   -1.5055 O.co2     1 <0>        -0.6914
     15 H2          1.0729    1.7235    0.7203 H         1 <0>         0.0653
     16 H3         -0.6036    2.0538    0.2217 H         1 <0>         0.0586
     17 H4         -0.2808    1.2148    1.7580 H         1 <0>         0.0622
     18 H5          0.2484    0.1420   -1.0488 H         1 <0>         0.0863
     19 H6          0.7645   -1.1047    1.6892 H         1 <0>         0.0667
     20 H7          0.9761   -1.9197    0.1210 H         1 <0>         0.0553
     21 H8          2.0135   -0.5396    0.5539 H         1 <0>         0.0602
     22 H9         -1.7096    1.3180   -1.9694 H         1 <0>         0.0631
     23 H10        -1.2367   -0.2472   -2.6874 H         1 <0>         0.0631
     24 H11        -3.8763    1.1980   -2.8346 H         1 <0>         0.0722
     25 H12        -3.1284    0.0680   -4.0106 H         1 <0>         0.0789
     26 H13        -3.7978   -1.7627   -0.3344 H         1 <0>         0.0699
     27 H14        -4.3051   -0.0458   -0.3324 H         1 <0>         0.0777
@<TRIPOS>BOND
     1    1    2 1
     2    1   15 1
     3    1   16 1
     4    1   17 1
     5    2    3 1
     6    2    4 1
     7    2   18 1
     8    3   19 1
     9    3   20 1
    10    3   21 1
    11    4    5 2
    12    4    6 am
    13    6   11 1
    14    6    7 1
    15    7    8 1
    16    7   22 1
    17    7   23 1
    18    8    9 1
    19    8   24 1
    20    8   25 1
    21    9   10 1
    22    9   11 1
    23    9   12 1
    24   11   26 1
    25   11   27 1
    26   12   13 2
    27   12   14 1
@<TRIPOS>MOLECULE
ZINC02538071
   24    25     0     0     0
SMALL
USER_CHARGES
[4-(1-methylpyrazol-4-yl)pyrimidin-2-yl]hydrazine
@<TRIPOS>ATOM
      1 C1         -0.0127    1.0858    0.0080 C.3       1 <0>         0.0966
      2 N1         -0.6984    1.5583    1.2133 N.pl3     1 <0>        -0.3703
      3 C2         -0.1176    1.8225    2.3987 C.2       1 <0>         0.1163
      4 C3         -1.0973    2.2375    3.2555 C.2       1 <0>        -0.2184
      5 C4         -2.3158    2.2189    2.5468 C.2       1 <0>         0.0834
      6 N2         -2.0692    1.8182    1.3284 N.2       1 <0>        -0.2944
      7 C5         -0.9129    2.6347    4.6714 C.ar      1 <0>         0.3115
      8 C6         -2.0059    3.0420    5.4427 C.ar      1 <0>        -0.2874
      9 C7         -1.7854    3.4027    6.7586 C.ar      1 <0>         0.1951
     10 N3         -0.5554    3.3526    7.2470 N.ar      1 <0>        -0.5648
     11 C8          0.4624    2.9627    6.4936 C.ar      1 <0>         0.5779
     12 N4          0.2950    2.6039    5.2302 N.ar      1 <0>        -0.5805
     13 N5          1.7323    2.9250    7.0427 N.pl3     1 <0>        -0.5502
     14 N6          1.9240    3.2870    8.3459 N.3       1 <0>        -0.5892
     15 H1          0.0021   -0.0041    0.0020 H         1 <0>         0.0800
     16 H2          1.0099    1.4631    0.0003 H         1 <0>         0.0914
     17 H3         -0.5399    1.4469   -0.8751 H         1 <0>         0.0938
     18 H4          0.9327    1.7246    2.6302 H         1 <0>         0.1854
     19 H5         -3.2833    2.4925    2.9411 H         1 <0>         0.1918
     20 H6         -2.9992    3.0743    5.0199 H         1 <0>         0.1436
     21 H7         -2.6075    3.7224    7.3819 H         1 <0>         0.1685
     22 H8          2.4862    2.6415    6.5022 H         1 <0>         0.4157
     23 H9          1.3416    2.7404    8.9624 H         1 <0>         0.3458
     24 H10         2.8964    3.2090    8.6036 H         1 <0>         0.3585
@<TRIPOS>BOND
     1    1    2 1
     2    1   15 1
     3    1   16 1
     4    1   17 1
     5    2    6 1
     6    2    3 1
     7    3    4 2
     8    3   18 1
     9    4    5 1
    10    4    7 1
    11    5    6 2
    12    5   19 1
    13    7   12 ar
    14    7    8 ar
    15    8    9 ar
    16    8   20 1
    17    9   10 ar
    18    9   21 1
    19   10   11 ar
    20   11   12 ar
    21   11   13 1
    22   13   14 1
    23   13   22 1
    24   14   23 1
    25   14   24 1
@<TRIPOS>MOLECULE
ZINC37926230
   31    32     0     0     0
SMALL
USER_CHARGES

@<TRIPOS>ATOM
      1 C1         -0.0184    1.5028    0.0103 C.3       1 <0>        -0.0788
      2 C2          0.0021   -0.0041    0.0020 C.2       1 <0>         0.1455
      3 C3          0.0081   -0.8275   -1.1485 C.2       1 <0>        -0.3587
      4 C4          0.0285   -2.1474   -0.7036 C.2       1 <0>         0.4090
      5 N1          0.0344   -2.1116    0.6444 N.pl3     1 <0>        -0.4941
      6 H1          0.0484   -2.8834    1.2317 H         1 <0>         0.4392
      7 N2          0.0230   -0.7737    1.0530 N.2       1 <0>        -0.3006
      8 N3          0.0405   -3.2788   -1.4938 N.pl3     1 <0>        -0.8434
      9 C5         -0.0052   -0.3767   -2.5453 C.2       1 <0>         0.6050
     10 O1          1.0430   -0.1749   -3.1295 O.2       1 <0>        -0.5310
     11 N4         -1.1784   -0.1863   -3.1808 N.am      1 <0>        -0.6098
     12 C6         -2.4403   -0.4293   -2.4775 C.3       1 <0>         0.0849
     13 C7         -1.1917    0.2636   -4.5749 C.3       1 <0>         0.1442
     14 C8         -1.1790   -0.9523   -5.5034 C.3       1 <0>        -0.1726
     15 C9          0.0350   -1.1307   -6.4174 C.3       1 <0>        -0.1706
     16 C10        -1.3083   -0.6952   -7.0061 C.3       1 <0>        -0.1761
     17 H2          1.0042    1.8801    0.0026 H         1 <0>         0.0835
     18 H3         -0.5455    1.8639   -0.8728 H         1 <0>         0.0752
     19 H4         -0.5286    1.8543    0.9071 H         1 <0>         0.0795
     20 H5          0.0348   -3.1956   -2.4602 H         1 <0>         0.4196
     21 H6          0.0547   -4.1573   -1.0827 H         1 <0>         0.4057
     22 H7         -2.7656    0.4884   -1.9873 H         1 <0>         0.0567
     23 H8         -3.1991   -0.7481   -3.1921 H         1 <0>         0.0690
     24 H9         -2.2952   -1.2089   -1.7296 H         1 <0>         0.0693
     25 H10        -2.0910    0.8515   -4.7584 H         1 <0>         0.0813
     26 H11        -0.3112    0.8768   -4.7672 H         1 <0>         0.0867
     27 H12        -1.6460   -1.8530   -5.1049 H         1 <0>         0.1020
     28 H13         0.8247   -0.3817   -6.3572 H         1 <0>         0.0981
     29 H14         0.3670   -2.1489   -6.6202 H         1 <0>         0.0908
     30 H15        -1.8601   -1.4268   -7.5962 H         1 <0>         0.0944
     31 H16        -1.4025    0.3403   -7.3332 H         1 <0>         0.0959
@<TRIPOS>BOND
     1    1    2 1
     2    1   17 1
     3    1   18 1
     4    1   19 1
     5    2    7 2
     6    2    3 1
     7    3    4 2
     8    3    9 1
     9    4    5 1
    10    4    8 1
    11    5    6 1
    12    5    7 1
    13    8   20 1
    14    8   21 1
    15    9   10 2
    16    9   11 am
    17   11   12 1
    18   11   13 1
    19   12   22 1
    20   12   23 1
    21   12   24 1
    22   13   14 1
    23   13   25 1
    24   13   26 1
    25   14   16 1
    26   14   15 1
    27   14   27 1
    28   15   16 1
    29   15   28 1
    30   15   29 1
    31   16   30 1
    32   16   31 1
@<TRIPOS>MOLECULE
ZINC40924559
   33    33     0     0     0
SMALL
USER_CHARGES

@<TRIPOS>ATOM
      1 C1          0.9051   -1.1048   -0.5600 C.3       1 <0>        -0.1915
      2 C2         -0.0060   -0.0053   -0.0105 C.3       1 <0>         0.0383
      3 C3          0.1980    1.2774   -0.8191 C.3       1 <0>        -0.1918
      4 C4         -1.4437   -0.4438   -0.1183 C.2       1 <0>         0.4985
      5 O1         -2.0987   -0.6273    0.8858 O.2       1 <0>        -0.5360
      6 N1         -2.0017   -0.6322   -1.3306 N.am      1 <0>        -0.5730
      7 C5         -1.1919   -0.5268   -2.5520 C.3       1 <0>         0.0722
      8 C6         -1.3699   -1.8074   -3.3736 C.3       1 <0>        -0.1365
      9 C7         -2.8607   -2.0434   -3.6264 C.3       1 <0>        -0.1026
     10 C8         -3.5844   -2.2226   -2.2899 C.3       1 <0>        -0.1679
     11 H1         -3.1494   -3.0640   -1.7506 H         1 <0>         0.0671
     12 C9         -3.4301   -0.9527   -1.4556 C.3       1 <0>         0.1328
     13 C10        -5.0464   -2.4879   -2.5411 C.2       1 <0>         0.4985
     14 O2         -5.3863   -3.4609   -3.1924 O.co2     1 <0>        -0.6858
     15 O3         -5.8894   -1.7295   -2.0930 O.co2     1 <0>        -0.6916
     16 N2          0.3249    0.2462    1.3985 N.4       1 <0>        -0.6159
     17 H2          1.8949   -0.6923   -0.7558 H         1 <0>         0.0994
     18 H3          0.9850   -1.9095    0.1710 H         1 <0>         0.0899
     19 H4          0.4846   -1.4959   -1.4864 H         1 <0>         0.1209
     20 H5         -0.1612    1.1262   -1.8371 H         1 <0>         0.1218
     21 H6         -0.3582    2.0919   -0.3548 H         1 <0>         0.0892
     22 H7          1.2585    1.5281   -0.8415 H         1 <0>         0.0964
     23 H8         -1.5226    0.3315   -3.1368 H         1 <0>         0.0863
     24 H9         -0.1419   -0.4069   -2.2850 H         1 <0>         0.0954
     25 H10        -0.8513   -1.7032   -4.3267 H         1 <0>         0.0810
     26 H11        -0.9558   -2.6527   -2.8241 H         1 <0>         0.0664
     27 H12        -3.2797   -1.1867   -4.1542 H         1 <0>         0.0621
     28 H13        -2.9888   -2.9407   -4.2318 H         1 <0>         0.0780
     29 H14        -3.8565   -1.1138   -0.4654 H         1 <0>         0.0974
     30 H15        -3.9475   -0.1299   -1.9490 H         1 <0>         0.0859
     31 H16         1.3046    0.4741    1.4784 H         1 <0>         0.4360
     32 H17        -0.2288    1.0168    1.7416 H         1 <0>         0.4385
     33 H18         0.1262   -0.5796    1.9432 H         1 <0>         0.4407
@<TRIPOS>BOND
     1    1    2 1
     2    1   17 1
     3    1   18 1
     4    1   19 1
     5    2    3 1
     6    2    4 1
     7    2   16 1
     8    3   20 1
     9    3   21 1
    10    3   22 1
    11    4    5 2
    12    4    6 am
    13    6   12 1
    14    6    7 1
    15    7    8 1
    16    7   23 1
    17    7   24 1
    18    8    9 1
    19    8   25 1
    20    8   26 1
    21    9   10 1
    22    9   27 1
    23    9   28 1
    24   10   11 1
    25   10   12 1
    26   10   13 1
    27   12   29 1
    28   12   30 1
    29   13   14 2
    30   13   15 1
    31   16   31 1
    32   16   32 1
    33   16   33 1
@<TRIPOS>MOLECULE
ZINC49776812
   34    35     0     0     0
SMALL
NO_CHARGES

@<TRIPOS>ATOM
      1 C1          0.5624   -0.3407   -4.9888 C.3       1 <0>        -0.0834
      2 C2         -0.3470    0.3505   -4.0059 C.2       1 <0>         0.2581
      3 N1         -1.1852    1.2798   -4.3422 N.2       1 <0>        -0.5821
      4 H1         -1.6850    2.7381   -2.8861 H         1 <0>         0.0940
      5 C3         -1.8748    1.6873   -3.1048 C.3       1 <0>         0.2801
      6 C4         -1.2422    0.7975   -2.0516 C.cat     1 <0>         0.0845
      7 N2         -0.3738    0.0623   -2.7006 N.pl3     1 <0>        -0.5614
      8 N3         -1.5204    0.7661   -0.7216 N.pl3     1 <0>        -0.7800
      9 N4         -3.3180    1.4324   -3.2064 N.3       1 <0>        -0.5156
     10 C5         -3.9574    2.3848   -4.1241 C.3       1 <0>         0.0261
     11 C6         -3.5801    0.0471   -3.6187 C.3       1 <0>         0.0659
     12 C7         -5.0731   -0.2543   -3.4738 C.3       1 <0>         0.0858
     13 H2         -5.6578    0.4282   -4.0905 H         1 <0>         0.0686
     14 C8         -5.3663   -1.7231   -3.8709 C.3       1 <0>        -0.1518
     15 C9         -6.6721   -1.9891   -3.0733 C.3       1 <0>        -0.1558
     16 C10        -6.4523   -1.1504   -1.7959 C.3       1 <0>         0.0472
     17 O1         -5.4718   -0.1488   -2.0978 O.3       1 <0>        -0.3617
     18 H3          0.3945    0.0649   -5.9865 H         1 <0>         0.0911
     19 H4          1.6007   -0.1772   -4.7001 H         1 <0>         0.0745
     20 H5          0.3498   -1.4098   -4.9907 H         1 <0>         0.0730
     21 H6         -2.2416    1.3073   -0.3640 H         1 <0>         0.4193
     22 H7         -0.9978    0.2024   -0.1299 H         1 <0>         0.3932
     23 H8         -3.5916    2.2150   -5.1368 H         1 <0>         0.0349
     24 H9         -5.0379    2.2433   -4.0996 H         1 <0>         0.0623
     25 H10        -3.7171    3.4026   -3.8169 H         1 <0>         0.0632
     26 H11        -3.2820   -0.0851   -4.6588 H         1 <0>         0.0505
     27 H12        -3.0090   -0.6340   -2.9878 H         1 <0>         0.0704
     28 H13        -5.5360   -1.8136   -4.9438 H         1 <0>         0.0819
     29 H14        -4.5647   -2.3857   -3.5446 H         1 <0>         0.0759
     30 H15        -7.5427   -1.6345   -3.6250 H         1 <0>         0.0763
     31 H16        -6.7697   -3.0472   -2.8306 H         1 <0>         0.0806
     32 H17        -7.3871   -0.6737   -1.5011 H         1 <0>         0.0659
     33 H18        -6.0923   -1.7908   -0.9905 H         1 <0>         0.0651
     34 H19         0.1864   -0.6103   -2.2826 H         1 <0>         0.4033
@<TRIPOS>BOND
     1    1   18 1
     2    1   19 1
     3    1   20 1
     4    1    2 1
     5    2    3 2
     6    2    7 1
     7    3    5 1
     8    4    5 1
     9    5    9 1
    10    5    6 1
    11    6    7 2
    12    6    8 1
    13    7   34 1
    14    8   21 1
    15    8   22 1
    16    9   10 1
    17    9   11 1
    18   10   23 1
    19   10   24 1
    20   10   25 1
    21   11   12 1
    22   11   26 1
    23   11   27 1
    24   12   13 1
    25   12   17 1
    26   12   14 1
    27   14   15 1
    28   14   28 1
    29   14   29 1
    30   15   16 1
    31   15   30 1
    32   15   31 1
    33   16   17 1
    34   16   32 1
    35   16   33 1
@<TRIPOS>MOLECULE
ZINC58825237
   20    21     0     0     0
SMALL
USER_CHARGES

@<TRIPOS>ATOM
      1 C1         -0.0163    1.3479    0.0095 C.2       1 <0>        -0.2582
      2 C2          1.3098    1.7981   -0.0008 C.2       1 <0>         0.0700
      3 N1          2.0991    0.7557   -0.0139 N.2       1 <0>        -0.2741
      4 N2          1.3036   -0.3975   -0.0125 N.pl3     1 <0>        -0.3293
      5 C3          0.0021   -0.0041    0.0020 C.2       1 <0>         0.0772
      6 C4          1.7635   -1.7117   -0.0244 C.2       1 <0>         0.4663
      7 C5          3.1227   -1.9714   -0.0330 C.2       1 <0>        -0.3432
      8 C6          3.5537   -3.3051   -0.0449 C.2       1 <0>         0.5544
      9 O1          4.7445   -3.5730   -0.0523 O.2       1 <0>        -0.5299
     10 N3          2.6287   -4.2878   -0.0475 N.am      1 <0>        -0.6553
     11 H1          2.9086   -5.2165   -0.0557 H         1 <0>         0.4174
     12 C7          1.3040   -3.9775   -0.0383 C.2       1 <0>         0.6718
     13 N4          0.8935   -2.7265   -0.0220 N.2       1 <0>        -0.6147
     14 N5          0.3787   -4.9869   -0.0407 N.pl3     1 <0>        -0.8122
     15 H2         -0.8983    1.9709    0.0252 H         1 <0>         0.1601
     16 H3          1.6265    2.8306    0.0014 H         1 <0>         0.1975
     17 H4         -0.8607   -0.6537    0.0071 H         1 <0>         0.1852
     18 H5          3.8377   -1.1619   -0.0309 H         1 <0>         0.1650
     19 H6          0.6703   -5.9120   -0.0489 H         1 <0>         0.4202
     20 H7         -0.5682   -4.7769   -0.0342 H         1 <0>         0.4318
@<TRIPOS>BOND
     1    1    5 2
     2    1    2 1
     3    1   15 1
     4    2    3 2
     5    2   16 1
     6    3    4 1
     7    4    5 1
     8    4    6 1
     9    5   17 1
    10    6   13 1
    11    6    7 2
    12    7    8 1
    13    7   18 1
    14    8    9 2
    15    8   10 am
    16   10   11 1
    17   10   12 1
    18   12   13 2
    19   12   14 1
    20   14   19 1
    21   14   20 1
@<TRIPOS>MOLECULE
ZINC06250133
   31    31     0     0     0
SMALL
USER_CHARGES
(E)-4-[(2R,6R)-2,6-dimethyl-1-piperidyl]-4-oxo-but-2-enoic acid
@<TRIPOS>ATOM
      1 C1          5.6157    5.1603    1.4565 C.3       1 <0>        -0.1626
      2 C2          4.9250    5.0272    0.0978 C.3       1 <0>         0.1273
      3 H1          4.7103    3.9779   -0.1041 H         1 <0>         0.1041
      4 C3          5.8353    5.5900   -1.0043 C.3       1 <0>        -0.1292
      5 C4          6.0199    7.0936   -0.7871 C.3       1 <0>        -0.1201
      6 C5          4.6626    7.7945   -0.8794 C.3       1 <0>        -0.1308
      7 C6          3.7392    7.2572    0.2185 C.3       1 <0>         0.1439
      8 H2          4.1365    7.5301    1.1961 H         1 <0>         0.0659
      9 N1          3.6716    5.7939    0.1052 N.am      1 <0>        -0.6057
     10 C7          2.4822    5.1663    0.0156 C.2       1 <0>         0.5530
     11 O1          1.4579    5.8147   -0.0700 O.2       1 <0>        -0.5415
     12 C8          2.4237    3.6906    0.0214 C.2       1 <0>        -0.2185
     13 C9          1.2354    3.0660    0.0330 C.2       1 <0>        -0.0699
     14 C10         1.1769    1.5919    0.0388 C.2       1 <0>         0.4722
     15 O2          2.2038    0.9434    0.0331 O.co2     1 <0>        -0.6262
     16 C11         2.3387    7.8499    0.0504 C.3       1 <0>        -0.1354
     17 H3          4.9597    4.7745    2.2369 H         1 <0>         0.0612
     18 H4          6.5451    4.5909    1.4489 H         1 <0>         0.0669
     19 H5          5.8343    6.2101    1.6518 H         1 <0>         0.0582
     20 H6          5.3802    5.4165   -1.9794 H         1 <0>         0.0679
     21 H7          6.8053    5.0945   -0.9622 H         1 <0>         0.0742
     22 H8          6.6870    7.4918   -1.5517 H         1 <0>         0.0621
     23 H9          6.4522    7.2676    0.1983 H         1 <0>         0.0652
     24 H10         4.2185    7.6003   -1.8557 H         1 <0>         0.0664
     25 H11         4.7979    8.8681   -0.7479 H         1 <0>         0.0699
     26 H12         3.3369    3.1139    0.0163 H         1 <0>         0.1331
     27 H13         0.3222    3.6426    0.0381 H         1 <0>         0.1184
     28 H14         1.7047    7.5234    0.8747 H         1 <0>         0.0705
     29 H15         2.4023    8.9380    0.0499 H         1 <0>         0.0365
     30 H16         1.9114    7.5105   -0.8932 H         1 <0>         0.0733
     31 O3         -0.0159    0.9649    0.0505 O.co2     1 <0>        -0.7499
@<TRIPOS>BOND
     1    1    2 1
     2    1   17 1
     3    1   18 1
     4    1   19 1
     5    2    3 1
     6    2    9 1
     7    2    4 1
     8    4    5 1
     9    4   20 1
    10    4   21 1
    11    5    6 1
    12    5   22 1
    13    5   23 1
    14    6    7 1
    15    6   24 1
    16    6   25 1
    17    7    8 1
    18    7    9 1
    19    7   16 1
    20    9   10 am
    21   10   11 2
    22   10   12 1
    23   12   13 2
    24   12   26 1
    25   13   14 1
    26   13   27 1
    27   14   15 2
    28   14   31 1
    29   16   28 1
    30   16   29 1
    31   16   30 1
@<TRIPOS>MOLECULE
ZINC15015334
   34    35     0     0     0
SMALL
USER_CHARGES
(3S)-1-(cyclohexylmethyl)-5-oxo-pyrrolidine-3-carboxylic acid
@<TRIPOS>ATOM
      1 C1         -0.8019   -2.5587   -1.1857 C.3       1 <0>        -0.1167
      2 C2         -1.4059   -2.0641    0.1301 C.3       1 <0>        -0.1175
      3 C3         -1.4266   -0.5342    0.1385 C.3       1 <0>        -0.1095
      4 C4          0.0021   -0.0041    0.0020 C.3       1 <0>        -0.1063
      5 C5          0.6061   -0.4987   -1.3138 C.3       1 <0>        -0.1036
      6 C6          0.6268   -2.0285   -1.3222 C.3       1 <0>        -0.1207
      7 C7         -0.0187    1.5258    0.0104 C.3       1 <0>         0.1330
      8 N1          1.3557    2.0329    0.0000 N.am      1 <0>        -0.6097
      9 C8          2.1422    2.3184    1.2058 C.3       1 <0>         0.1198
     10 C9          3.6115    2.3937    0.7290 C.3       1 <0>        -0.1525
     11 H1          4.2508    3.0663    1.3197 H         1 <0>         0.1008
     12 C10         3.4393    2.7977   -0.7536 C.3       1 <0>        -0.1370
     13 C11         2.0565    2.3018   -1.1151 C.2       1 <0>         0.5265
     14 O1          1.6406    2.1669   -2.2463 O.2       1 <0>        -0.5472
     15 C12         4.2928    1.0548    0.8475 C.2       1 <0>         0.4646
     16 O2          3.7206    0.1303    1.3745 O.co2     1 <0>        -0.6308
     17 O3          5.5354    0.8892    0.3675 O.co2     1 <0>        -0.7652
     18 H2         -1.4097   -2.1956   -2.0276 H         1 <0>         0.0573
     19 H3         -0.7870   -3.6586   -1.1918 H         1 <0>         0.0557
     20 H4         -2.4331   -2.4453    0.2282 H         1 <0>         0.0565
     21 H5         -0.7981   -2.4272    0.9720 H         1 <0>         0.0626
     22 H6         -2.0344   -0.1711   -0.7034 H         1 <0>         0.0594
     23 H7         -1.8609   -0.1785    1.0845 H         1 <0>         0.0592
     24 H8          0.6099   -0.3673    0.8438 H         1 <0>         0.0820
     25 H9         -0.0017   -0.1356   -2.1556 H         1 <0>         0.0564
     26 H10         1.6333   -0.1175   -1.4119 H         1 <0>         0.0655
     27 H11         1.2346   -2.3916   -0.4803 H         1 <0>         0.0640
     28 H12         1.0611   -2.3841   -2.2682 H         1 <0>         0.0566
     29 H13        -0.5507    1.8901   -0.8808 H         1 <0>         0.0758
     30 H14        -0.5336    1.8806    0.9154 H         1 <0>         0.0728
     31 H15         1.8111    3.2723    1.6422 H         1 <0>         0.0571
     32 H16         1.9973    1.5103    1.9379 H         1 <0>         0.0894
     33 H17         3.5237    3.8904   -0.8481 H         1 <0>         0.0938
     34 H18         4.2218    2.3159   -1.3582 H         1 <0>         0.1081
@<TRIPOS>BOND
     1    1    6 1
     2    1    2 1
     3    1   18 1
     4    1   19 1
     5    2    3 1
     6    2   20 1
     7    2   21 1
     8    3    4 1
     9    3   22 1
    10    3   23 1
    11    4    5 1
    12    4    7 1
    13    4   24 1
    14    5    6 1
    15    5   25 1
    16    5   26 1
    17    6   27 1
    18    6   28 1
    19    7    8 1
    20    7   29 1
    21    7   30 1
    22    8   13 am
    23    8    9 1
    24    9   10 1
    25    9   31 1
    26    9   32 1
    27   10   11 1
    28   10   12 1
    29   10   15 1
    30   12   13 1
    31   12   33 1
    32   12   34 1
    33   13   14 2
    34   15   16 2
    35   15   17 1
@<TRIPOS>MOLECULE
ZINC39059635
   19    20     0     0     0
SMALL
USER_CHARGES

@<TRIPOS>ATOM
      1 C1         -0.0192    1.5618    0.0106 C.3       1 <0>        -0.1211
      2 C2          1.4729    2.0081   -0.0012 C.3       1 <0>        -0.1026
      3 C3          2.2636    0.7255    0.1923 C.3       1 <0>        -0.1463
      4 H1          2.3647    0.4705    1.2472 H         1 <0>         0.1130
      5 C4          1.3322   -0.2814   -0.5814 C.3       1 <0>        -0.1601
      6 H2          1.3142    0.2079   -1.5552 H         1 <0>         0.0861
      7 C5          0.0021   -0.0041    0.0020 C.3       1 <0>        -0.0804
      8 C6          2.2138   -1.4173   -0.7470 C.2       1 <0>         0.5365
      9 O1          1.9127   -2.5916   -0.7442 O.2       1 <0>        -0.5136
     10 N1          3.4646   -0.8762   -0.9087 N.am      1 <0>        -0.4006
     11 C7          3.5272    0.4616   -0.5641 C.2       1 <0>         0.5167
     12 O2          4.4052    1.2568   -0.8216 O.2       1 <0>        -0.5074
     13 O3          4.5845   -1.6132   -1.3644 O.3       1 <0>        -0.6550
     14 H3         -0.5133    1.9260    0.9113 H         1 <0>         0.0708
     15 H4         -0.5303    1.9356   -0.8765 H         1 <0>         0.0689
     16 H5          1.7238    2.4680   -0.9571 H         1 <0>         0.0722
     17 H6          1.6681    2.7013    0.8170 H         1 <0>         0.0736
     18 H7         -0.0707   -0.4011    1.0145 H         1 <0>         0.0737
     19 H8         -0.7921   -0.4019   -0.6298 H         1 <0>         0.0757
@<TRIPOS>BOND
     1    1    7 1
     2    1    2 1
     3    1   14 1
     4    1   15 1
     5    2    3 1
     6    2   16 1
     7    2   17 1
     8    3    4 1
     9    3   11 1
    10    3    5 1
    11    5    6 1
    12    5    7 1
    13    5    8 1
    14    7   18 1
    15    7   19 1
    16    8    9 2
    17    8   10 am
    18   10   11 am
    19   10   13 1
    20   11   12 2
@<TRIPOS>MOLECULE
ZINC50288135
   35    35     0     0     0
SMALL
USER_CHARGES

@<TRIPOS>ATOM
      1 C1         -0.4320    1.5091    0.0643 C.3       1 <0>        -0.0713
      2 C2         -0.2073    0.0193    0.0354 C.2       1 <0>         0.1101
      3 C3          0.0897   -0.7435   -1.0988 C.2       1 <0>        -0.1659
      4 C4          0.2176   -2.0336   -0.7110 C.2       1 <0>         0.0547
      5 N1          0.0090   -2.0854    0.6212 N.pl3     1 <0>        -0.3742
      6 N2         -0.2507   -0.7833    1.0678 N.2       1 <0>        -0.3146
      7 C5          0.0520   -3.2898    1.4542 C.3       1 <0>         0.1872
      8 C6          1.3826   -4.0130    1.2367 C.3       1 <0>        -0.1646
      9 C7         -0.0798   -2.8963    2.9268 C.3       1 <0>        -0.1375
     10 C8         -1.1018   -4.2178    1.0689 C.3       1 <0>        -0.1634
     11 C9          0.5356   -3.2032   -1.6067 C.3       1 <0>        -0.0879
     12 C10         0.2397   -0.2211   -2.5043 C.3       1 <0>        -0.0920
     13 H1          0.4708   -1.0475   -3.1764 H         1 <0>         0.0623
     14 C11         1.3739    0.8048   -2.5487 C.3       1 <0>        -0.1187
     15 C12        -1.0469    0.4335   -2.9369 C.2       1 <0>         0.5002
     16 O1         -1.9976    0.4721   -2.1746 O.co2     1 <0>        -0.6840
     17 O2         -1.1371    0.9244   -4.0493 O.co2     1 <0>        -0.7063
     18 H2          0.5184    2.0168    0.2293 H         1 <0>         0.0574
     19 H3         -0.8555    1.8312   -0.8871 H         1 <0>         0.0975
     20 H4         -1.1213    1.7571    0.8714 H         1 <0>         0.0583
     21 H5          2.2046   -3.3519    1.5112 H         1 <0>         0.0618
     22 H6          1.4146   -4.9091    1.8565 H         1 <0>         0.0717
     23 H7          1.4766   -4.2933    0.1876 H         1 <0>         0.0696
     24 H8         -1.0278   -2.3810    3.0818 H         1 <0>         0.0679
     25 H9         -0.0478   -3.7924    3.5466 H         1 <0>         0.0638
     26 H10         0.7422   -2.2352    3.2013 H         1 <0>         0.0635
     27 H11        -0.9486   -4.5861    0.0546 H         1 <0>         0.0652
     28 H12        -1.1369   -5.0600    1.7599 H         1 <0>         0.0707
     29 H13        -2.0419   -3.6683    1.1178 H         1 <0>         0.0652
     30 H14         1.6155   -3.2813   -1.7327 H         1 <0>         0.0697
     31 H15         0.1552   -4.1199   -1.1560 H         1 <0>         0.0663
     32 H16         0.0662   -3.0543   -2.5791 H         1 <0>         0.0794
     33 H17         1.1428    1.6313   -1.8766 H         1 <0>         0.0487
     34 H18         2.3045    0.3314   -2.2358 H         1 <0>         0.0343
     35 H19         1.4825    1.1827   -3.5653 H         1 <0>         0.0548
@<TRIPOS>BOND
     1    1    2 1
     2    1   18 1
     3    1   19 1
     4    1   20 1
     5    2    6 2
     6    2    3 1
     7    3    4 2
     8    3   12 1
     9    4    5 1
    10    4   11 1
    11    5    6 1
    12    5    7 1
    13    7    8 1
    14    7    9 1
    15    7   10 1
    16    8   21 1
    17    8   22 1
    18    8   23 1
    19    9   24 1
    20    9   25 1
    21    9   26 1
    22   10   27 1
    23   10   28 1
    24   10   29 1
    25   11   30 1
    26   11   31 1
    27   11   32 1
    28   12   13 1
    29   12   14 1
    30   12   15 1
    31   14   33 1
    32   14   34 1
    33   14   35 1
    34   15   16 2
    35   15   17 1
@<TRIPOS>MOLECULE
ZINC52299948
   28    29     0     0     0
SMALL
USER_CHARGES

@<TRIPOS>ATOM
      1 C1          3.0199    0.4357    0.7545 C.3       1 <0>        -0.1166
      2 C2          2.0799   -0.3112    1.7029 C.3       1 <0>        -0.1659
      3 H1          2.5627   -0.9934    2.4026 H         1 <0>         0.1058
      4 C3          0.8298    0.4274    2.1853 C.3       1 <0>        -0.1837
      5 C4          0.7031   -0.7075    1.1659 C.3       1 <0>         0.0786
      6 H2          0.4671   -0.4361    0.1370 H         1 <0>         0.1276
      7 N1          0.1345   -1.9747    1.6318 N.am      1 <0>        -0.5728
      8 C5         -0.2140   -2.0894    3.0424 C.3       1 <0>         0.1277
      9 C6         -1.1959   -3.2414    3.2592 C.3       1 <0>        -0.1692
     10 H3         -2.1599   -2.9883    2.8178 H         1 <0>         0.0703
     11 C7         -0.6349   -4.4985    2.5836 C.3       1 <0>        -0.1015
     12 C8         -0.6479   -4.2802    1.0686 C.3       1 <0>        -0.1311
     13 C9         -0.0369   -2.9490    0.7376 C.2       1 <0>         0.5227
     14 O1          0.3241   -2.7512   -0.4032 O.2       1 <0>        -0.5709
     15 C10        -1.3656   -3.4900    4.7359 C.2       1 <0>         0.5042
     16 O2         -2.4682   -3.7481    5.1878 O.co2     1 <0>        -0.6933
     17 O3         -0.4004   -3.4330    5.4786 O.co2     1 <0>        -0.6915
     18 H4          2.5525    1.3689    0.4400 H         1 <0>         0.0548
     19 H5          3.9564    0.6534    1.2680 H         1 <0>         0.0585
     20 H6          3.2204   -0.1830   -0.1201 H         1 <0>         0.0598
     21 H7          0.4900    0.2308    3.2021 H         1 <0>         0.1052
     22 H8          0.6770    1.4455    1.8269 H         1 <0>         0.1015
     23 H9          0.6901   -2.2724    3.6231 H         1 <0>         0.0774
     24 H10        -0.6713   -1.1584    3.3774 H         1 <0>         0.0703
     25 H11         0.3872   -4.6712    2.9207 H         1 <0>         0.0683
     26 H12        -1.2552   -5.3585    2.8358 H         1 <0>         0.0731
     27 H13        -0.0786   -5.0732    0.5836 H         1 <0>         0.0952
     28 H14        -1.6764   -4.3024    0.7084 H         1 <0>         0.0957
@<TRIPOS>BOND
     1    1    2 1
     2    1   18 1
     3    1   19 1
     4    1   20 1
     5    2    3 1
     6    2    5 1
     7    2    4 1
     8    4    5 1
     9    4   21 1
    10    4   22 1
    11    5    6 1
    12    5    7 1
    13    7   13 am
    14    7    8 1
    15    8    9 1
    16    8   23 1
    17    8   24 1
    18    9   10 1
    19    9   11 1
    20    9   15 1
    21   11   12 1
    22   11   25 1
    23   11   26 1
    24   12   13 1
    25   12   27 1
    26   12   28 1
    27   13   14 2
    28   15   16 2
    29   15   17 1
@<TRIPOS>MOLECULE
ZINC08778831
   40    44     0     0     0
SMALL
USER_CHARGES
(4R)-4-[5-[(1S,2S)-2-methylcyclopropyl]-2-furyl]-3,4-dihydro-[1,3,5]triazino[5,4-a]benzimidazol-2-amine
@<TRIPOS>ATOM
      1 C1          2.4095    5.1554   -1.6567 C.3       1 <0>        -0.1245
      2 C2          2.5905    3.7136   -1.1776 C.3       1 <0>        -0.1335
      3 H1          2.8135    2.9839   -1.9560 H         1 <0>         0.1064
      4 C3          3.2315    3.5006    0.1960 C.3       1 <0>        -0.1615
      5 C4          1.7348    3.2486    0.0025 C.3       1 <0>        -0.0896
      6 H2          1.0427    3.9698    0.4373 H         1 <0>         0.1379
      7 C5          1.2649    1.8168   -0.0003 C.2       1 <0>         0.0456
      8 C6         -0.0171    1.4096    0.0098 C.2       1 <0>        -0.2085
      9 C7          0.0021   -0.0041    0.0020 C.2       1 <0>        -0.1588
     10 C8          1.2946   -0.3762   -0.0123 C.2       1 <0>        -0.0735
     11 O1          2.0550    0.7308   -0.0136 O.3       1 <0>        -0.1574
     12 C9          1.8032   -1.7947   -0.0252 C.3       1 <0>         0.4871
     13 H3          1.0187   -2.4747    0.3069 H         1 <0>         0.1464
     14 N1          2.9802   -1.9160    0.8531 N.pl3     1 <0>        -0.7620
     15 C10         4.2189   -1.5608    0.3903 C.2       1 <0>         0.6686
     16 N2          4.5315   -1.6652   -0.8897 N.2       1 <0>        -0.5607
     17 C11         3.5738   -2.0660   -1.7571 C.2       1 <0>         0.5029
     18 N3          2.2451   -2.1573   -1.3776 N.pl3     1 <0>        -0.5509
     19 C12         1.5417   -2.6065   -2.4542 C.ar      1 <0>         0.0595
     20 C13         0.1970   -2.8942   -2.6534 C.ar      1 <0>        -0.1129
     21 C14        -0.1751   -3.3398   -3.9119 C.ar      1 <0>        -0.1095
     22 C15         0.7424   -3.4959   -4.9362 C.ar      1 <0>        -0.1285
     23 C16         2.0865   -3.2176   -4.7646 C.ar      1 <0>        -0.0677
     24 C17         2.4863   -2.7663   -3.5012 C.ar      1 <0>         0.0677
     25 N4          3.6940   -2.4195   -3.0152 N.2       1 <0>        -0.4860
     26 N5          5.1527   -1.0874    1.2714 N.pl3     1 <0>        -0.8145
     27 H4          2.6447    5.8410   -0.8426 H         1 <0>         0.0604
     28 H5          3.0777    5.3457   -2.4965 H         1 <0>         0.0669
     29 H6          1.3772    5.3065   -1.9722 H         1 <0>         0.0638
     30 H7          3.5240    4.3876    0.7578 H         1 <0>         0.1060
     31 H8          3.8762    2.6307    0.3217 H         1 <0>         0.0985
     32 H9         -0.8930    2.0414    0.0175 H         1 <0>         0.1545
     33 H10        -0.8563   -0.6594    0.0072 H         1 <0>         0.1543
     34 H11         2.8773   -2.2471    1.7590 H         1 <0>         0.4198
     35 H12        -0.5275   -2.7753   -1.8613 H         1 <0>         0.1241
     36 H13        -1.2130   -3.5727   -4.0989 H         1 <0>         0.1247
     37 H14         0.3987   -3.8460   -5.8983 H         1 <0>         0.1257
     38 H15         2.7956   -3.3422   -5.5695 H         1 <0>         0.1373
     39 H16         4.9339   -1.0063    2.2129 H         1 <0>         0.4140
     40 H17         6.0334   -0.8328    0.9545 H         1 <0>         0.4278
@<TRIPOS>BOND
     1    1    2 1
     2    1   27 1
     3    1   28 1
     4    1   29 1
     5    2    3 1
     6    2    5 1
     7    2    4 1
     8    4    5 1
     9    4   30 1
    10    4   31 1
    11    5    6 1
    12    5    7 1
    13    7   11 1
    14    7    8 2
    15    8    9 1
    16    8   32 1
    17    9   10 2
    18    9   33 1
    19   10   11 1
    20   10   12 1
    21   12   13 1
    22   12   18 1
    23   12   14 1
    24   14   15 1
    25   14   34 1
    26   15   16 2
    27   15   26 1
    28   16   17 1
    29   17   25 2
    30   17   18 1
    31   18   19 1
    32   19   24 ar
    33   19   20 ar
    34   20   21 ar
    35   20   35 1
    36   21   22 ar
    37   21   36 1
    38   22   23 ar
    39   22   37 1
    40   23   24 ar
    41   23   38 1
    42   24   25 1
    43   26   39 1
    44   26   40 1
@<TRIPOS>MOLECULE
ZINC35347218
   29    31     0     0     0
SMALL
USER_CHARGES

@<TRIPOS>ATOM
      1 C1         -0.0167    1.3792    0.0096 C.ar      1 <0>        -0.1061
      2 C2          1.1708    2.0869    0.0021 C.ar      1 <0>        -0.0729
      3 C3          2.3773    1.4131   -0.0135 C.ar      1 <0>        -0.0785
      4 C4          2.3974    0.0294   -0.0212 C.ar      1 <0>        -0.0171
      5 C5          1.2096   -0.6792   -0.0132 C.ar      1 <0>        -0.1047
      6 C6          0.0021   -0.0041    0.0020 C.ar      1 <0>        -0.0199
      7 Cl1        -1.4893   -0.8926    0.0121 Cl        1 <0>        -0.0537
      8 Cl2         3.9130   -0.8168   -0.0414 Cl        1 <0>        -0.0395
      9 C7          3.6714    2.1853   -0.0227 C.3       1 <0>         0.0016
     10 C8          4.2433    2.2238    1.3710 C.2       1 <0>         0.2633
     11 N1          3.9859    3.1593    2.2869 N.2       1 <0>        -0.5514
     12 C9          4.6456    2.8953    3.3965 C.2       1 <0>         0.3943
     13 O1          5.3483    1.7644    3.2015 O.3       1 <0>        -0.1284
     14 N2          5.0636    1.3457    1.8752 N.2       1 <0>        -0.3325
     15 C10         4.6193    3.6960    4.6305 C.2       1 <0>        -0.2817
     16 C11         3.8812    4.8815    4.8473 C.2       1 <0>         0.1507
     17 N3          4.1191    5.2935    6.0612 N.2       1 <0>        -0.2907
     18 N4          5.0090    4.4091    6.6804 N.pl3     1 <0>        -0.4917
     19 H1          5.3475    4.4866    7.5861 H         1 <0>         0.4457
     20 C12         5.3116    3.4262    5.8063 C.2       1 <0>         0.4361
     21 N5          6.1544    2.3542    6.0354 N.pl3     1 <0>        -0.8309
     22 H2         -0.9592    1.9062    0.0260 H         1 <0>         0.1443
     23 H3          1.1557    3.1667    0.0080 H         1 <0>         0.1493
     24 H4          1.2248   -1.7590   -0.0191 H         1 <0>         0.1461
     25 H5          4.3801    1.6988   -0.6930 H         1 <0>         0.1107
     26 H6          3.4851    3.2025   -0.3672 H         1 <0>         0.1179
     27 H7          3.2322    5.3632    4.1309 H         1 <0>         0.2016
     28 H8          6.3084    1.7001    5.3359 H         1 <0>         0.4274
     29 H9          6.5917    2.2563    6.8957 H         1 <0>         0.4108
@<TRIPOS>BOND
     1    1    6 ar
     2    1    2 ar
     3    1   22 1
     4    2    3 ar
     5    2   23 1
     6    3    4 ar
     7    3    9 1
     8    4    5 ar
     9    4    8 1
    10    5    6 ar
    11    5   24 1
    12    6    7 1
    13    9   10 1
    14    9   25 1
    15    9   26 1
    16   10   14 2
    17   10   11 1
    18   11   12 2
    19   12   13 1
    20   12   15 1
    21   13   14 1
    22   15   20 2
    23   15   16 1
    24   16   17 2
    25   16   27 1
    26   17   18 1
    27   18   19 1
    28   18   20 1
    29   20   21 1
    30   21   28 1
    31   21   29 1
@<TRIPOS>MOLECULE
ZINC40704251
   34    36     0     0     0
SMALL
USER_CHARGES

@<TRIPOS>ATOM
      1 C1          0.7386    0.2390    1.8249 C.ar      1 <0>        -0.1565
      2 C2          1.9649    0.8728    1.7037 C.ar      1 <0>        -0.0710
      3 C3          2.3571    1.3186    0.4455 C.ar      1 <0>         0.0455
      4 C4          1.5117    1.1138   -0.6356 C.ar      1 <0>         0.1112
      5 N1          0.3526    0.5065   -0.4774 N.ar      1 <0>        -0.4667
      6 C5         -0.0486    0.0716    0.7013 C.ar      1 <0>         0.1024
      7 O1          3.5509    1.9460    0.2778 O.3       1 <0>        -0.2403
      8 C6          4.6804    1.1995    0.3638 C.ar      1 <0>         0.3092
      9 C7          5.9349    1.8063    0.3185 C.ar      1 <0>         0.0694
     10 C8          7.0659    0.9912    0.4112 C.ar      1 <0>         0.3833
     11 N2          6.9037   -0.3233    0.5383 N.ar      1 <0>        -0.5387
     12 C9          5.6991   -0.8557    0.5769 C.ar      1 <0>         0.3197
     13 N3          4.6078   -0.1212    0.4981 N.ar      1 <0>        -0.5510
     14 N4          8.3404    1.5448    0.3709 N.pl3     1 <0>        -0.6490
     15 C10         9.4637    0.7127    0.3544 C.ar      1 <0>         0.1844
     16 C11        10.6436    1.1243    0.9616 C.ar      1 <0>        -0.1389
     17 C12        11.7518    0.3006    0.9445 C.ar      1 <0>        -0.0739
     18 C13        11.6886   -0.9343    0.3234 C.ar      1 <0>        -0.0538
     19 C14        10.5142   -1.3475   -0.2832 C.ar      1 <0>        -0.0078
     20 C15         9.4004   -0.5291   -0.2640 C.ar      1 <0>        -0.1012
     21 Cl1        10.4390   -2.8970   -1.0625 Cl        1 <0>        -0.0426
     22 Cl2        13.0838   -1.9670    0.3039 Cl        1 <0>        -0.0490
     23 N5          6.0582    3.1976    0.1830 N.pl3     1 <0>        -0.8633
     24 H1          0.4039   -0.1240    2.7855 H         1 <0>         0.1429
     25 H2          2.6005    1.0175    2.5648 H         1 <0>         0.1361
     26 H3          1.8062    1.4559   -1.6168 H         1 <0>         0.1610
     27 H4         -1.0053   -0.4216    0.7897 H         1 <0>         0.1636
     28 H5          5.6031   -1.9264    0.6805 H         1 <0>         0.2041
     29 H6          8.4503    2.5084    0.3542 H         1 <0>         0.4194
     30 H7         10.6941    2.0881    1.4463 H         1 <0>         0.1397
     31 H8         12.6691    0.6208    1.4162 H         1 <0>         0.1467
     32 H9          8.4831   -0.8534   -0.7328 H         1 <0>         0.1574
     33 H10         5.2640    3.7510    0.1194 H         1 <0>         0.4113
     34 H11         6.9375    3.6059    0.1529 H         1 <0>         0.3963
@<TRIPOS>BOND
     1    1    6 ar
     2    1    2 ar
     3    1   24 1
     4    2    3 ar
     5    2   25 1
     6    3    4 ar
     7    3    7 1
     8    4    5 ar
     9    4   26 1
    10    5    6 ar
    11    6   27 1
    12    7    8 1
    13    8   13 ar
    14    8    9 ar
    15    9   10 ar
    16    9   23 1
    17   10   11 ar
    18   10   14 1
    19   11   12 ar
    20   12   13 ar
    21   12   28 1
    22   14   15 1
    23   14   29 1
    24   15   20 ar
    25   15   16 ar
    26   16   17 ar
    27   16   30 1
    28   17   18 ar
    29   17   31 1
    30   18   19 ar
    31   18   22 1
    32   19   20 ar
    33   19   21 1
    34   20   32 1
    35   23   33 1
    36   23   34 1
@<TRIPOS>MOLECULE
ZINC20410430
   45    48     0     0     0
SMALL
USER_CHARGES

@<TRIPOS>ATOM
      1 C1         -0.0184    1.5028    0.0103 C.3       1 <0>        -0.1120
      2 C2          0.0021   -0.0041    0.0020 C.ar      1 <0>        -0.0648
      3 C3          0.0057   -0.6889   -1.1977 C.ar      1 <0>        -0.1151
      4 C4          0.0244   -2.0713   -1.2061 C.ar      1 <0>        -0.1053
      5 C5          0.0391   -2.7728   -0.0143 C.ar      1 <0>        -0.1171
      6 C6          0.0350   -2.0938    1.1883 C.ar      1 <0>        -0.0915
      7 C7          0.0230   -0.7053    1.1999 C.ar      1 <0>         0.1411
      8 N1          0.0252   -0.0134    2.4185 N.am      1 <0>        -0.5169
      9 C8         -1.1436    0.2962    3.0140 C.2       1 <0>         0.5748
     10 O1         -2.1997   -0.0239    2.4964 O.2       1 <0>        -0.5681
     11 C9         -1.1364    0.9905    4.2365 C.2       1 <0>        -0.5310
     12 C10         0.0584    1.3366    4.7948 C.2       1 <0>         0.5250
     13 N2          1.2248    1.0018    4.1549 N.am      1 <0>        -0.6531
     14 H1          2.0773    1.2459    4.5481 H         1 <0>         0.4278
     15 C11         1.1942    0.3322    2.9881 C.2       1 <0>         0.7046
     16 O2          2.2382    0.0396    2.4378 O.2       1 <0>        -0.5414
     17 O3          0.0932    2.0040    5.9677 O.3       1 <0>        -0.6451
     18 C12        -2.4311    1.3475    4.9200 C.3       1 <0>         0.2062
     19 H2         -2.2176    1.9551    5.7994 H         1 <0>         0.1470
     20 C13        -3.1318    0.0848    5.3471 C.ar      1 <0>        -0.0825
     21 C14        -2.3741   -0.9435    5.8877 C.ar      1 <0>        -0.0736
     22 C15        -2.9785   -2.1162    6.2935 C.ar      1 <0>        -0.1164
     23 C16        -4.3465   -2.2678    6.1618 C.ar      1 <0>        -0.1087
     24 C17        -5.1021   -1.2455    5.6234 C.ar      1 <0>        -0.1134
     25 C18        -4.4955   -0.0684    5.2137 C.ar      1 <0>        -0.0955
     26 C19        -5.3545    1.0204    4.6231 C.3       1 <0>        -0.0991
     27 C20        -4.5840    2.3413    4.6165 C.3       1 <0>        -0.0024
     28 N3         -3.2705    2.1144    3.9949 N.4       1 <0>        -0.5044
     29 H3          1.0042    1.8801    0.0026 H         1 <0>         0.0739
     30 H4         -0.5455    1.8639   -0.8728 H         1 <0>         0.0715
     31 H5         -0.5286    1.8543    0.9071 H         1 <0>         0.0571
     32 H6         -0.0064   -0.1439   -2.1300 H         1 <0>         0.1284
     33 H7          0.0273   -2.6045   -2.1453 H         1 <0>         0.1275
     34 H8          0.0533   -3.8526   -0.0240 H         1 <0>         0.1286
     35 H9          0.0457   -2.6421    2.1187 H         1 <0>         0.1219
     36 H10        -1.3055   -0.8262    5.9915 H         1 <0>         0.1280
     37 H11        -2.3838   -2.9143    6.7128 H         1 <0>         0.1260
     38 H12        -4.8227   -3.1838    6.4790 H         1 <0>         0.1256
     39 H13        -6.1707   -1.3636    5.5206 H         1 <0>         0.1248
     40 H14        -5.6258    0.7540    3.6016 H         1 <0>         0.0971
     41 H15        -6.2597    1.1318    5.2201 H         1 <0>         0.1123
     42 H16        -5.1372    3.0847    4.0425 H         1 <0>         0.1281
     43 H17        -4.4494    2.6915    5.6399 H         1 <0>         0.1276
     44 H18        -2.8327    3.0019    3.7984 H         1 <0>         0.4227
     45 H19        -3.3874    1.5966    3.1368 H         1 <0>         0.4299
@<TRIPOS>BOND
     1    1    2 1
     2    1   29 1
     3    1   30 1
     4    1   31 1
     5    2    7 ar
     6    2    3 ar
     7    3    4 ar
     8    3   32 1
     9    4    5 ar
    10    4   33 1
    11    5    6 ar
    12    5   34 1
    13    6    7 ar
    14    6   35 1
    15    7    8 1
    16    8   15 am
    17    8    9 am
    18    9   10 2
    19    9   11 1
    20   11   18 1
    21   11   12 2
    22   12   17 1
    23   12   13 1
    24   13   14 1
    25   13   15 am
    26   15   16 2
    27   18   19 1
    28   18   28 1
    29   18   20 1
    30   20   25 ar
    31   20   21 ar
    32   21   22 ar
    33   21   36 1
    34   22   23 ar
    35   22   37 1
    36   23   24 ar
    37   23   38 1
    38   24   25 ar
    39   24   39 1
    40   25   26 1
    41   26   27 1
    42   26   40 1
    43   26   41 1
    44   27   28 1
    45   27   42 1
    46   27   43 1
    47   28   44 1
    48   28   45 1
@<TRIPOS>MOLECULE
ZINC36317391
   36    39     0     0     0
SMALL
USER_CHARGES

@<TRIPOS>ATOM
      1 C1          0.4881   -0.9141   -0.9815 C.3       1 <0>        -0.1531
      2 C2         -0.0234    0.0243    0.1133 C.3       1 <0>        -0.0470
      3 C3         -1.5337   -0.1580    0.2767 C.3       1 <0>        -0.1482
      4 C4          0.6653   -0.2989    1.4142 C.2       1 <0>         0.0689
      5 C5          0.0126   -0.9828    2.3509 C.2       1 <0>        -0.1770
      6 S1          1.2341   -1.0954    3.6487 S.3       1 <0>         0.1225
      7 C6          2.5368   -0.2081    2.8258 C.2       1 <0>         0.1695
      8 N1          1.9670    0.1133    1.6169 N.pl3     1 <0>        -0.4513
      9 C7          2.9515    0.8094    0.9237 C.2       1 <0>         0.3222
     10 C8          4.0506    0.8724    1.7239 C.2       1 <0>        -0.0159
     11 N2          3.7543    0.2406    2.8905 N.2       1 <0>        -0.3969
     12 C9          5.3379    1.5239    1.3877 C.ar      1 <0>         0.0322
     13 C10         5.8096    1.5007    0.0737 C.ar      1 <0>        -0.1032
     14 C11         7.0078    2.1063   -0.2405 C.ar      1 <0>        -0.0905
     15 C12         7.7456    2.7394    0.7491 C.ar      1 <0>         0.0643
     16 C13         7.2800    2.7670    2.0644 C.ar      1 <0>         0.0453
     17 C14         6.0748    2.1648    2.3817 C.ar      1 <0>        -0.0562
     18 O1          8.1950    3.4441    2.8013 O.3       1 <0>        -0.2336
     19 C15         9.2016    3.8351    2.0042 C.2       1 <0>         0.6392
     20 O2         10.1782    4.4639    2.3640 O.2       1 <0>        -0.4842
     21 N3          8.9627    3.4231    0.7435 N.am      1 <0>        -0.6473
     22 H1          9.5326    3.5737   -0.0268 H         1 <0>         0.4441
     23 N4          2.8336    1.3465   -0.3610 N.pl3     1 <0>        -0.8524
     24 H2          0.3097   -1.9481   -0.6863 H         1 <0>         0.0677
     25 H3         -0.0380   -0.7063   -1.9132 H         1 <0>         0.0727
     26 H4          1.5571   -0.7565   -1.1250 H         1 <0>         0.0557
     27 H5          0.1900    1.0566   -0.1641 H         1 <0>         0.0829
     28 H6         -1.7558   -1.2109    0.4503 H         1 <0>         0.0675
     29 H7         -1.8811    0.4313    1.1253 H         1 <0>         0.0664
     30 H8         -2.0400    0.1757   -0.6290 H         1 <0>         0.0705
     31 H9         -0.9956   -1.3696    2.3313 H         1 <0>         0.2159
     32 H10         5.2358    1.0076   -0.6970 H         1 <0>         0.1399
     33 H11         7.3720    2.0875   -1.2570 H         1 <0>         0.1416
     34 H12         5.7090    2.1873    3.3976 H         1 <0>         0.1485
     35 H13         2.0448    1.1603   -0.8940 H         1 <0>         0.4009
     36 H14         3.5405    1.9055   -0.7197 H         1 <0>         0.4186
@<TRIPOS>BOND
     1    1    2 1
     2    1   24 1
     3    1   25 1
     4    1   26 1
     5    2    3 1
     6    2    4 1
     7    2   27 1
     8    3   28 1
     9    3   29 1
    10    3   30 1
    11    4    8 1
    12    4    5 2
    13    5    6 1
    14    5   31 1
    15    6    7 1
    16    7   11 2
    17    7    8 1
    18    8    9 1
    19    9   10 2
    20    9   23 1
    21   10   11 1
    22   10   12 1
    23   12   17 ar
    24   12   13 ar
    25   13   14 ar
    26   13   32 1
    27   14   15 ar
    28   14   33 1
    29   15   21 1
    30   15   16 ar
    31   16   17 ar
    32   16   18 1
    33   17   34 1
    34   18   19 1
    35   19   20 2
    36   19   21 am
    37   21   22 1
    38   23   35 1
    39   23   36 1
@<TRIPOS>MOLECULE
ZINC15423866
   31    32     0     0     0
SMALL
USER_CHARGES
(4S)-7,7-dimethyl-2,5-dioxo-3,4,6,8-tetrahydro-1H-quinoline-4-carboxylic acid
@<TRIPOS>ATOM
      1 C1          3.1257    3.5227    1.5239 C.3       1 <0>        -0.1529
      2 C2          2.7136    4.1804    0.2054 C.3       1 <0>        -0.0558
      3 C3          1.2926    3.7472   -0.1625 C.3       1 <0>        -0.0784
      4 C4          1.2534    2.2528   -0.3585 C.2       1 <0>         0.1591
      5 C5          2.3392    1.5825   -0.7987 C.2       1 <0>        -0.2060
      6 C6          2.2697    0.0830   -0.9769 C.3       1 <0>        -0.0892
      7 H1          1.8306   -0.1495   -1.9471 H         1 <0>         0.0823
      8 C7          1.3982   -0.5079    0.1358 C.3       1 <0>        -0.1225
      9 C8          0.1037    0.2636    0.1995 C.2       1 <0>         0.5260
     10 O1         -0.9238   -0.3006    0.5091 O.2       1 <0>        -0.5322
     11 N1          0.0894    1.5780   -0.0869 N.am      1 <0>        -0.6569
     12 C9          3.6561   -0.5024   -0.8970 C.2       1 <0>         0.4959
     13 O2          4.2572   -0.4909    0.1511 O.co2     1 <0>        -0.6415
     14 C10         3.5400    2.2471   -1.0950 C.2       1 <0>         0.3768
     15 O3          4.4910    1.6121   -1.5054 O.2       1 <0>        -0.4012
     16 C11         3.6653    3.7363   -0.9104 C.3       1 <0>        -0.1456
     17 C12         2.7686    5.7024    0.3517 C.3       1 <0>        -0.1377
     18 H2          4.1434    3.8207    1.7761 H         1 <0>         0.0604
     19 H3          2.4474    3.8401    2.3159 H         1 <0>         0.0563
     20 H4          3.0800    2.4387    1.4191 H         1 <0>         0.0684
     21 H5          0.6091    4.0260    0.6395 H         1 <0>         0.0852
     22 H6          0.9900    4.2418   -1.0855 H         1 <0>         0.0923
     23 H7          1.9191   -0.4270    1.0899 H         1 <0>         0.1104
     24 H8          1.1889   -1.5559   -0.0785 H         1 <0>         0.1045
     25 H9         -0.7553    2.0544   -0.1056 H         1 <0>         0.4050
     26 H10         4.6049    3.9685   -0.6591 H         1 <0>         0.0841
     27 H11         3.4028    4.2425   -1.8393 H         1 <0>         0.0942
     28 H12         2.4688    6.1687   -0.5868 H         1 <0>         0.0579
     29 H13         2.0909    6.0158    1.1458 H         1 <0>         0.0583
     30 H14         3.7852    6.0071    0.6003 H         1 <0>         0.0613
     31 O4          4.2232   -1.0364   -1.9901 O.co2     1 <0>        -0.7585
@<TRIPOS>BOND
     1    1    2 1
     2    1   18 1
     3    1   19 1
     4    1   20 1
     5    2   16 1
     6    2    3 1
     7    2   17 1
     8    3    4 1
     9    3   21 1
    10    3   22 1
    11    4   11 1
    12    4    5 2
    13    5    6 1
    14    5   14 1
    15    6    7 1
    16    6    8 1
    17    6   12 1
    18    8    9 1
    19    8   23 1
    20    8   24 1
    21    9   10 2
    22    9   11 am
    23   11   25 1
    24   12   13 2
    25   12   31 1
    26   14   15 2
    27   14   16 1
    28   16   26 1
    29   16   27 1
    30   17   28 1
    31   17   29 1
    32   17   30 1
@<TRIPOS>MOLECULE
ZINC37687709
   29    29     0     0     0
SMALL
USER_CHARGES

@<TRIPOS>ATOM
      1 C1          0.3463    1.4845   -0.0365 C.3       1 <0>        -0.0964
      2 C2          0.1754   -0.0127   -0.0202 C.ar      1 <0>         0.1910
      3 C3         -0.0990   -0.7094   -1.2026 C.ar      1 <0>        -0.1903
      4 C4         -0.2486   -2.1123   -1.1255 C.ar      1 <0>         0.1574
      5 N1         -0.1226   -2.7038    0.0600 N.ar      1 <0>        -0.5364
      6 C5          0.1361   -1.9998    1.1414 C.ar      1 <0>         0.3007
      7 N2          0.2877   -0.6885    1.1099 N.ar      1 <0>        -0.5307
      8 C6          0.2690   -2.7157    2.4608 C.3       1 <0>        -0.0726
      9 S1         -0.5955   -3.0596   -2.5701 S.3       1 <0>         0.0060
     10 C7         -0.6930   -4.7661   -1.9629 C.3       1 <0>        -0.1137
     11 C8         -0.9938   -5.7069   -3.1314 C.3       1 <0>         0.1160
     12 H1         -0.1991   -5.6301   -3.8735 H         1 <0>         0.0646
     13 C9         -1.0761   -7.1462   -2.6192 C.3       1 <0>        -0.1776
     14 O1         -2.2398   -5.3417   -3.7283 O.3       1 <0>        -0.5549
     15 C10        -0.2281   -0.0032   -2.4854 C.2       1 <0>         0.5391
     16 O2          0.7663    0.2253   -3.1608 O.co2     1 <0>        -0.6723
     17 O3         -1.3300    0.3563   -2.8777 O.co2     1 <0>        -0.6693
     18 H2          1.3741    1.7299   -0.3039 H         1 <0>         0.0827
     19 H3         -0.3335    1.9199   -0.7688 H         1 <0>         0.0851
     20 H4          0.1221    1.8866    0.9515 H         1 <0>         0.0745
     21 H5          1.3087   -3.0052    2.6140 H         1 <0>         0.0771
     22 H6         -0.0462   -2.0533    3.2670 H         1 <0>         0.0799
     23 H7         -0.3591   -3.6065    2.4558 H         1 <0>         0.0770
     24 H8          0.2573   -5.0446   -1.5076 H         1 <0>         0.0991
     25 H9         -1.4877   -4.8428   -1.2208 H         1 <0>         0.0934
     26 H10        -1.8708   -7.2229   -1.8772 H         1 <0>         0.0655
     27 H11        -1.2904   -7.8164   -3.4517 H         1 <0>         0.0619
     28 H12        -0.1257   -7.4247   -2.1639 H         1 <0>         0.0674
     29 H13        -2.4946   -5.8971   -4.4778 H         1 <0>         0.3759
@<TRIPOS>BOND
     1    1    2 1
     2    1   18 1
     3    1   19 1
     4    1   20 1
     5    2    7 ar
     6    2    3 ar
     7    3    4 ar
     8    3   15 1
     9    4    5 ar
    10    4    9 1
    11    5    6 ar
    12    6    7 ar
    13    6    8 1
    14    8   21 1
    15    8   22 1
    16    8   23 1
    17    9   10 1
    18   10   11 1
    19   10   24 1
    20   10   25 1
    21   11   12 1
    22   11   13 1
    23   11   14 1
    24   13   26 1
    25   13   27 1
    26   13   28 1
    27   14   29 1
    28   15   16 2
    29   15   17 1
@<TRIPOS>MOLECULE
ZINC40552466
   38    38     0     0     0
SMALL
USER_CHARGES

@<TRIPOS>ATOM
      1 C1          3.5110   -2.6436   -3.6429 C.3       1 <0>        -0.1451
      2 C2          3.9167   -1.3248   -2.9817 C.3       1 <0>        -0.1147
      3 C3          2.6618   -0.5646   -2.5479 C.3       1 <0>         0.0908
      4 H1          2.0536   -1.2030   -1.9071 H         1 <0>         0.0820
      5 C4          3.0622    0.6739   -1.7884 C.2       1 <0>         0.4885
      6 O1          2.8944    1.7746   -2.2852 O.co2     1 <0>        -0.6888
      7 O2          3.5540    0.5753   -0.6771 O.co2     1 <0>        -0.7005
      8 N1          1.8884   -0.1826   -3.7320 N.am      1 <0>        -0.7091
      9 C5          0.5610    0.0279   -3.6309 C.2       1 <0>         0.7140
     10 O3         -0.0104   -0.1883   -2.5797 O.2       1 <0>        -0.5963
     11 N2         -0.1329    0.4780   -4.6950 N.am      1 <0>        -0.6350
     12 C6         -1.5556    0.8226   -4.5696 C.3       1 <0>         0.1389
     13 C7         -1.7646    2.2498   -5.0857 C.3       1 <0>        -0.1123
     14 H2         -1.2389    2.9515   -4.4381 H         1 <0>         0.0768
     15 C8         -1.2147    2.3586   -6.5097 C.3       1 <0>        -0.1031
     16 C9          0.2868    2.0626   -6.5026 C.3       1 <0>        -0.1126
     17 H3          0.7931    2.7661   -5.8416 H         1 <0>         0.0801
     18 C10         0.5205    0.6391   -6.0011 C.3       1 <0>         0.1224
     19 C11         0.8420    2.2046   -7.9212 C.3       1 <0>        -0.1424
     20 C12        -3.2589    2.5782   -5.0881 C.3       1 <0>        -0.1415
     21 H4          2.9475   -3.2481   -2.9322 H         1 <0>         0.0518
     22 H5          2.8915   -2.4370   -4.5156 H         1 <0>         0.0479
     23 H6          4.4050   -3.1852   -3.9520 H         1 <0>         0.0478
     24 H7          4.5362   -1.5314   -2.1090 H         1 <0>         0.0797
     25 H8          4.4802   -0.7203   -3.6924 H         1 <0>         0.0582
     26 H9          2.3317   -0.0812   -4.5888 H         1 <0>         0.3844
     27 H10        -2.1531    0.1290   -5.1611 H         1 <0>         0.0566
     28 H11        -1.8546    0.7651   -3.5230 H         1 <0>         0.0904
     29 H12        -1.7236    1.6394   -7.1515 H         1 <0>         0.0607
     30 H13        -1.3843    3.3666   -6.8884 H         1 <0>         0.0617
     31 H14         1.5909    0.4606   -5.8987 H         1 <0>         0.0756
     32 H15         0.0961   -0.0698   -6.7120 H         1 <0>         0.0611
     33 H16         0.6740    3.2211   -8.2771 H         1 <0>         0.0561
     34 H17         1.9114    1.9937   -7.9156 H         1 <0>         0.0569
     35 H18         0.3362    1.5002   -8.5815 H         1 <0>         0.0535
     36 H19        -3.6502    2.4979   -4.0739 H         1 <0>         0.0570
     37 H20        -3.4071    3.5937   -5.4554 H         1 <0>         0.0551
     38 H21        -3.7840    1.8770   -5.7367 H         1 <0>         0.0535
@<TRIPOS>BOND
     1    1    2 1
     2    1   21 1
     3    1   22 1
     4    1   23 1
     5    2    3 1
     6    2   24 1
     7    2   25 1
     8    3    4 1
     9    3    5 1
    10    3    8 1
    11    5    6 2
    12    5    7 1
    13    8    9 am
    14    8   26 1
    15    9   10 2
    16    9   11 am
    17   11   18 1
    18   11   12 1
    19   12   13 1
    20   12   27 1
    21   12   28 1
    22   13   14 1
    23   13   15 1
    24   13   20 1
    25   15   16 1
    26   15   29 1
    27   15   30 1
    28   16   17 1
    29   16   18 1
    30   16   19 1
    31   18   31 1
    32   18   32 1
    33   19   33 1
    34   19   34 1
    35   19   35 1
    36   20   36 1
    37   20   37 1
    38   20   38 1
@<TRIPOS>MOLECULE
ZINC50567640
   38    38     0     0     0
SMALL
USER_CHARGES

@<TRIPOS>ATOM
      1 C1         -0.0204    1.5251    0.0095 C.3       1 <0>        -0.1455
      2 C2          0.0011   -0.0047    0.0014 C.3       1 <0>        -0.1026
      3 H1         -1.0212   -0.3830    0.0091 H         1 <0>         0.0723
      4 C3          0.7191   -0.4988   -1.2565 C.3       1 <0>        -0.1126
      5 C4          0.7124   -2.0290   -1.2820 C.3       1 <0>        -0.1346
      6 C5          1.4634   -2.5594   -0.0567 C.3       1 <0>         0.1084
      7 N1          0.8691   -1.9734    1.1525 N.am      1 <0>        -0.6307
      8 C6          0.7433   -0.5122    1.2417 C.3       1 <0>         0.1610
      9 H2          0.1818   -0.2473    2.1375 H         1 <0>         0.0977
     10 C7          2.1357    0.1192    1.3002 C.3       1 <0>        -0.1627
     11 C8          0.4467   -2.7613    2.1611 C.2       1 <0>         0.7043
     12 O1          0.0415   -2.2627    3.1933 O.2       1 <0>        -0.5993
     13 N2          0.4735   -4.1020    2.0255 N.am      1 <0>        -0.7134
     14 C9         -0.0867   -4.9558    3.0759 C.3       1 <0>         0.1148
     15 C10         0.6560   -4.7022    4.3893 C.3       1 <0>        -0.1399
     16 C11        -1.5709   -4.6323    3.2587 C.3       1 <0>        -0.1372
     17 C12         0.0675   -6.4024    2.6829 C.2       1 <0>         0.5031
     18 O2          0.5962   -6.6933    1.6235 O.co2     1 <0>        -0.6950
     19 O3         -0.3365   -7.2820    3.4243 O.co2     1 <0>        -0.6829
     20 H3          1.0020    1.9029    0.0019 H         1 <0>         0.0592
     21 H4         -0.5477    1.8858   -0.8737 H         1 <0>         0.0539
     22 H5         -0.5309    1.8766    0.9062 H         1 <0>         0.0560
     23 H6          0.2066   -0.1186   -2.1402 H         1 <0>         0.0608
     24 H7          1.7485   -0.1402   -1.2516 H         1 <0>         0.0649
     25 H8         -0.3164   -2.3886   -1.2620 H         1 <0>         0.0671
     26 H9          1.2034   -2.3799   -2.1897 H         1 <0>         0.0725
     27 H10         1.3770   -3.6453   -0.0170 H         1 <0>         0.0842
     28 H11         2.5141   -2.2766   -0.1214 H         1 <0>         0.0638
     29 H12         2.0409    1.2038    1.3533 H         1 <0>         0.0656
     30 H13         2.6622   -0.2431    2.1832 H         1 <0>         0.0565
     31 H14         2.6961   -0.1532    0.4059 H         1 <0>         0.0572
     32 H15         0.8636   -4.5016    1.2324 H         1 <0>         0.4005
     33 H16         0.5445   -3.6559    4.6736 H         1 <0>         0.0691
     34 H17         0.2393   -5.3375    5.1709 H         1 <0>         0.0597
     35 H18         1.7134   -4.9327    4.2592 H         1 <0>         0.0395
     36 H19        -2.1000   -4.8130    2.3230 H         1 <0>         0.0404
     37 H20        -1.9876   -5.2676    4.0402 H         1 <0>         0.0621
     38 H21        -1.6824   -3.5860    3.5430 H         1 <0>         0.0620
@<TRIPOS>BOND
     1    1    2 1
     2    1   20 1
     3    1   21 1
     4    1   22 1
     5    2    3 1
     6    2    8 1
     7    2    4 1
     8    4    5 1
     9    4   23 1
    10    4   24 1
    11    5    6 1
    12    5   25 1
    13    5   26 1
    14    6    7 1
    15    6   27 1
    16    6   28 1
    17    7    8 1
    18    7   11 am
    19    8    9 1
    20    8   10 1
    21   10   29 1
    22   10   30 1
    23   10   31 1
    24   11   12 2
    25   11   13 am
    26   13   14 1
    27   13   32 1
    28   14   15 1
    29   14   16 1
    30   14   17 1
    31   15   33 1
    32   15   34 1
    33   15   35 1
    34   16   36 1
    35   16   37 1
    36   16   38 1
    37   17   18 2
    38   17   19 1
@<TRIPOS>MOLECULE
ZINC57314574
   33    35     0     0     0
SMALL
USER_CHARGES

@<TRIPOS>ATOM
      1 C1         -0.7170   -0.6577    1.3549 C.3       1 <0>        -0.1823
      2 C2         -1.1136    0.7081    0.7908 C.3       1 <0>        -0.1927
      3 C3         -0.0480   -0.1316    0.0835 C.3       1 <0>        -0.1254
      4 C4         -0.4332   -0.7910   -1.2422 C.3       1 <0>        -0.0124
      5 C5         -0.1989   -2.3000   -1.1484 C.3       1 <0>        -0.1032
      6 C6          1.2743   -2.5702   -0.9820 C.2       1 <0>         0.4908
      7 O1          2.0613   -1.6446   -0.9423 O.2       1 <0>        -0.6157
      8 N1          1.7136   -3.8219   -0.8786 N.2       1 <0>        -0.6766
      9 C7          2.9999   -4.0574   -0.6338 C.2       1 <0>         0.6518
     10 N2          3.9636   -3.0880   -0.5939 N.pl3     1 <0>        -0.7470
     11 C8          5.2230   -3.7940   -0.2948 C.3       1 <0>         0.0217
     12 C9          4.7966   -5.2437   -0.1847 C.2       1 <0>         0.4542
     13 O2          5.5880   -6.2954    0.0797 O.3       1 <0>        -0.6301
     14 N3          3.5075   -5.2690   -0.3914 N.2       1 <0>        -0.6294
     15 C10        -1.9105   -0.5215   -1.5355 C.3       1 <0>        -0.1435
     16 C11        -2.2818   -0.0923   -2.9564 C.3       1 <0>        -0.1826
     17 C12        -2.3229    0.9252   -1.8145 C.3       1 <0>        -0.1764
     18 H1         -0.1219   -0.6716    2.2680 H         1 <0>         0.0849
     19 H2         -1.4317   -1.4736    1.2468 H         1 <0>         0.0905
     20 H3         -2.0891    0.7908    0.3117 H         1 <0>         0.1035
     21 H4         -0.7793    1.5928    1.3328 H         1 <0>         0.0816
     22 H5          0.9873    0.2007    0.1602 H         1 <0>         0.1082
     23 H6          0.1778   -0.3776   -2.0447 H         1 <0>         0.0774
     24 H7         -0.7406   -2.6991   -0.2909 H         1 <0>         0.0851
     25 H8         -0.5558   -2.7805   -2.0593 H         1 <0>         0.0842
     26 H9          3.8438   -2.1355   -0.7331 H         1 <0>         0.4287
     27 H10         5.9380   -3.6647   -1.1072 H         1 <0>         0.0933
     28 H11         5.6443   -3.4451    0.6480 H         1 <0>         0.0928
     29 H12        -2.6190   -1.1522   -0.9986 H         1 <0>         0.1018
     30 H13        -1.4736   -0.0019   -3.6822 H         1 <0>         0.0926
     31 H14        -3.2347   -0.4407   -3.3546 H         1 <0>         0.0900
     32 H15        -3.3029    1.2462   -1.4614 H         1 <0>         0.0898
     33 H16        -1.5418    1.6850   -1.7891 H         1 <0>         0.0946
@<TRIPOS>BOND
     1    1    3 1
     2    1    2 1
     3    1   18 1
     4    1   19 1
     5    2    3 1
     6    2   20 1
     7    2   21 1
     8    3    4 1
     9    3   22 1
    10    4   15 1
    11    4   23 1
    12    4    5 1
    13    5    6 1
    14    5   24 1
    15    5   25 1
    16    6    8 1
    17    6    7 2
    18    8    9 2
    19    9   10 1
    20    9   14 1
    21   10   11 1
    22   10   26 1
    23   11   12 1
    24   11   27 1
    25   11   28 1
    26   12   13 1
    27   12   14 2
    28   15   17 1
    29   15   16 1
    30   15   29 1
    31   16   17 1
    32   16   30 1
    33   16   31 1
    34   17   32 1
    35   17   33 1
@<TRIPOS>MOLECULE
ZINC05520868
   21    23     0     0     0
SMALL
USER_CHARGES
1-(1H-tetrazol-5-ylmethyl)benzotriazole
@<TRIPOS>ATOM
      1 C1          1.1533    3.1662    0.0076 C.ar      1 <0>        -0.1402
      2 C2          1.1604    1.7771    0.0005 C.ar      1 <0>        -0.0808
      3 C3         -0.0126    1.0758    0.0080 C.ar      1 <0>        -0.1094
      4 C4         -1.2252    1.7568    0.0174 C.ar      1 <0>         0.0893
      5 C5         -1.2392    3.1624    0.0299 C.ar      1 <0>        -0.0207
      6 C6         -0.0225    3.8576    0.0220 C.ar      1 <0>        -0.0419
      7 N1         -2.5275    3.5586    0.0443 N.2       1 <0>        -0.2389
      8 N2         -3.3091    2.5369    0.0467 N.2       1 <0>         0.0125
      9 N3         -2.5420    1.3625    0.0334 N.pl3     1 <0>        -0.3681
     10 C7         -3.0452   -0.0134    0.0310 C.3       1 <0>         0.2512
     11 C8         -3.2315   -0.4775   -1.3906 C.2       1 <0>         0.0153
     12 N4         -3.1025   -1.6122   -3.1780 N.2       1 <0>        -0.1762
     13 N5         -3.8544   -0.5902   -3.3957 N.2       1 <0>        -0.2026
     14 N6         -3.9485    0.1092   -2.3178 N.2       1 <0>        -0.3534
     15 H1          2.0893    3.7048    0.0012 H         1 <0>         0.1311
     16 H2          2.1011    1.2467   -0.0113 H         1 <0>         0.1327
     17 H3          0.0021   -0.0041    0.0020 H         1 <0>         0.1321
     18 H4         -0.0158    4.9376    0.0270 H         1 <0>         0.1329
     19 H5         -2.3292   -0.6630    0.5344 H         1 <0>         0.1067
     20 H6         -4.0007   -0.0517    0.5539 H         1 <0>         0.1067
     21 N7         -2.7077   -1.5684   -1.9595 N.2       1 <0>        -0.3781
@<TRIPOS>BOND
     1    1    6 ar
     2    1    2 ar
     3    1   15 1
     4    2    3 ar
     5    2   16 1
     6    3    4 ar
     7    3   17 1
     8    4    9 1
     9    4    5 ar
    10    5    6 ar
    11    5    7 1
    12    6   18 1
    13    7    8 2
    14    8    9 1
    15    9   10 1
    16   10   11 1
    17   10   19 1
    18   10   20 1
    19   11   14 2
    20   11   21 1
    21   12   13 2
    22   12   21 1
    23   13   14 1
@<TRIPOS>MOLECULE
ZINC05583015
   18    19     0     0     0
SMALL
USER_CHARGES
2-hydroxy-5-nitro-isoindoline-1,3-dione
@<TRIPOS>ATOM
      1 C1          5.7222    2.8486   -0.0356 C.ar      1 <0>        -0.0377
      2 C2          4.9317    1.7095   -0.0345 C.ar      1 <0>        -0.0628
      3 C3          3.5518    1.8312   -0.0212 C.ar      1 <0>        -0.0731
      4 C4          2.9610    3.1112   -0.0090 C.ar      1 <0>        -0.1295
      5 C5          3.7634    4.2404   -0.0107 C.ar      1 <0>        -0.0002
      6 C6          5.1431    4.1032   -0.0237 C.ar      1 <0>        -0.0425
      7 N1          6.0016    5.3089   -0.0251 N.pl3     1 <0>         0.0317
      8 O1          7.2141    5.1933   -0.0369 O.2       1 <0>        -0.1600
      9 O2          5.4956    6.4168   -0.0146 O.3       1 <0>        -0.1550
     10 C7          1.5007    2.8824    0.0032 C.2       1 <0>         0.5432
     11 O3          0.6478    3.7469    0.0150 O.2       1 <0>        -0.4787
     12 N2          1.2746    1.5563   -0.0018 N.am      1 <0>        -0.3603
     13 C8          2.4305    0.8682   -0.0107 C.2       1 <0>         0.5337
     14 O4          2.5351   -0.3417   -0.0126 O.2       1 <0>        -0.4812
     15 O5         -0.0110    0.9628    0.0073 O.3       1 <0>        -0.6200
     16 H1          6.7981    2.7546   -0.0456 H         1 <0>         0.1646
     17 H2          5.3897    0.7315   -0.0442 H         1 <0>         0.1623
     18 H3          3.3163    5.2235   -0.0017 H         1 <0>         0.1657
@<TRIPOS>BOND
     1    1    6 ar
     2    1    2 ar
     3    1   16 1
     4    2    3 ar
     5    2   17 1
     6    3   13 1
     7    3    4 ar
     8    4    5 ar
     9    4   10 1
    10    5    6 ar
    11    5   18 1
    12    6    7 1
    13    7    8 2
    14    7    9 1
    15   10   11 2
    16   10   12 am
    17   12   13 am
    18   12   15 1
    19   13   14 2
@<TRIPOS>MOLECULE
ZINC00131354
   27    29     0     0     0
SMALL
USER_CHARGES

@<TRIPOS>ATOM
      1 C1         -0.0158    1.3145    0.0093 C.ar      1 <0>         0.2792
      2 C2          1.2086    1.9965    0.0012 C.ar      1 <0>        -0.3820
      3 C3          2.4103    1.2402   -0.0143 C.ar      1 <0>         0.4397
      4 N1          3.5773    1.8927   -0.0224 N.ar      1 <0>        -0.6174
      5 C4          3.6038    3.2065   -0.0160 C.ar      1 <0>         0.3798
      6 N2          2.5102    3.9498   -0.0012 N.ar      1 <0>        -0.6479
      7 C5          1.3010    3.4032    0.0075 C.ar      1 <0>         0.4928
      8 O1          0.1896    4.1732    0.0222 O.3       1 <0>        -0.6586
      9 N3          2.3282   -0.0918   -0.0207 N.ar      1 <0>        -0.5883
     10 C6          1.1468   -0.6837   -0.0126 C.ar      1 <0>         0.5900
     11 N4          0.0021   -0.0041    0.0020 N.ar      1 <0>        -0.6117
     12 N5          1.0976   -2.0635   -0.0200 N.pl3     1 <0>        -0.5922
     13 C7          2.3313   -2.8655   -0.0303 C.3       1 <0>         0.0954
     14 C8          2.2384   -3.9101    1.0878 C.3       1 <0>         0.0481
     15 O2          1.0111   -4.6315    0.9571 O.3       1 <0>        -0.3854
     16 C9         -0.1603   -3.8245    1.1003 C.3       1 <0>         0.0477
     17 C10        -0.1902   -2.7756   -0.0115 C.3       1 <0>         0.0961
     18 H1         -0.9505    1.8553    0.0255 H         1 <0>         0.1707
     19 H2          4.5633    3.7023   -0.0229 H         1 <0>         0.1756
     20 H3          2.4356   -3.3663   -0.9928 H         1 <0>         0.0674
     21 H4          3.1913   -2.2184    0.1424 H         1 <0>         0.1108
     22 H5          3.0773   -4.6017    1.0105 H         1 <0>         0.1041
     23 H6          2.2656   -3.4103    2.0561 H         1 <0>         0.0540
     24 H7         -1.0471   -4.4546    1.0320 H         1 <0>         0.1038
     25 H8         -0.1418   -3.3245    2.0686 H         1 <0>         0.0534
     26 H9         -0.9992   -2.0690    0.1737 H         1 <0>         0.1079
     27 H10        -0.3441   -3.2672   -0.9721 H         1 <0>         0.0671
@<TRIPOS>BOND
     1    1   11 ar
     2    1    2 ar
     3    1   18 1
     4    2    7 ar
     5    2    3 ar
     6    3    4 ar
     7    3    9 ar
     8    4    5 ar
     9    5    6 ar
    10    5   19 1
    11    6    7 ar
    12    7    8 1
    13    9   10 ar
    14   10   11 ar
    15   10   12 1
    16   12   17 1
    17   12   13 1
    18   13   14 1
    19   13   20 1
    20   13   21 1
    21   14   15 1
    22   14   22 1
    23   14   23 1
    24   15   16 1
    25   16   17 1
    26   16   24 1
    27   16   25 1
    28   17   26 1
    29   17   27 1
@<TRIPOS>MOLECULE
ZINC49452755
   25    26     0     0     0
SMALL
USER_CHARGES

@<TRIPOS>ATOM
      1 C1         -0.0187    1.5258    0.0104 C.3       1 <0>        -0.1059
      2 C2          0.0021   -0.0041    0.0020 C.3       1 <0>         0.0259
      3 C3         -1.4123   -0.5255    0.0106 C.2       1 <0>         0.5220
      4 O1         -2.3046    0.1301   -0.4843 O.2       1 <0>        -0.4998
      5 N1         -1.6838   -1.7241    0.5699 N.am      1 <0>        -0.5497
      6 C4         -0.6466   -2.4475    1.1655 C.ar      1 <0>         0.3037
      7 C5          0.5522   -1.7953    1.4590 C.ar      1 <0>         0.0826
      8 C6          1.5835   -2.5050    2.0504 C.ar      1 <0>        -0.0697
      9 C7          1.3802   -3.8508    2.3291 C.ar      1 <0>        -0.1685
     10 C8          0.1690   -4.4318    2.0110 C.ar      1 <0>         0.0876
     11 N2         -0.7971   -3.7299    1.4478 N.ar      1 <0>        -0.4886
     12 O2          0.6940   -0.4776    1.1610 O.3       1 <0>        -0.2870
     13 C9         -3.0475   -2.2591    0.5530 C.3       1 <0>         0.0909
     14 C10         0.7083   -0.4897   -1.2375 C.2       1 <0>         0.4928
     15 O3          1.7100   -1.1776   -1.1385 O.co2     1 <0>        -0.6579
     16 O4          0.2778   -0.1947   -2.3395 O.co2     1 <0>        -0.6628
     17 H1          1.0039    1.9031    0.0027 H         1 <0>         0.0721
     18 H2         -0.5459    1.8868   -0.8726 H         1 <0>         0.0932
     19 H3         -0.5289    1.8773    0.9072 H         1 <0>         0.0566
     20 H4          2.5211   -2.0250    2.2891 H         1 <0>         0.1457
     21 H5          2.1617   -4.4365    2.7904 H         1 <0>         0.1398
     22 H6          0.0090   -5.4779    2.2265 H         1 <0>         0.1587
     23 H7         -3.1933   -2.8541   -0.3485 H         1 <0>         0.0603
     24 H8         -3.2027   -2.8859    1.4312 H         1 <0>         0.0796
     25 H9         -3.7612   -1.4353    0.5640 H         1 <0>         0.0785
@<TRIPOS>BOND
     1    1    2 1
     2    1   17 1
     3    1   18 1
     4    1   19 1
     5    2   12 1
     6    2    3 1
     7    2   14 1
     8    3    4 2
     9    3    5 am
    10    5    6 1
    11    5   13 1
    12    6   11 ar
    13    6    7 ar
    14    7    8 ar
    15    7   12 1
    16    8    9 ar
    17    8   20 1
    18    9   10 ar
    19    9   21 1
    20   10   11 ar
    21   10   22 1
    22   13   23 1
    23   13   24 1
    24   13   25 1
    25   14   15 2
    26   14   16 1
@<TRIPOS>MOLECULE
ZINC62135308
   34    35     0     0     0
SMALL
USER_CHARGES

@<TRIPOS>ATOM
      1 C1         -0.3840    1.4525    0.2421 C.3       1 <0>        -0.1346
      2 C2         -0.2168   -0.0663    0.1645 C.3       1 <0>         0.1286
      3 H1         -1.1704   -0.5517    0.3722 H         1 <0>         0.0739
      4 C3          0.2697   -0.4614   -1.2345 C.3       1 <0>         0.0513
      5 O1          0.6001   -1.8523   -1.2426 O.3       1 <0>        -0.3835
      6 C4          1.6689   -2.2051   -0.3610 C.3       1 <0>         0.0483
      7 C5          1.2540   -1.8993    1.0827 C.3       1 <0>         0.0070
      8 N1          0.7871   -0.5052    1.1469 N.am      1 <0>        -0.6283
      9 C6          1.2653    0.3447    2.0772 C.2       1 <0>         0.7236
     10 O2          0.9442    1.5171    2.0519 O.2       1 <0>        -0.5819
     11 N2          2.0995   -0.1050    3.0355 N.am      1 <0>        -0.6334
     12 C7          2.6924   -1.4491    3.0938 C.3       1 <0>         0.0907
     13 C8          3.5527   -1.5154    4.3732 C.3       1 <0>        -0.1115
     14 C9          2.9455   -0.3952    5.2586 C.3       1 <0>        -0.1659
     15 H2          2.0604   -0.7508    5.7862 H         1 <0>         0.0755
     16 C10         2.5737    0.6715    4.1955 C.3       1 <0>         0.1513
     17 C11         3.9680    0.1424    6.2263 C.2       1 <0>         0.5039
     18 O3          5.0916   -0.3302    6.2509 O.co2     1 <0>        -0.6906
     19 O4          3.6716    1.0499    6.9847 O.co2     1 <0>        -0.6939
     20 H3          0.5904    1.9309    0.1432 H         1 <0>         0.0729
     21 H4         -1.0368    1.7878   -0.5638 H         1 <0>         0.0429
     22 H5         -0.8248    1.7210    1.2022 H         1 <0>         0.0778
     23 H6         -0.5194   -0.2704   -1.9617 H         1 <0>         0.1033
     24 H7          1.1524    0.1240   -1.4918 H         1 <0>         0.0555
     25 H8          1.8863   -3.2686   -0.4599 H         1 <0>         0.1040
     26 H9          2.5567   -1.6260   -0.6151 H         1 <0>         0.0538
     27 H10         0.4488   -2.5698    1.3832 H         1 <0>         0.0698
     28 H11         2.1089   -2.0311    1.7460 H         1 <0>         0.1495
     29 H12         1.9039   -2.2004    3.1379 H         1 <0>         0.0713
     30 H13         3.3182   -1.6166    2.2172 H         1 <0>         0.0694
     31 H14         3.4506   -2.4869    4.8567 H         1 <0>         0.0740
     32 H15         4.5977   -1.3040    4.1467 H         1 <0>         0.0874
     33 H16         3.4492    1.2617    3.9246 H         1 <0>         0.0634
     34 H17         1.7799    1.3184    4.5691 H         1 <0>         0.0746
@<TRIPOS>BOND
     1    1    2 1
     2    1   20 1
     3    1   21 1
     4    1   22 1
     5    2    3 1
     6    2    8 1
     7    2    4 1
     8    4    5 1
     9    4   23 1
    10    4   24 1
    11    5    6 1
    12    6    7 1
    13    6   25 1
    14    6   26 1
    15    7    8 1
    16    7   27 1
    17    7   28 1
    18    8    9 am
    19    9   10 2
    20    9   11 am
    21   11   16 1
    22   11   12 1
    23   12   13 1
    24   12   29 1
    25   12   30 1
    26   13   14 1
    27   13   31 1
    28   13   32 1
    29   14   15 1
    30   14   16 1
    31   14   17 1
    32   16   33 1
    33   16   34 1
    34   17   18 2
    35   17   19 1
@<TRIPOS>MOLECULE
ZINC65430013
   27    29     0     0     0
SMALL
USER_CHARGES

@<TRIPOS>ATOM
      1 C1         -0.0184    1.5028    0.0103 C.3       1 <0>        -0.0756
      2 C2          0.0021   -0.0041    0.0020 C.2       1 <0>         0.0885
      3 C3          0.0059   -0.7058   -1.1581 C.2       1 <0>        -0.3094
      4 S1          0.0324   -2.3788   -0.5350 S.3       1 <0>         0.2039
      5 C4          0.0358   -2.0150    1.1082 C.2       1 <0>         0.2777
      6 N1          0.0227   -0.6994    1.1239 N.2       1 <0>        -0.5697
      7 N2          0.0535   -2.8906    2.1857 N.am      1 <0>        -0.6046
      8 C5          0.0715   -4.2213    1.9725 C.2       1 <0>         0.6323
      9 O1          0.0721   -4.6550    0.8368 O.2       1 <0>        -0.5082
     10 C6          0.0903   -5.1527    3.1187 C.2       1 <0>         0.0151
     11 N3          0.1089   -6.4729    3.0575 N.2       1 <0>        -0.5100
     12 C7          0.1222   -6.9268    4.3072 C.2       1 <0>         0.1060
     13 N4          0.1121   -5.9014    5.1213 N.2       1 <0>        -0.3336
     14 N5          0.0978   -4.8152    4.4280 N.2       1 <0>        -0.3352
     15 C8          0.1452   -8.3767    4.7173 C.3       1 <0>        -0.0372
     16 C9         -0.0456   -8.6940    6.2018 C.3       1 <0>        -0.1691
     17 C10         1.3321   -8.8549    5.5560 C.3       1 <0>        -0.1751
     18 H1          1.0042    1.8801    0.0026 H         1 <0>         0.0707
     19 H2         -0.5455    1.8639   -0.8728 H         1 <0>         0.0714
     20 H3         -0.5286    1.8543    0.9071 H         1 <0>         0.0709
     21 H4         -0.0046   -0.3507   -2.1780 H         1 <0>         0.1881
     22 H5          0.0530   -2.5446    3.0919 H         1 <0>         0.4319
     23 H6         -0.2748   -9.0764    3.9947 H         1 <0>         0.1057
     24 H7         -0.1877   -7.8541    6.8818 H         1 <0>         0.1007
     25 H8         -0.5913   -9.6026    6.4562 H         1 <0>         0.0873
     26 H9          1.6927   -9.8693    5.3855 H         1 <0>         0.0879
     27 H10         2.0964   -8.1207    5.8112 H         1 <0>         0.0896
@<TRIPOS>BOND
     1    1    2 1
     2    1   18 1
     3    1   19 1
     4    1   20 1
     5    2    6 1
     6    2    3 2
     7    3    4 1
     8    3   21 1
     9    4    5 1
    10    5    6 2
    11    5    7 1
    12    7    8 am
    13    7   22 1
    14    8    9 2
    15    8   10 1
    16   10   11 2
    17   10   14 1
    18   11   12 1
    19   12   15 1
    20   12   13 2
    21   13   14 1
    22   15   17 1
    23   15   16 1
    24   15   23 1
    25   16   17 1
    26   16   24 1
    27   16   25 1
    28   17   26 1
    29   17   27 1
@<TRIPOS>MOLECULE
ZINC35342473
   43    45     0     0     0
SMALL
USER_CHARGES

@<TRIPOS>ATOM
      1 C1         -0.0184    1.5028    0.0103 C.3       1 <0>        -0.0660
      2 C2          0.0021   -0.0041    0.0020 C.2       1 <0>         0.0855
      3 N1         -1.0148   -0.8153    0.0021 N.2       1 <0>        -0.5098
      4 C3         -0.8644   -2.1568   -0.0059 C.ar      1 <0>         0.0771
      5 C4         -1.8432   -3.1745   -0.0066 C.ar      1 <0>        -0.1125
      6 C5         -1.4729   -4.4987   -0.0146 C.ar      1 <0>         0.1740
      7 C6         -0.1248   -4.8751   -0.0226 C.ar      1 <0>         0.1857
      8 C7          0.8545   -3.8941   -0.0224 C.ar      1 <0>        -0.1175
      9 C8          0.4862   -2.5697   -0.0141 C.ar      1 <0>        -0.1580
     10 S1          1.3456   -1.0175   -0.0168 S.3       1 <0>         0.0664
     11 N2          0.2312   -6.2300   -0.0301 N.pl3     1 <0>        -0.8723
     12 N3         -2.4640   -5.4901   -0.0142 N.pl3     1 <0>        -0.7432
     13 C9         -3.8791   -5.1112   -0.0054 C.3       1 <0>         0.1583
     14 H1         -4.0094   -4.2068    0.5888 H         1 <0>         0.0838
     15 C10        -4.3464   -4.8512   -1.4390 C.3       1 <0>        -0.1349
     16 C11        -5.8243   -4.4555   -1.4298 C.3       1 <0>        -0.1205
     17 C12        -6.6521   -5.5892   -0.8212 C.3       1 <0>        -0.1172
     18 C13        -6.1848   -5.8492    0.6123 C.3       1 <0>        -0.0826
     19 H2         -6.7745   -6.6569    1.0458 H         1 <0>         0.0740
     20 C14        -4.7069   -6.2449    0.6031 C.3       1 <0>        -0.0911
     21 H3         -4.5766   -7.1493    0.0088 H         1 <0>         0.0726
     22 C15        -4.2396   -6.5049    2.0366 C.3       1 <0>        -0.1487
     23 C16        -6.3677   -4.5797    1.4464 C.3       1 <0>        -0.1568
     24 H4          1.0042    1.8801    0.0026 H         1 <0>         0.0851
     25 H5         -0.5455    1.8639   -0.8728 H         1 <0>         0.0907
     26 H6         -0.5286    1.8543    0.9071 H         1 <0>         0.0908
     27 H7         -2.8905   -2.9108   -0.0006 H         1 <0>         0.1323
     28 H8          1.8991   -4.1682   -0.0282 H         1 <0>         0.1319
     29 H9         -0.4580   -6.9126   -0.0299 H         1 <0>         0.3949
     30 H10         1.1669   -6.4855   -0.0357 H         1 <0>         0.4033
     31 H11        -2.2128   -6.4270   -0.0198 H         1 <0>         0.3932
     32 H12        -3.7567   -4.0435   -1.8725 H         1 <0>         0.0663
     33 H13        -4.2161   -5.7556   -2.0332 H         1 <0>         0.0636
     34 H14        -5.9546   -3.5511   -0.8355 H         1 <0>         0.0670
     35 H15        -6.1572   -4.2702   -2.4510 H         1 <0>         0.0641
     36 H16        -7.7050   -5.3073   -0.8147 H         1 <0>         0.0647
     37 H17        -6.5218   -6.4936   -1.4155 H         1 <0>         0.0620
     38 H18        -4.3699   -5.6005    2.6309 H         1 <0>         0.0598
     39 H19        -4.8293   -7.3126    2.4701 H         1 <0>         0.0557
     40 H20        -3.1867   -6.7868    2.0301 H         1 <0>         0.0544
     41 H21        -7.4206   -4.2978    1.4530 H         1 <0>         0.0558
     42 H22        -6.0348   -4.7649    2.4677 H         1 <0>         0.0581
     43 H23        -5.7780   -3.7720    1.0129 H         1 <0>         0.0601
@<TRIPOS>BOND
     1    1    2 1
     2    1   24 1
     3    1   25 1
     4    1   26 1
     5    2   10 1
     6    2    3 2
     7    3    4 1
     8    4    9 ar
     9    4    5 ar
    10    5    6 ar
    11    5   27 1
    12    6    7 ar
    13    6   12 1
    14    7    8 ar
    15    7   11 1
    16    8    9 ar
    17    8   28 1
    18    9   10 1
    19   11   29 1
    20   11   30 1
    21   12   13 1
    22   12   31 1
    23   13   14 1
    24   13   20 1
    25   13   15 1
    26   15   16 1
    27   15   32 1
    28   15   33 1
    29   16   17 1
    30   16   34 1
    31   16   35 1
    32   17   18 1
    33   17   36 1
    34   17   37 1
    35   18   19 1
    36   18   20 1
    37   18   23 1
    38   20   21 1
    39   20   22 1
    40   22   38 1
    41   22   39 1
    42   22   40 1
    43   23   41 1
    44   23   42 1
    45   23   43 1
@<TRIPOS>MOLECULE
ZINC40713651
   25    26     0     0     0
SMALL
USER_CHARGES

@<TRIPOS>ATOM
      1 C1          0.1121    1.2220   -1.1857 C.ar      1 <0>        -0.0904
      2 C2          1.1384    2.0263   -0.7248 C.ar      1 <0>        -0.1329
      3 C3          2.1977    1.4714   -0.0306 C.ar      1 <0>        -0.0869
      4 C4          2.2342    0.1100    0.2045 C.ar      1 <0>        -0.0795
      5 C5          1.2040   -0.7009   -0.2575 C.ar      1 <0>         0.1825
      6 C6          0.1416   -0.1392   -0.9540 C.ar      1 <0>        -0.1150
      7 N1          1.2374   -2.0785   -0.0222 N.pl3     1 <0>        -0.6572
      8 C7          0.0475   -2.7952    0.0905 C.ar      1 <0>         0.3420
      9 C8          0.0845   -4.1885    0.1926 C.ar      1 <0>         0.1359
     10 C9         -1.1102   -4.8868    0.3042 C.ar      1 <0>        -0.0990
     11 C10        -2.2989   -4.1675    0.3097 C.ar      1 <0>        -0.1379
     12 C11        -2.2580   -2.7913    0.2051 C.ar      1 <0>         0.1171
     13 N2         -1.1073   -2.1510    0.1055 N.ar      1 <0>        -0.4810
     14 Br1        -3.9568   -5.0646    0.4586 Br        1 <0>        -0.0340
     15 N3          1.3073   -4.8695    0.1820 N.pl3     1 <0>        -0.8702
     16 Cl1         3.5649   -0.5865    1.0751 Cl        1 <0>        -0.0719
     17 H1         -0.7159    1.6595   -1.7236 H         1 <0>         0.1315
     18 H2          1.1125    3.0904   -0.9078 H         1 <0>         0.1318
     19 H3          2.9975    2.1024    0.3279 H         1 <0>         0.1351
     20 H4         -0.6605   -0.7663   -1.3141 H         1 <0>         0.1492
     21 H5          2.0888   -2.5355    0.0627 H         1 <0>         0.4143
     22 H6         -1.1155   -5.9638    0.3843 H         1 <0>         0.1461
     23 H7         -3.1806   -2.2299    0.2092 H         1 <0>         0.1671
     24 H8          2.1377   -4.3743    0.1033 H         1 <0>         0.3965
     25 H9          1.3244   -5.8368    0.2532 H         1 <0>         0.4067
@<TRIPOS>BOND
     1    1    6 ar
     2    1    2 ar
     3    1   17 1
     4    2    3 ar
     5    2   18 1
     6    3    4 ar
     7    3   19 1
     8    4    5 ar
     9    4   16 1
    10    5    6 ar
    11    5    7 1
    12    6   20 1
    13    7    8 1
    14    7   21 1
    15    8   13 ar
    16    8    9 ar
    17    9   10 ar
    18    9   15 1
    19   10   11 ar
    20   10   22 1
    21   11   12 ar
    22   11   14 1
    23   12   13 ar
    24   12   23 1
    25   15   24 1
    26   15   25 1
@<TRIPOS>MOLECULE
ZINC49671790
   31    33     0     0     0
SMALL
USER_CHARGES

@<TRIPOS>ATOM
      1 C1         -0.0166    1.3759    0.0096 C.ar      1 <0>        -0.1298
      2 C2          1.1697    2.0875    0.0021 C.ar      1 <0>        -0.0893
      3 C3          2.3822    1.4220   -0.0135 C.ar      1 <0>        -0.1560
      4 C4          2.4145    0.0403   -0.0217 C.ar      1 <0>         0.1061
      5 C5          1.2199   -0.6822   -0.0138 C.ar      1 <0>        -0.0313
      6 C6          0.0021   -0.0041    0.0020 C.ar      1 <0>        -0.0816
      7 C7          1.2464   -2.1640   -0.0230 C.2       1 <0>        -0.2715
      8 C8          1.2676   -3.0117    1.1128 C.2       1 <0>         0.1567
      9 N1          1.2877   -4.2569    0.6929 N.2       1 <0>        -0.2722
     10 N2          1.2805   -4.2632   -0.7065 N.pl3     1 <0>        -0.4913
     11 H1          1.2917   -5.0523   -1.2705 H         1 <0>         0.4415
     12 C9          1.2491   -2.9772   -1.1408 C.2       1 <0>         0.3941
     13 N3          1.2270   -2.5563   -2.4639 N.pl3     1 <0>        -0.8457
     14 C10         1.2675   -2.5704    2.5285 C.ar      1 <0>        -0.0343
     15 C11         1.2395   -1.2117    2.8377 C.ar      1 <0>        -0.0676
     16 C12         1.2396   -0.8061    4.1565 C.ar      1 <0>        -0.1015
     17 C13         1.2679   -1.7453    5.1733 C.ar      1 <0>        -0.0566
     18 C14         1.2959   -3.0959    4.8742 C.ar      1 <0>        -0.1310
     19 C15         1.2898   -3.5142    3.5565 C.ar      1 <0>         0.1345
     20 F1          1.3114   -4.8331    3.2646 F         1 <0>        -0.1134
     21 Br1         1.2691   -1.1801    6.9778 Br        1 <0>        -0.0319
     22 F2          3.5989   -0.6094   -0.0379 F         1 <0>        -0.1320
     23 H2         -0.9599    1.9016    0.0260 H         1 <0>         0.1319
     24 H3          1.1491    3.1673    0.0081 H         1 <0>         0.1338
     25 H4          3.3050    1.9829   -0.0197 H         1 <0>         0.1367
     26 H5         -0.9252   -0.5576    0.0083 H         1 <0>         0.1327
     27 H6          1.2074   -1.6089   -2.6712 H         1 <0>         0.4191
     28 H7          1.2312   -3.2097   -3.1808 H         1 <0>         0.4047
     29 H8          1.2180   -0.4773    2.0461 H         1 <0>         0.1507
     30 H9          1.2178    0.2468    4.3962 H         1 <0>         0.1444
     31 H10         1.3183   -3.8244    5.6711 H         1 <0>         0.1501
@<TRIPOS>BOND
     1    1    6 ar
     2    1    2 ar
     3    1   23 1
     4    2    3 ar
     5    2   24 1
     6    3    4 ar
     7    3   25 1
     8    4    5 ar
     9    4   22 1
    10    5    6 ar
    11    5    7 1
    12    6   26 1
    13    7   12 2
    14    7    8 1
    15    8    9 2
    16    8   14 1
    17    9   10 1
    18   10   11 1
    19   10   12 1
    20   12   13 1
    21   13   27 1
    22   13   28 1
    23   14   19 ar
    24   14   15 ar
    25   15   16 ar
    26   15   29 1
    27   16   17 ar
    28   16   30 1
    29   17   18 ar
    30   17   21 1
    31   18   19 ar
    32   18   31 1
    33   19   20 1
@<TRIPOS>MOLECULE
ZINC51172197
   28    30     0     0     0
SMALL
USER_CHARGES

@<TRIPOS>ATOM
      1 C1         -0.0168    1.3904    0.0097 C.ar      1 <0>        -0.1086
      2 C2          1.1701    2.0939    0.0021 C.ar      1 <0>        -0.0855
      3 C3          2.3781    1.4181   -0.0135 C.ar      1 <0>        -0.0932
      4 C4          2.4028    0.0341   -0.0216 C.ar      1 <0>        -0.0814
      5 C5          1.2220   -0.6796   -0.0142 C.ar      1 <0>        -0.1033
      6 C6          0.0021   -0.0041    0.0020 C.ar      1 <0>         0.0258
      7 C7         -1.2691   -0.7649    0.0106 C.2       1 <0>        -0.2728
      8 C8         -1.7361   -1.6128    1.0485 C.2       1 <0>         0.2012
      9 N1         -2.9008   -2.1030    0.6815 N.2       1 <0>        -0.2752
     10 N2         -3.2251   -1.6004   -0.5836 N.pl3     1 <0>        -0.4901
     11 H1         -4.0304   -1.8030   -1.0849 H         1 <0>         0.4428
     12 C9         -2.2245   -0.7769   -0.9882 C.2       1 <0>         0.3952
     13 N3         -2.1697   -0.0772   -2.1861 N.pl3     1 <0>        -0.8449
     14 C10        -1.0365   -1.8958    2.3187 C.2       1 <0>        -0.0824
     15 C11        -1.5634   -2.1143    3.5634 C.2       1 <0>        -0.1184
     16 C12        -0.7044   -2.3622    4.6123 C.2       1 <0>        -0.1398
     17 C13         0.6342   -2.3821    4.3802 C.2       1 <0>        -0.1288
     18 S1          0.7150   -2.0497    2.6281 S.3       1 <0>         0.1491
     19 Cl1         1.9317   -2.6645    5.4984 Cl        1 <0>         0.0183
     20 Br1         4.0006    2.3893   -0.0244 Br        1 <0>        -0.0517
     21 H2         -0.9587    1.9186    0.0260 H         1 <0>         0.1296
     22 H3          1.1566    3.1738    0.0081 H         1 <0>         0.1331
     23 H4          3.3481   -0.4880   -0.0342 H         1 <0>         0.1344
     24 H5          1.2425   -1.7594   -0.0209 H         1 <0>         0.1294
     25 H6         -1.4059    0.4871   -2.3837 H         1 <0>         0.4207
     26 H7         -2.8953   -0.1527   -2.8254 H         1 <0>         0.4054
     27 H8         -2.6317   -2.0924    3.7204 H         1 <0>         0.1460
     28 H9         -1.0901   -2.5379    5.6057 H         1 <0>         0.1450
@<TRIPOS>BOND
     1    1    6 ar
     2    1    2 ar
     3    1   21 1
     4    2    3 ar
     5    2   22 1
     6    3    4 ar
     7    3   20 1
     8    4    5 ar
     9    4   23 1
    10    5    6 ar
    11    5   24 1
    12    6    7 1
    13    7   12 2
    14    7    8 1
    15    8    9 2
    16    8   14 1
    17    9   10 1
    18   10   11 1
    19   10   12 1
    20   12   13 1
    21   13   25 1
    22   13   26 1
    23   14   18 1
    24   14   15 2
    25   15   16 1
    26   15   27 1
    27   16   17 2
    28   16   28 1
    29   17   18 1
    30   17   19 1
@<TRIPOS>MOLECULE
ZINC62609470
   31    33     0     0     0
SMALL
USER_CHARGES

@<TRIPOS>ATOM
      1 C1         -0.0166    1.3757    0.0096 C.ar      1 <0>        -0.1176
      2 C2          1.1701    2.0869    0.0021 C.ar      1 <0>        -0.0976
      3 C3          2.3818    1.4206   -0.0135 C.ar      1 <0>        -0.1156
      4 C4          2.4132    0.0395   -0.0213 C.ar      1 <0>        -0.0154
      5 C5          1.2198   -0.6820   -0.0133 C.ar      1 <0>        -0.0085
      6 C6          0.0021   -0.0041    0.0020 C.ar      1 <0>        -0.0898
      7 C7          1.2462   -2.1647   -0.0220 C.2       1 <0>         0.1622
      8 C8          0.1138   -3.0170   -0.0211 C.2       1 <0>        -0.2758
      9 C9          0.5805   -4.3179   -0.0310 C.2       1 <0>         0.3960
     10 N1          1.9371   -4.2621   -0.0377 N.pl3     1 <0>        -0.4959
     11 H1          2.5363   -5.0248   -0.0453 H         1 <0>         0.4393
     12 N2          2.3237   -2.9171   -0.0377 N.2       1 <0>        -0.2642
     13 N3         -0.1952   -5.4699   -0.0333 N.pl3     1 <0>        -0.8476
     14 C10        -1.3063   -2.5924   -0.0108 C.ar      1 <0>         0.0078
     15 C11        -1.9845   -2.3903   -1.2120 C.ar      1 <0>        -0.0696
     16 C12        -3.3066   -1.9955   -1.1975 C.ar      1 <0>        -0.1485
     17 C13        -3.9607   -1.7996    0.0081 C.ar      1 <0>         0.1120
     18 C14        -3.2919   -1.9985    1.2046 C.ar      1 <0>        -0.1494
     19 C15        -1.9703   -2.3992    1.2008 C.ar      1 <0>        -0.0029
     20 Cl1        -1.1348   -2.6551    2.7009 Cl        1 <0>        -0.0442
     21 F1         -5.2552   -1.4131    0.0166 F         1 <0>        -0.1315
     22 Cl2         3.9348   -0.7960   -0.0415 Cl        1 <0>        -0.0397
     23 H2         -0.9598    1.9016    0.0260 H         1 <0>         0.1316
     24 H3          1.1501    3.1667    0.0081 H         1 <0>         0.1339
     25 H4          3.3050    1.9809   -0.0201 H         1 <0>         0.1363
     26 H5         -0.9252   -0.5577    0.0083 H         1 <0>         0.1379
     27 H6         -1.1629   -5.4031   -0.0275 H         1 <0>         0.4178
     28 H7          0.2307   -6.3414   -0.0406 H         1 <0>         0.4040
     29 H8         -1.4758   -2.5422   -2.1525 H         1 <0>         0.1434
     30 H9         -3.8324   -1.8384   -2.1277 H         1 <0>         0.1441
     31 H10        -3.8060   -1.8442    2.1418 H         1 <0>         0.1473
@<TRIPOS>BOND
     1    1    6 ar
     2    1    2 ar
     3    1   23 1
     4    2    3 ar
     5    2   24 1
     6    3    4 ar
     7    3   25 1
     8    4    5 ar
     9    4   22 1
    10    5    6 ar
    11    5    7 1
    12    6   26 1
    13    7   12 2
    14    7    8 1
    15    8    9 2
    16    8   14 1
    17    9   10 1
    18    9   13 1
    19   10   11 1
    20   10   12 1
    21   13   27 1
    22   13   28 1
    23   14   19 ar
    24   14   15 ar
    25   15   16 ar
    26   15   29 1
    27   16   17 ar
    28   16   30 1
    29   17   18 ar
    30   17   21 1
    31   18   19 ar
    32   18   31 1
    33   19   20 1
@<TRIPOS>MOLECULE
ZINC31820007
   43    46     0     0     0
SMALL
USER_CHARGES
(1-amino-5-methyl-6,7,8,9-tetrahydrofuro[2,3-c]isoquinolin-2-yl)-pyrrolidin-1-yl-methanone
@<TRIPOS>ATOM
      1 C1          0.0021   -0.0041    0.0020 C.3       1 <0>        -0.1166
      2 C2         -0.0184    1.5028    0.0103 C.ar      1 <0>         0.2018
      3 C3         -1.2445    2.1618    0.0198 C.ar      1 <0>        -0.1637
      4 C4         -1.2627    3.5361    0.0383 C.ar      1 <0>         0.0415
      5 C5         -0.0360    4.2113    0.0297 C.ar      1 <0>        -0.2341
      6 C6          0.3504    5.6264    0.0361 C.2       1 <0>         0.2642
      7 C7          1.7197    5.6378    0.0189 C.2       1 <0>        -0.1759
      8 O1          2.1810    4.3659    0.0025 O.3       1 <0>        -0.1695
      9 C8          1.1647    3.4815    0.0097 C.ar      1 <0>         0.3097
     10 N1          1.1220    2.1563    0.0029 N.ar      1 <0>        -0.4852
     11 C9          2.5279    6.8008    0.0184 C.2       1 <0>         0.6301
     12 O2          2.0093    7.9027    0.0337 O.2       1 <0>        -0.5519
     13 N2          3.8708    6.6882    0.0010 N.am      1 <0>        -0.6167
     14 C10         4.6248    5.4261   -0.0120 C.3       1 <0>         0.0995
     15 C11         6.1248    5.7883   -0.0052 C.3       1 <0>        -0.1354
     16 C12         6.1316    7.2208    0.5906 C.3       1 <0>        -0.1291
     17 C13         4.8271    7.8102   -0.0017 C.3       1 <0>         0.1098
     18 N3         -0.4948    6.7238    0.0556 N.pl3     1 <0>        -0.8432
     19 C14        -2.5361    4.3344    0.0659 C.3       1 <0>        -0.0934
     20 C15        -3.7214    3.4676   -0.3569 C.3       1 <0>        -0.1214
     21 C16        -3.6968    2.1764    0.4694 C.3       1 <0>        -0.1234
     22 C17        -2.5026    1.3365    0.0192 C.3       1 <0>        -0.0730
     23 H1         -1.0299   -0.3849    0.0098 H         1 <0>         0.0881
     24 H2          0.5342   -0.3685    0.8932 H         1 <0>         0.0865
     25 H3          0.5170   -0.3588   -0.9030 H         1 <0>         0.0871
     26 H4          4.3661    4.8352    0.8790 H         1 <0>         0.0721
     27 H5          4.3693    4.8556   -0.9171 H         1 <0>         0.0721
     28 H6          6.6733    5.0672    0.6186 H         1 <0>         0.0840
     29 H7          6.5148    5.7549   -1.0332 H         1 <0>         0.0773
     30 H8          6.1218    7.1611    1.6889 H         1 <0>         0.0782
     31 H9          7.0370    7.7510    0.2603 H         1 <0>         0.0874
     32 H10         4.9720    8.1660   -1.0324 H         1 <0>         0.0709
     33 H11         4.4326    8.6297    0.6170 H         1 <0>         0.0812
     34 H12        -0.0757    7.7408    0.0584 H         1 <0>         0.4458
     35 H13        -1.5850    6.5782    0.0683 H         1 <0>         0.4195
     36 H14        -2.7127    4.7079    1.0854 H         1 <0>         0.0904
     37 H15        -2.4508    5.1849   -0.6265 H         1 <0>         0.0807
     38 H16        -4.6586    4.0135   -0.1737 H         1 <0>         0.0752
     39 H17        -3.6386    3.2303   -1.4278 H         1 <0>         0.0699
     40 H18        -3.5999    2.4257    1.5364 H         1 <0>         0.0677
     41 H19        -4.6310    1.6189    0.3065 H         1 <0>         0.0750
     42 H20        -2.6940    0.9606   -0.9967 H         1 <0>         0.0818
     43 H21        -2.3843    0.4872    0.7081 H         1 <0>         0.0850
@<TRIPOS>BOND
     1    1    2 1
     2    1   23 1
     3    1   24 1
     4    1   25 1
     5    2   10 ar
     6    2    3 ar
     7    3   22 1
     8    3    4 ar
     9    4    5 ar
    10    4   19 1
    11    5    9 ar
    12    5    6 1
    13    6    7 2
    14    6   18 1
    15    7    8 1
    16    7   11 1
    17    8    9 1
    18    9   10 ar
    19   11   12 2
    20   11   13 am
    21   13   17 1
    22   13   14 1
    23   14   15 1
    24   14   26 1
    25   14   27 1
    26   15   16 1
    27   15   28 1
    28   15   29 1
    29   16   17 1
    30   16   30 1
    31   16   31 1
    32   17   32 1
    33   17   33 1
    34   18   34 1
    35   18   35 1
    36   19   20 1
    37   19   36 1
    38   19   37 1
    39   20   21 1
    40   20   38 1
    41   20   39 1
    42   21   22 1
    43   21   40 1
    44   21   41 1
    45   22   42 1
    46   22   43 1
@<TRIPOS>MOLECULE
ZINC41121323
   28    30     0     0     0
SMALL
USER_CHARGES

@<TRIPOS>ATOM
      1 C1         -0.9937    1.4677   -0.1207 C.3       1 <0>        -0.0773
      2 C2         -0.8773   -0.0348   -0.1127 C.2       1 <0>         0.2867
      3 N1         -0.5678   -0.7654   -1.1443 N.2       1 <0>        -0.4628
      4 H1         -1.3119   -0.5303    1.8696 H         1 <0>         0.4329
      5 C3         -0.5530   -2.0711   -0.7841 C.ar      1 <0>        -0.0923
      6 C4         -0.8819   -2.1278    0.5807 C.ar      1 <0>         0.3043
      7 N2         -1.0750   -0.8288    0.9776 N.pl3     1 <0>        -0.5748
      8 N3         -0.9360   -3.3112    1.1835 N.ar      1 <0>        -0.5467
      9 C5         -0.6856   -4.4170    0.5147 C.ar      1 <0>         0.3589
     10 N4         -0.3725   -4.4140   -0.7682 N.ar      1 <0>        -0.5749
     11 C6         -0.2941   -3.2788   -1.4549 C.ar      1 <0>         0.4956
     12 N5          0.0344   -3.2856   -2.7997 N.pl3     1 <0>        -0.6258
     13 C7          0.1538   -4.5010   -3.4852 C.ar      1 <0>         0.1194
     14 C8         -0.4192   -5.6526   -2.9633 C.ar      1 <0>        -0.0841
     15 C9         -0.3009   -6.8506   -3.6411 C.ar      1 <0>        -0.1360
     16 C10         0.3888   -6.9043   -4.8407 C.ar      1 <0>         0.1059
     17 C11         0.9618   -5.7578   -5.3645 C.ar      1 <0>        -0.1666
     18 C12         0.8416   -4.5551   -4.6925 C.ar      1 <0>         0.0913
     19 F1          1.3961   -3.4351   -5.2058 F         1 <0>        -0.1299
     20 F2          0.5031   -8.0775   -5.5009 F         1 <0>        -0.1317
     21 H2         -0.0251    1.9084    0.1152 H         1 <0>         0.0939
     22 H3         -1.3143    1.8020   -1.1074 H         1 <0>         0.1018
     23 H4         -1.7258    1.7794    0.6242 H         1 <0>         0.0855
     24 H5         -0.7378   -5.3621    1.0348 H         1 <0>         0.2119
     25 H6          0.1820   -2.4487   -3.2673 H         1 <0>         0.4325
     26 H7         -0.9570   -5.6122   -2.0277 H         1 <0>         0.1824
     27 H8         -0.7465   -7.7465   -3.2347 H         1 <0>         0.1476
     28 H9          1.4995   -5.8021   -6.3001 H         1 <0>         0.1525
@<TRIPOS>BOND
     1    1    2 1
     2    1   21 1
     3    1   22 1
     4    1   23 1
     5    2    7 1
     6    2    3 2
     7    3    5 1
     8    4    7 1
     9    5    6 ar
    10    5   11 ar
    11    6    8 ar
    12    6    7 1
    13    8    9 ar
    14    9   24 1
    15    9   10 ar
    16   10   11 ar
    17   11   12 1
    18   12   13 1
    19   12   25 1
    20   13   18 ar
    21   13   14 ar
    22   14   15 ar
    23   14   26 1
    24   15   16 ar
    25   15   27 1
    26   16   17 ar
    27   16   20 1
    28   17   18 ar
    29   17   28 1
    30   18   19 1
@<TRIPOS>MOLECULE
ZINC42016265
   38    40     0     0     0
SMALL
USER_CHARGES

@<TRIPOS>ATOM
      1 C1         -1.7878    0.7281    0.5011 C.3       1 <0>        -0.1084
      2 C2         -0.7761   -0.3538    0.2235 C.ar      1 <0>        -0.1645
      3 C3         -0.8225   -1.0513   -0.9639 C.ar      1 <0>        -0.0128
      4 C4          0.1150   -2.0529   -1.2205 C.ar      1 <0>        -0.1016
      5 C5          1.0975   -2.3451   -0.2727 C.ar      1 <0>        -0.0516
      6 C6          1.1393   -1.6447    0.9127 C.ar      1 <0>        -0.1938
      7 C7          0.2069   -0.6434    1.1636 C.ar      1 <0>         0.2453
      8 N1          0.2550    0.0679    2.3617 N.pl3     1 <0>        -0.8668
      9 C8          0.0674   -2.8036   -2.4939 C.2       1 <0>         0.3016
     10 N2         -0.3185   -2.3376   -3.6636 N.2       1 <0>        -0.3307
     11 N3         -0.2376   -3.2528   -4.5607 N.2       1 <0>        -0.0419
     12 N4          0.1970   -4.3510   -4.0447 N.2       1 <0>        -0.0847
     13 N5          0.4186   -4.1006   -2.6792 N.pl3     1 <0>        -0.3721
     14 C9          0.9191   -5.0395   -1.6721 C.3       1 <0>         0.1464
     15 C10         2.3763   -5.3893   -1.9804 C.3       1 <0>        -0.1312
     16 C11         2.8990   -6.3698   -0.9287 C.3       1 <0>        -0.1155
     17 C12         2.0523   -7.6440   -0.9539 C.3       1 <0>        -0.1259
     18 C13         0.5951   -7.2942   -0.6456 C.3       1 <0>        -0.1159
     19 C14         0.0724   -6.3137   -1.6974 C.3       1 <0>        -0.1268
     20 H1         -1.4105    1.6817    0.1318 H         1 <0>         0.0713
     21 H2         -2.7240    0.4881   -0.0029 H         1 <0>         0.0722
     22 H3         -1.9606    0.7971    1.5751 H         1 <0>         0.0615
     23 H4         -1.5838   -0.8235   -1.6952 H         1 <0>         0.1367
     24 H5          1.8240   -3.1199   -0.4686 H         1 <0>         0.1266
     25 H6          1.8992   -1.8703    1.6462 H         1 <0>         0.1313
     26 H7         -0.3968    0.7641    2.5390 H         1 <0>         0.4025
     27 H8          0.9403   -0.1333    3.0181 H         1 <0>         0.4019
     28 H9          0.8564   -4.5812   -0.6851 H         1 <0>         0.1167
     29 H10         2.4389   -5.8476   -2.9674 H         1 <0>         0.0819
     30 H11         2.9795   -4.4815   -1.9624 H         1 <0>         0.0708
     31 H12         3.9371   -6.6190   -1.1483 H         1 <0>         0.0752
     32 H13         2.8363   -5.9115    0.0583 H         1 <0>         0.0678
     33 H14         2.1150   -8.1023   -1.9409 H         1 <0>         0.0678
     34 H15         2.4247   -8.3426   -0.2046 H         1 <0>         0.0704
     35 H16        -0.0080   -8.2020   -0.6636 H         1 <0>         0.0749
     36 H17         0.5325   -6.8359    0.3414 H         1 <0>         0.0675
     37 H18        -0.9657   -6.0645   -1.4777 H         1 <0>         0.0711
     38 H19         0.1351   -6.7720   -2.6843 H         1 <0>         0.0825
@<TRIPOS>BOND
     1    1    2 1
     2    1   20 1
     3    1   21 1
     4    1   22 1
     5    2    7 ar
     6    2    3 ar
     7    3    4 ar
     8    3   23 1
     9    4    5 ar
    10    4    9 1
    11    5    6 ar
    12    5   24 1
    13    6    7 ar
    14    6   25 1
    15    7    8 1
    16    8   26 1
    17    8   27 1
    18    9   13 1
    19    9   10 2
    20   10   11 1
    21   11   12 2
    22   12   13 1
    23   13   14 1
    24   14   19 1
    25   14   15 1
    26   14   28 1
    27   15   16 1
    28   15   29 1
    29   15   30 1
    30   16   17 1
    31   16   31 1
    32   16   32 1
    33   17   18 1
    34   17   33 1
    35   17   34 1
    36   18   19 1
    37   18   35 1
    38   18   36 1
    39   19   37 1
    40   19   38 1
@<TRIPOS>MOLECULE
ZINC42028344
   35    37     0     0     0
SMALL
USER_CHARGES

@<TRIPOS>ATOM
      1 C1         -2.2892    0.4587    0.8681 C.3       1 <0>        -0.1201
      2 C2         -1.1471   -0.4304    0.4485 C.ar      1 <0>         0.0132
      3 C3         -1.1627   -1.0359   -0.7911 C.ar      1 <0>        -0.1762
      4 C4         -0.1168   -1.8541   -1.1821 C.ar      1 <0>        -0.0409
      5 C5          0.9531   -2.0725   -0.3360 C.ar      1 <0>        -0.2013
      6 C6          0.9844   -1.4711    0.9143 C.ar      1 <0>         0.2496
      7 C7         -0.0707   -0.6374    1.3105 C.ar      1 <0>        -0.1294
      8 C8         -0.0455    0.0135    2.6376 C.2       1 <0>         0.3001
      9 N1         -0.1284    1.3058    2.8778 N.2       1 <0>        -0.3200
     10 N2         -0.0752    1.5325    4.1407 N.2       1 <0>        -0.0441
     11 N3          0.0433    0.4262    4.7914 N.2       1 <0>        -0.0793
     12 N4          0.0615   -0.6077    3.8389 N.pl3     1 <0>        -0.3676
     13 C9          0.1742   -2.0466    4.0896 C.3       1 <0>         0.1767
     14 H1          0.2715   -2.5742    3.1408 H         1 <0>         0.1162
     15 C10         1.4074   -2.3188    4.9534 C.3       1 <0>        -0.1606
     16 C11        -1.0780   -2.5367    4.8196 C.3       1 <0>        -0.1752
     17 C12        -1.8073   -3.7484    4.2357 C.3       1 <0>        -0.1583
     18 C13        -2.4237   -2.3532    4.1150 C.3       1 <0>        -0.1710
     19 N5          2.0618   -1.6906    1.7695 N.pl3     1 <0>        -0.8751
     20 H2         -2.0826    1.4843    0.5622 H         1 <0>         0.0871
     21 H3         -3.2091    0.1165    0.3940 H         1 <0>         0.0740
     22 H4         -2.4020    0.4184    1.9515 H         1 <0>         0.0597
     23 H5         -1.9949   -0.8711   -1.4594 H         1 <0>         0.1309
     24 H6         -0.1375   -2.3247   -2.1540 H         1 <0>         0.1310
     25 H7          1.7656   -2.7120   -0.6476 H         1 <0>         0.1307
     26 H8          1.4448   -3.3775    5.2099 H         1 <0>         0.0892
     27 H9          2.3060   -2.0472    4.3995 H         1 <0>         0.0617
     28 H10         1.3498   -1.7256    5.8660 H         1 <0>         0.0792
     29 H11        -1.0599   -2.4345    5.9046 H         1 <0>         0.1203
     30 H12        -1.3950   -4.1964    3.3316 H         1 <0>         0.0990
     31 H13        -2.2691   -4.4437    4.9367 H         1 <0>         0.1052
     32 H14        -3.2910   -2.1307    4.7366 H         1 <0>         0.1015
     33 H15        -2.4169   -1.8834    3.1315 H         1 <0>         0.0931
     34 H16         2.7395   -2.3447    1.5378 H         1 <0>         0.4062
     35 H17         2.1344   -1.1893    2.5967 H         1 <0>         0.3945
@<TRIPOS>BOND
     1    1    2 1
     2    1   20 1
     3    1   21 1
     4    1   22 1
     5    2    7 ar
     6    2    3 ar
     7    3    4 ar
     8    3   23 1
     9    4    5 ar
    10    4   24 1
    11    5    6 ar
    12    5   25 1
    13    6    7 ar
    14    6   19 1
    15    7    8 1
    16    8   12 1
    17    8    9 2
    18    9   10 1
    19   10   11 2
    20   11   12 1
    21   12   13 1
    22   13   14 1
    23   13   15 1
    24   13   16 1
    25   15   26 1
    26   15   27 1
    27   15   28 1
    28   16   18 1
    29   16   17 1
    30   16   29 1
    31   17   18 1
    32   17   30 1
    33   17   31 1
    34   18   32 1
    35   18   33 1
    36   19   34 1
    37   19   35 1
@<TRIPOS>MOLECULE
ZINC62843034
   47    49     0     0     0
SMALL
USER_CHARGES

@<TRIPOS>ATOM
      1 C1         -0.0187    1.5258    0.0104 C.3       1 <0>        -0.1258
      2 C2          0.0021   -0.0041    0.0020 C.3       1 <0>        -0.1336
      3 C3          0.7170   -0.4974   -1.2580 C.3       1 <0>        -0.1076
      4 C4          2.1427    0.0625   -1.2837 C.3       1 <0>         0.1075
      5 N1          2.8150   -0.2983   -0.0281 N.am      1 <0>        -0.5684
      6 C5          2.1683    0.0489    1.2447 C.3       1 <0>         0.0878
      7 C6          0.7423   -0.5108    1.2420 C.3       1 <0>        -0.1016
      8 C7          4.0023   -0.9361   -0.0436 C.2       1 <0>         0.5001
      9 O1          4.5257   -1.2176   -1.1008 O.2       1 <0>        -0.5439
     10 C8          4.6794   -1.2994    1.2528 C.3       1 <0>         0.0056
     11 H1          4.0326   -1.9521    1.8391 H         1 <0>         0.1677
     12 C9          5.0008   -0.0221    2.0532 C.3       1 <0>        -0.1380
     13 C10         6.5490   -0.0206    2.1978 C.3       1 <0>        -0.0958
     14 H2          6.8754    0.3770    3.1588 H         1 <0>         0.1349
     15 C11         7.0976    0.7917    1.0226 C.3       1 <0>        -0.1332
     16 C12         8.5915    0.5378    0.8383 C.3       1 <0>        -0.1269
     17 C13         8.7982   -0.9452    0.5108 C.3       1 <0>        -0.1342
     18 C14         8.3348   -1.7710    1.7107 C.3       1 <0>        -0.1368
     19 C15         6.8793   -1.5165    2.0440 C.3       1 <0>         0.0385
     20 H3          6.6151   -2.0354    2.9655 H         1 <0>         0.1406
     21 N2          5.9673   -1.9803    0.9765 N.4       1 <0>        -0.5013
     22 C16        -1.4118   -0.5254    0.0134 C.2       1 <0>         0.5007
     23 O2         -2.1755   -0.2361   -0.8919 O.co2     1 <0>        -0.6881
     24 O3         -1.7920   -1.2365    0.9279 O.co2     1 <0>        -0.6941
     25 H4          1.0039    1.9031    0.0027 H         1 <0>         0.0378
     26 H5         -0.5459    1.8868   -0.8726 H         1 <0>         0.0616
     27 H6         -0.5289    1.8773    0.9072 H         1 <0>         0.0502
     28 H7          0.7539   -1.5867   -1.2525 H         1 <0>         0.0599
     29 H8          0.1760   -0.1557   -2.1405 H         1 <0>         0.0877
     30 H9          2.6877   -0.3642   -2.1257 H         1 <0>         0.0929
     31 H10         2.1075    1.1476   -1.3806 H         1 <0>         0.0822
     32 H11         2.7303   -0.3867    2.0709 H         1 <0>         0.0762
     33 H12         2.1352    1.1329    1.3539 H         1 <0>         0.0865
     34 H13         0.2194   -0.1786    2.1388 H         1 <0>         0.0835
     35 H14         0.7790   -1.6000    1.2240 H         1 <0>         0.0660
     36 H15         4.6701    0.8611    1.5068 H         1 <0>         0.1119
     37 H16         4.5283   -0.0608    3.0348 H         1 <0>         0.1190
     38 H17         6.5703    0.5064    0.1123 H         1 <0>         0.0655
     39 H18         6.9349    1.8525    1.2129 H         1 <0>         0.0888
     40 H19         8.9683    1.1496    0.0187 H         1 <0>         0.0791
     41 H20         9.1212    0.7868    1.7579 H         1 <0>         0.0771
     42 H21         8.2113   -1.2127   -0.3679 H         1 <0>         0.0632
     43 H22         9.8543   -1.1355    0.3197 H         1 <0>         0.0899
     44 H23         8.4698   -2.8295    1.4885 H         1 <0>         0.0885
     45 H24         8.9407   -1.5100    2.5784 H         1 <0>         0.1121
     46 H25         5.8510   -2.9815    1.0214 H         1 <0>         0.4343
     47 H26         6.3208   -1.7074    0.0717 H         1 <0>         0.4317
@<TRIPOS>BOND
     1    1    2 1
     2    1   25 1
     3    1   26 1
     4    1   27 1
     5    2    7 1
     6    2    3 1
     7    2   22 1
     8    3    4 1
     9    3   28 1
    10    3   29 1
    11    4    5 1
    12    4   30 1
    13    4   31 1
    14    5    6 1
    15    5    8 am
    16    6    7 1
    17    6   32 1
    18    6   33 1
    19    7   34 1
    20    7   35 1
    21    8    9 2
    22    8   10 1
    23   10   11 1
    24   10   21 1
    25   10   12 1
    26   12   13 1
    27   12   36 1
    28   12   37 1
    29   13   14 1
    30   13   19 1
    31   13   15 1
    32   15   16 1
    33   15   38 1
    34   15   39 1
    35   16   17 1
    36   16   40 1
    37   16   41 1
    38   17   18 1
    39   17   42 1
    40   17   43 1
    41   18   19 1
    42   18   44 1
    43   18   45 1
    44   19   20 1
    45   19   21 1
    46   21   46 1
    47   21   47 1
    48   22   23 2
    49   22   24 1
@<TRIPOS>MOLECULE
ZINC19812821
   26    28     0     0     0
SMALL
USER_CHARGES
6-[(5-amino-2-pyridyl)oxy]-1,3-benzoxathiol-2-one
@<TRIPOS>ATOM
      1 C1         -3.5360    5.8162    0.0461 C.ar      1 <0>        -0.1048
      2 C2         -3.5574    7.1999    0.0884 C.ar      1 <0>        -0.0239
      3 C3         -4.7593    7.8573    0.1681 C.ar      1 <0>        -0.1610
      4 C4         -5.9897    7.1859    0.2096 C.ar      1 <0>         0.1053
      5 C5         -5.9446    5.7865    0.1600 C.ar      1 <0>        -0.0977
      6 C6         -4.7374    5.1211    0.0855 C.ar      1 <0>         0.1485
      7 O1         -4.7248    3.7622    0.0443 O.3       1 <0>        -0.2482
      8 C7         -4.3901    3.0933    1.1774 C.ar      1 <0>         0.2429
      9 C8         -4.4638    1.7064    1.2026 C.ar      1 <0>        -0.1207
     10 C9         -4.1203    1.0336    2.3615 C.ar      1 <0>        -0.1307
     11 C10        -3.7111    1.7798    3.4654 C.ar      1 <0>         0.1570
     12 C11        -3.6677    3.1626    3.3676 C.ar      1 <0>         0.0561
     13 N1         -3.9975    3.7697    2.2434 N.ar      1 <0>        -0.4851
     14 N2         -3.3540    1.1421    4.6591 N.pl3     1 <0>        -0.8917
     15 O2         -7.0747    7.9813    0.2876 O.3       1 <0>        -0.2928
     16 C12        -6.9592    9.3196    0.3217 C.2       1 <0>         0.4971
     17 O3         -7.8412   10.1544    0.3911 O.2       1 <0>        -0.3784
     18 S1         -5.2426    9.5647    0.2432 S.3       1 <0>        -0.0066
     19 H1         -2.5979    5.2848   -0.0163 H         1 <0>         0.1493
     20 H2         -2.6336    7.7586    0.0593 H         1 <0>         0.1518
     21 H3         -6.8648    5.2216    0.1848 H         1 <0>         0.1493
     22 H4         -4.7850    1.1601    0.3282 H         1 <0>         0.1444
     23 H5         -4.1685   -0.0442    2.4099 H         1 <0>         0.1414
     24 H6         -3.3564    3.7487    4.2196 H         1 <0>         0.1562
     25 H7         -3.0321    1.7378    5.5260 H         1 <0>         0.4216
     26 H8         -3.3953    0.0452    4.7304 H         1 <0>         0.4207
@<TRIPOS>BOND
     1    1    6 ar
     2    1    2 ar
     3    1   19 1
     4    2    3 ar
     5    2   20 1
     6    3   18 1
     7    3    4 ar
     8    4    5 ar
     9    4   15 1
    10    5    6 ar
    11    5   21 1
    12    6    7 1
    13    7    8 1
    14    8   13 ar
    15    8    9 ar
    16    9   10 ar
    17    9   22 1
    18   10   11 ar
    19   10   23 1
    20   11   12 ar
    21   11   14 1
    22   12   13 ar
    23   12   24 1
    24   14   25 1
    25   14   26 1
    26   15   16 1
    27   16   17 2
    28   16   18 1
@<TRIPOS>MOLECULE
ZINC40724251
   42    44     0     0     0
SMALL
USER_CHARGES

@<TRIPOS>ATOM
      1 C1         -0.4190   -1.4950   -3.1323 C.3       1 <0>        -0.1478
      2 C2         -0.0078   -1.7780   -1.6860 C.3       1 <0>        -0.0869
      3 C3          0.1545   -3.2868   -1.4881 C.3       1 <0>        -0.1319
      4 C4          0.5998   -3.5640   -0.0487 C.3       1 <0>         0.1540
      5 N1         -0.3567   -2.9341    0.8717 N.pl3     1 <0>        -0.6520
      6 C5         -0.6549   -1.5044    0.7111 C.3       1 <0>         0.1485
      7 C6         -1.0861   -1.2503   -0.7368 C.3       1 <0>        -0.1311
      8 C7         -0.9679   -3.6765    1.8750 C.ar      1 <0>         0.3794
      9 C8         -0.3531   -3.8283    3.1192 C.ar      1 <0>         0.0526
     10 C9         -1.0106   -4.5836    4.0915 C.ar      1 <0>         0.4143
     11 N2         -2.1898   -5.1266    3.7978 N.ar      1 <0>        -0.5557
     12 C10        -2.7356   -4.9589    2.6104 C.ar      1 <0>         0.3011
     13 N3         -2.1509   -4.2493    1.6664 N.ar      1 <0>        -0.5393
     14 N4         -0.4425   -4.7664    5.3466 N.pl3     1 <0>        -0.6115
     15 C11         0.9172   -4.3669    5.7382 C.3       1 <0>         0.1108
     16 C12         1.1138   -4.7915    7.2088 C.3       1 <0>        -0.1333
     17 C13         0.0564   -5.9122    7.3913 C.3       1 <0>        -0.1356
     18 C14        -1.1056   -5.3873    6.5077 C.3       1 <0>         0.1181
     19 N5          0.8931   -3.2373    3.3852 N.pl3     1 <0>        -0.8812
     20 H1         -0.5336   -0.4203   -3.2738 H         1 <0>         0.0536
     21 H2          0.3488   -1.8707   -3.8085 H         1 <0>         0.0535
     22 H3         -1.3654   -1.9923   -3.3449 H         1 <0>         0.0542
     23 H4          0.9383   -1.2802   -1.4735 H         1 <0>         0.0673
     24 H5         -0.7976   -3.7830   -1.6763 H         1 <0>         0.0679
     25 H6          0.9060   -3.6658   -2.1807 H         1 <0>         0.0670
     26 H7          0.6213   -4.6396    0.1264 H         1 <0>         0.0643
     27 H8          1.5930   -3.1453    0.1136 H         1 <0>         0.0528
     28 H9         -1.4613   -1.2211    1.3875 H         1 <0>         0.0651
     29 H10         0.2360   -0.9178    0.9353 H         1 <0>         0.0527
     30 H11        -1.2177   -0.1799   -0.8947 H         1 <0>         0.0668
     31 H12        -2.0265   -1.7657   -0.9321 H         1 <0>         0.0685
     32 H13        -3.6935   -5.4139    2.4057 H         1 <0>         0.1924
     33 H14         1.6482   -4.8708    5.1060 H         1 <0>         0.0631
     34 H15         1.0269   -3.2863    5.6466 H         1 <0>         0.0748
     35 H16         2.1196   -5.1810    7.3666 H         1 <0>         0.0850
     36 H17         0.9121   -3.9577    7.8812 H         1 <0>         0.0796
     37 H18         0.4314   -6.8670    7.0228 H         1 <0>         0.0765
     38 H19        -0.2528   -5.9917    8.4335 H         1 <0>         0.0861
     39 H20        -1.6929   -4.6463    7.0502 H         1 <0>         0.0630
     40 H21        -1.7397   -6.2133    6.1856 H         1 <0>         0.0817
     41 H22         1.1487   -2.4193    2.9309 H         1 <0>         0.3959
     42 H23         1.4980   -3.6473    4.0231 H         1 <0>         0.3957
@<TRIPOS>BOND
     1    1    2 1
     2    1   20 1
     3    1   21 1
     4    1   22 1
     5    2    7 1
     6    2    3 1
     7    2   23 1
     8    3    4 1
     9    3   24 1
    10    3   25 1
    11    4    5 1
    12    4   26 1
    13    4   27 1
    14    5    6 1
    15    5    8 1
    16    6    7 1
    17    6   28 1
    18    6   29 1
    19    7   30 1
    20    7   31 1
    21    8   13 ar
    22    8    9 ar
    23    9   10 ar
    24    9   19 1
    25   10   11 ar
    26   10   14 1
    27   11   12 ar
    28   12   13 ar
    29   12   32 1
    30   14   18 1
    31   14   15 1
    32   15   16 1
    33   15   33 1
    34   15   34 1
    35   16   17 1
    36   16   35 1
    37   16   36 1
    38   17   18 1
    39   17   37 1
    40   17   38 1
    41   18   39 1
    42   18   40 1
    43   19   41 1
    44   19   42 1
@<TRIPOS>MOLECULE
ZINC50660960
   37    38     0     0     0
SMALL
USER_CHARGES

@<TRIPOS>ATOM
      1 C1         -1.0134    0.8701   -0.3639 C.3       1 <0>        -0.1488
      2 C2         -0.4318   -0.5146   -0.0721 C.3       1 <0>        -0.1000
      3 H1         -1.2395   -1.2446   -0.0185 H         1 <0>         0.0796
      4 C3          0.5380   -0.9070   -1.1890 C.3       1 <0>        -0.1147
      5 C4          1.0954   -2.3057   -0.9149 C.3       1 <0>        -0.1314
      6 C5          1.8635   -2.2943    0.4105 C.3       1 <0>         0.1075
      7 N1          0.9793   -1.7798    1.4651 N.pl3     1 <0>        -0.9952
      8 C6          0.3183   -0.4831    1.2633 C.3       1 <0>         0.1597
      9 H2          1.0669    0.3089    1.2433 H         1 <0>         0.0765
     10 C7         -0.6717   -0.2285    2.4017 C.3       1 <0>        -0.1901
     11 S1          0.7315   -2.6451    2.8551 S.o2      1 <0>         2.6970
     12 O1         -0.6238   -2.4362    3.2274 O.2       1 <0>        -0.9488
     13 O2          1.2680   -3.9411    2.6277 O.2       1 <0>        -0.9631
     14 C8          1.7190   -1.9048    4.1126 C.ar      1 <0>        -0.7987
     15 C9          1.1245   -1.2917    5.2010 C.ar      1 <0>         0.0624
     16 C10         1.9412   -0.7212    6.1680 C.ar      1 <0>        -0.2503
     17 C11         3.3122   -0.7818    6.0168 C.ar      1 <0>         0.2057
     18 N2          3.8518   -1.3728    4.9678 N.ar      1 <0>        -0.5505
     19 C12         3.1071   -1.9338    4.0274 C.ar      1 <0>         0.4931
     20 N3          3.7178   -2.5514    2.9422 N.pl3     1 <0>        -0.8441
     21 H3         -0.2054    1.5997   -0.4174 H         1 <0>         0.0564
     22 H4         -1.5461    0.8475   -1.3146 H         1 <0>         0.0600
     23 H5         -1.7032    1.1496    0.4324 H         1 <0>         0.0615
     24 H6          0.0119   -0.9064   -2.1436 H         1 <0>         0.0690
     25 H7          1.3583   -0.1901   -1.2262 H         1 <0>         0.0652
     26 H8          0.2736   -3.0191   -0.8530 H         1 <0>         0.0707
     27 H9          1.7680   -2.5941   -1.7227 H         1 <0>         0.0796
     28 H10         2.1778   -3.3079    0.6595 H         1 <0>         0.0938
     29 H11         2.7381   -1.6501    0.3204 H         1 <0>         0.0738
     30 H12        -1.4947   -0.9399    2.3334 H         1 <0>         0.1024
     31 H13        -0.1642   -0.3508    3.3586 H         1 <0>         0.0564
     32 H14        -1.0614    0.7865    2.3242 H         1 <0>         0.0768
     33 H15         0.0492   -1.2573    5.2960 H         1 <0>         0.1538
     34 H16         1.5084   -0.2348    7.0297 H         1 <0>         0.1451
     35 H17         3.9512   -0.3393    6.7666 H         1 <0>         0.1671
     36 H18         3.1807   -3.0275    2.2896 H         1 <0>         0.4083
     37 H19         4.6811   -2.5064    2.8374 H         1 <0>         0.4143
@<TRIPOS>BOND
     1    1    2 1
     2    1   21 1
     3    1   22 1
     4    1   23 1
     5    2    3 1
     6    2    8 1
     7    2    4 1
     8    4    5 1
     9    4   24 1
    10    4   25 1
    11    5    6 1
    12    5   26 1
    13    5   27 1
    14    6    7 1
    15    6   28 1
    16    6   29 1
    17    7    8 1
    18    7   11 1
    19    8    9 1
    20    8   10 1
    21   10   30 1
    22   10   31 1
    23   10   32 1
    24   11   12 2
    25   11   13 2
    26   11   14 1
    27   14   19 ar
    28   14   15 ar
    29   15   16 ar
    30   15   33 1
    31   16   17 ar
    32   16   34 1
    33   17   18 ar
    34   17   35 1
    35   18   19 ar
    36   19   20 1
    37   20   36 1
    38   20   37 1
@<TRIPOS>MOLECULE
ZINC61563891
   25    27     0     0     0
SMALL
USER_CHARGES

@<TRIPOS>ATOM
      1 C1          1.0151    0.6105    2.4909 C.2       1 <0>        -0.1951
      2 C2          2.0608    1.4353    2.0492 C.2       1 <0>         0.1937
      3 N1          2.7943    1.0852    1.0188 N.2       1 <0>        -0.4297
      4 C3          2.5618   -0.0623    0.3689 C.2       1 <0>         0.3531
      5 N2          3.1360   -0.6413   -0.6744 N.2       1 <0>        -0.2581
      6 N3          2.5497   -1.7563   -0.9332 N.2       1 <0>        -0.2200
      7 C4          1.5686   -1.9633   -0.0788 C.2       1 <0>         0.1960
      8 N4          1.5453   -0.8938    0.7752 N.pl3     1 <0>        -0.4241
      9 C5          0.7680   -0.5545    1.8426 C.2       1 <0>         0.1232
     10 C6          0.6634   -3.1299   -0.0484 C.ar      1 <0>        -0.0928
     11 C7         -0.7154   -2.9446    0.0649 C.ar      1 <0>        -0.0556
     12 C8         -1.5573   -4.0387    0.0929 C.ar      1 <0>         0.0104
     13 C9         -1.0373   -5.3232    0.0091 C.ar      1 <0>         0.1446
     14 C10         0.3282   -5.5178   -0.1035 C.ar      1 <0>        -0.2078
     15 C11         1.1847   -4.4280   -0.1391 C.ar      1 <0>         0.2864
     16 N5          2.5618   -4.6230   -0.2590 N.pl3     1 <0>        -0.8492
     17 F1         -1.8681   -6.3882    0.0381 F         1 <0>        -0.1184
     18 F2         -2.8918   -3.8585    0.2027 F         1 <0>        -0.1273
     19 H1          0.4157    0.8986    3.3419 H         1 <0>         0.1761
     20 H2          2.2632    2.3648    2.5606 H         1 <0>         0.1935
     21 H3         -0.0324   -1.2033    2.1665 H         1 <0>         0.1828
     22 H4         -1.1232   -1.9468    0.1310 H         1 <0>         0.1451
     23 H5          0.7268   -6.5195   -0.1680 H         1 <0>         0.1557
     24 H6          3.1666   -3.8679   -0.1884 H         1 <0>         0.4093
     25 H7          2.9139   -5.5137   -0.4130 H         1 <0>         0.4084
@<TRIPOS>BOND
     1    1    9 2
     2    1    2 1
     3    1   19 1
     4    2    3 2
     5    2   20 1
     6    3    4 1
     7    4    8 1
     8    4    5 2
     9    5    6 1
    10    6    7 2
    11    7    8 1
    12    7   10 1
    13    8    9 1
    14    9   21 1
    15   10   15 ar
    16   10   11 ar
    17   11   12 ar
    18   11   22 1
    19   12   13 ar
    20   12   18 1
    21   13   14 ar
    22   13   17 1
    23   14   15 ar
    24   14   23 1
    25   15   16 1
    26   16   24 1
    27   16   25 1
@<TRIPOS>MOLECULE
ZINC65607430
   32    34     0     0     0
SMALL
USER_CHARGES

@<TRIPOS>ATOM
      1 C1         -0.0173    1.4248    0.0099 C.3       1 <0>         0.0257
      2 O1          0.0021   -0.0041    0.0020 O.3       1 <0>        -0.3161
      3 C2         -1.2003   -0.6375    0.0101 C.ar      1 <0>         0.1386
      4 C3         -2.3746    0.1011    0.0195 C.ar      1 <0>        -0.2105
      5 C4         -3.5956   -0.5451    0.0272 C.ar      1 <0>        -0.0533
      6 C5         -3.6478   -1.9268    0.0260 C.ar      1 <0>        -0.1764
      7 C6         -2.4788   -2.6651    0.0172 C.ar      1 <0>        -0.0488
      8 C7         -1.2554   -2.0237    0.0032 C.ar      1 <0>        -0.1537
      9 C8         -4.9811   -2.6292    0.0350 C.3       1 <0>         0.4364
     10 H1         -5.3077   -2.7961   -0.9915 H         1 <0>         0.1245
     11 N1         -4.8448   -3.9211    0.7174 N.pl3     1 <0>        -0.7279
     12 C9         -4.7523   -3.9352    2.0998 C.ar      1 <0>         0.4292
     13 C10        -5.4008   -2.9072    2.8112 C.ar      1 <0>        -0.2437
     14 C11        -5.3217   -2.8855    4.2017 C.ar      1 <0>         0.0184
     15 C12        -4.6025   -3.8928    4.8263 C.ar      1 <0>        -0.2239
     16 C13        -3.9954   -4.8728    4.0617 C.ar      1 <0>         0.1665
     17 N2         -4.0820   -4.8721    2.7439 N.ar      1 <0>        -0.5284
     18 C14        -6.1482   -1.8874    2.0562 C.2       1 <0>         0.5817
     19 O2         -6.9202   -1.1409    2.6268 O.2       1 <0>        -0.5308
     20 N3         -5.9636   -1.7940    0.7258 N.am      1 <0>        -0.7330
     21 H2          1.0053    1.8021    0.0021 H         1 <0>         0.1027
     22 H3         -0.5445    1.7859   -0.8732 H         1 <0>         0.0573
     23 H4         -0.5275    1.7763    0.9067 H         1 <0>         0.0567
     24 H5         -2.3343    1.1803    0.0211 H         1 <0>         0.1308
     25 H6         -4.5101    0.0294    0.0345 H         1 <0>         0.1258
     26 H7         -2.5223   -3.7443    0.0166 H         1 <0>         0.1335
     27 H8         -0.3427   -2.6008   -0.0082 H         1 <0>         0.1334
     28 H9         -4.8203   -4.7482    0.2112 H         1 <0>         0.4199
     29 H10        -5.8057   -2.1088    4.7752 H         1 <0>         0.1462
     30 H11        -4.5165   -3.9120    5.9027 H         1 <0>         0.1430
     31 H12        -3.4380   -5.6562    4.5536 H         1 <0>         0.1641
     32 H13        -6.4924   -1.1592    0.2176 H         1 <0>         0.4120
@<TRIPOS>BOND
     1    1    2 1
     2    1   21 1
     3    1   22 1
     4    1   23 1
     5    2    3 1
     6    3    8 ar
     7    3    4 ar
     8    4    5 ar
     9    4   24 1
    10    5    6 ar
    11    5   25 1
    12    6    7 ar
    13    6    9 1
    14    7    8 ar
    15    7   26 1
    16    8   27 1
    17    9   10 1
    18    9   20 1
    19    9   11 1
    20   11   12 1
    21   11   28 1
    22   12   17 ar
    23   12   13 ar
    24   13   14 ar
    25   13   18 1
    26   14   15 ar
    27   14   29 1
    28   15   16 ar
    29   15   30 1
    30   16   17 ar
    31   16   31 1
    32   18   19 2
    33   18   20 am
    34   20   32 1
@<TRIPOS>MOLECULE
ZINC13197068
   46    48     0     0     0
SMALL
USER_CHARGES
3-[(3-acetamido-4-methoxy-phenyl)sulfonylamino]naphthalene-2-carboxylic acid
@<TRIPOS>ATOM
      1 C1          0.9374   -4.0528    1.5102 C.3       1 <0>        -0.1668
      2 C2          0.8157   -2.6525    0.9668 C.2       1 <0>         0.5044
      3 O1         -0.2111   -2.2985    0.4268 O.2       1 <0>        -0.5183
      4 N1          1.8479   -1.7933    1.0808 N.am      1 <0>        -0.6617
      5 C3          1.6952   -0.4581    0.6841 C.ar      1 <0>         0.0984
      6 C4          0.4337    0.1180    0.6520 C.ar      1 <0>         0.0122
      7 C5          0.2857    1.4351    0.2608 C.ar      1 <0>        -0.6851
      8 C6          1.3926    2.1816   -0.0991 C.ar      1 <0>         0.0086
      9 C7          2.6529    1.6143   -0.0697 C.ar      1 <0>        -0.2085
     10 C8          2.8098    0.2944    0.3213 C.ar      1 <0>         0.1503
     11 O2          4.0489   -0.2648    0.3513 O.3       1 <0>        -0.3161
     12 C9          5.1454    0.5667   -0.0339 C.3       1 <0>         0.0258
     13 S1         -1.3183    2.1629    0.2137 S.o2      1 <0>         2.6912
     14 O3         -1.2477    3.2421   -0.7080 O.2       1 <0>        -0.9600
     15 O4         -2.2446    1.0953    0.0671 O.2       1 <0>        -0.9476
     16 N2         -1.5972    2.8302    1.7034 N.pl3     1 <0>        -1.0287
     17 C10        -0.7520    3.8216    2.1906 C.ar      1 <0>         0.2083
     18 C11        -0.2114    4.7443    1.3247 C.ar      1 <0>        -0.2054
     19 C12         0.6417    5.7464    1.8138 C.ar      1 <0>        -0.0171
     20 C13         1.2061    6.7008    0.9488 C.ar      1 <0>        -0.1132
     21 C14         2.0297    7.6615    1.4491 C.ar      1 <0>        -0.1177
     22 C15         2.3247    7.7170    2.8106 C.ar      1 <0>        -0.1392
     23 C16         1.7982    6.8116    3.6788 C.ar      1 <0>        -0.0893
     24 C17         0.9421    5.8023    3.1998 C.ar      1 <0>        -0.0783
     25 C18         0.3849    4.8565    4.0709 C.ar      1 <0>        -0.0422
     26 C19        -0.4596    3.8773    3.5720 C.ar      1 <0>        -0.1323
     27 C20        -1.0518    2.8850    4.4868 C.2       1 <0>         0.4946
     28 O5         -1.7892    2.0223    4.0525 O.co2     1 <0>        -0.6238
     29 H1          1.9234   -4.1853    1.9556 H         1 <0>         0.0777
     30 H2          0.1714   -4.2162    2.2683 H         1 <0>         0.1023
     31 H3          0.8053   -4.7697    0.6999 H         1 <0>         0.0980
     32 H4          2.6964   -2.0993    1.4375 H         1 <0>         0.4155
     33 H5         -0.4326   -0.4629    0.9323 H         1 <0>         0.1718
     34 H6          1.2721    3.2105   -0.4045 H         1 <0>         0.1452
     35 H7          3.5154    2.2001   -0.3515 H         1 <0>         0.1420
     36 H8          6.0734   -0.0009    0.0347 H         1 <0>         0.1027
     37 H9          5.0017    0.9054   -1.0599 H         1 <0>         0.0592
     38 H10         5.1975    1.4298    0.6297 H         1 <0>         0.0611
     39 H11        -2.3500    2.5297    2.2362 H         1 <0>         0.4423
     40 H12        -0.4425    4.6974    0.2708 H         1 <0>         0.1620
     41 H13         0.9872    6.6710   -0.1084 H         1 <0>         0.1248
     42 H14         2.4616    8.3921    0.7812 H         1 <0>         0.1163
     43 H15         2.9812    8.4902    3.1815 H         1 <0>         0.1161
     44 H16         2.0363    6.8669    4.7308 H         1 <0>         0.1243
     45 H17         0.6090    4.8930    5.1268 H         1 <0>         0.1416
     46 O6         -0.7756    2.9344    5.8048 O.co2     1 <0>        -0.7455
@<TRIPOS>BOND
     1    1    2 1
     2    1   29 1
     3    1   30 1
     4    1   31 1
     5    2    3 2
     6    2    4 am
     7    4    5 1
     8    4   32 1
     9    5   10 ar
    10    5    6 ar
    11    6    7 ar
    12    6   33 1
    13    7    8 ar
    14    7   13 1
    15    8    9 ar
    16    8   34 1
    17    9   10 ar
    18    9   35 1
    19   10   11 1
    20   11   12 1
    21   12   36 1
    22   12   37 1
    23   12   38 1
    24   13   14 2
    25   13   15 2
    26   13   16 1
    27   16   17 1
    28   16   39 1
    29   17   26 ar
    30   17   18 ar
    31   18   19 ar
    32   18   40 1
    33   19   24 ar
    34   19   20 ar
    35   20   21 ar
    36   20   41 1
    37   21   22 ar
    38   21   42 1
    39   22   23 ar
    40   22   43 1
    41   23   24 ar
    42   23   44 1
    43   24   25 ar
    44   25   26 ar
    45   25   45 1
    46   26   27 1
    47   27   28 2
    48   27   46 1
@<TRIPOS>MOLECULE
ZINC19647447
   58    60     0     0     0
SMALL
USER_CHARGES
2-[2-[[(6S)-6-tert-butyl-3-(2-furylmethylcarbamoyl)-4,5,6,7-tetrahydrobenzothiophen-2-yl]amino]-2-oxo-ethoxy]acetic acid
@<TRIPOS>ATOM
      1 C1          8.1060    4.3402   -5.7192 C.3       1 <0>        -0.1450
      2 C2          6.9925    5.2477   -6.2459 C.3       1 <0>        -0.0626
      3 C3          6.7416    4.9418   -7.7239 C.3       1 <0>        -0.1468
      4 C4          7.4116    6.7111   -6.0919 C.3       1 <0>        -0.1501
      5 C5          5.7108    4.9976   -5.4486 C.3       1 <0>        -0.0682
      6 H1          5.4148    3.9449   -5.5679 H         1 <0>         0.0750
      7 C6          5.9592    5.3030   -3.9686 C.3       1 <0>        -0.1169
      8 C7          4.7709    4.8249   -3.1323 C.3       1 <0>        -0.0583
      9 C8          3.4911    5.4035   -3.7232 C.2       1 <0>        -0.0625
     10 C9          3.4615    5.8791   -4.9871 C.2       1 <0>        -0.2175
     11 S1          1.7974    6.4356   -5.2222 S.3       1 <0>         0.2293
     12 C10         1.1469    6.0375   -3.6664 C.2       1 <0>         0.0970
     13 C11         2.2340    5.4903   -2.9998 C.2       1 <0>        -0.2423
     14 C12         2.1169    5.0118   -1.6188 C.2       1 <0>         0.5899
     15 O1          2.3379    5.7688   -0.6917 O.2       1 <0>        -0.5355
     16 N1          1.7644    3.7338   -1.3760 N.am      1 <0>        -0.7342
     17 C13         1.6474    3.2557    0.0038 C.3       1 <0>         0.2026
     18 C14         1.2438    1.8038   -0.0001 C.2       1 <0>        -0.0360
     19 C15         2.0843    0.7537   -0.0138 C.2       1 <0>        -0.1836
     20 C16         1.2839   -0.4117   -0.0124 C.2       1 <0>        -0.2189
     21 C17         0.0021   -0.0041    0.0020 C.2       1 <0>        -0.0270
     22 O2         -0.0161    1.3388    0.0094 O.3       1 <0>        -0.1706
     23 N2         -0.1457    6.2229   -3.1998 N.am      1 <0>        -0.6379
     24 C18        -1.0780    6.7767   -4.0001 C.2       1 <0>         0.5095
     25 O3         -0.7865    7.1129   -5.1284 O.2       1 <0>        -0.4668
     26 C19        -2.4828    6.9782   -3.4930 C.3       1 <0>         0.0436
     27 O4         -3.2780    7.5771   -4.5183 O.3       1 <0>        -0.3377
     28 C20        -4.6353    7.8124   -4.1382 C.3       1 <0>         0.0196
     29 C21        -5.3770    8.4428   -5.2887 C.2       1 <0>         0.4667
     30 O5         -4.8022    8.6675   -6.3274 O.co2     1 <0>        -0.6110
     31 O6         -6.6761    8.7547   -5.1593 O.co2     1 <0>        -0.7628
     32 C22         4.5961    5.9195   -5.9638 C.3       1 <0>        -0.0335
     33 H2          8.2864    4.5601   -4.6566 H         1 <0>         0.0590
     34 H3          9.0275    4.5200   -6.2924 H         1 <0>         0.0536
     35 H4          7.8047    3.2881   -5.8299 H         1 <0>         0.0541
     36 H5          5.9410    5.5943   -8.1026 H         1 <0>         0.0594
     37 H6          6.4403    3.8897   -7.8345 H         1 <0>         0.0548
     38 H7          7.6631    5.1216   -8.2971 H         1 <0>         0.0538
     39 H8          6.6110    7.3636   -6.4706 H         1 <0>         0.0606
     40 H9          8.3331    6.8909   -6.6651 H         1 <0>         0.0529
     41 H10         7.5920    6.9309   -5.0293 H         1 <0>         0.0584
     42 H11         6.8700    4.7842   -3.6350 H         1 <0>         0.0718
     43 H12         6.0849    6.3875   -3.8340 H         1 <0>         0.0687
     44 H13         4.7272    3.7259   -3.1520 H         1 <0>         0.0729
     45 H14         4.8911    5.1686   -2.0943 H         1 <0>         0.0724
     46 H15         1.5646    3.0497   -2.2139 H         1 <0>         0.4275
     47 H16         2.6161    3.3656    0.5133 H         1 <0>         0.0981
     48 H17         0.8855    3.8466    0.5333 H         1 <0>         0.0846
     49 H18         3.1636    0.7932   -0.0236 H         1 <0>         0.1499
     50 H19         1.6343   -1.4332   -0.0218 H         1 <0>         0.1500
     51 H20        -0.8653   -0.6475    0.0072 H         1 <0>         0.2048
     52 H21        -0.4101    5.9180   -2.1765 H         1 <0>         0.4427
     53 H22        -2.9151    6.0058   -3.2146 H         1 <0>         0.0815
     54 H23        -2.4637    7.6367   -2.6121 H         1 <0>         0.0821
     55 H24        -5.1127    6.8574   -3.8733 H         1 <0>         0.0563
     56 H25        -4.6613    8.4883   -3.2707 H         1 <0>         0.0566
     57 H26         4.9809    6.9462   -6.0519 H         1 <0>         0.0858
     58 H27         4.2570    5.5692   -6.9498 H         1 <0>         0.0801
@<TRIPOS>BOND
     1    1    2 1
     2    1   33 1
     3    1   34 1
     4    1   35 1
     5    2    3 1
     6    2    4 1
     7    2    5 1
     8    3   36 1
     9    3   37 1
    10    3   38 1
    11    4   39 1
    12    4   40 1
    13    4   41 1
    14    5    6 1
    15    5   32 1
    16    5    7 1
    17    7    8 1
    18    7   42 1
    19    7   43 1
    20    8    9 1
    21    8   44 1
    22    8   45 1
    23    9   13 1
    24    9   10 2
    25   10   11 1
    26   10   32 1
    27   11   12 1
    28   12   13 2
    29   12   23 1
    30   13   14 1
    31   14   15 2
    32   14   16 am
    33   16   17 1
    34   16   46 1
    35   17   18 1
    36   17   47 1
    37   17   48 1
    38   18   22 1
    39   18   19 2
    40   19   20 1
    41   19   49 1
    42   20   21 2
    43   20   50 1
    44   21   22 1
    45   21   51 1
    46   23   24 am
    47   23   52 1
    48   24   25 2
    49   24   26 1
    50   26   27 1
    51   26   53 1
    52   26   54 1
    53   27   28 1
    54   28   29 1
    55   28   55 1
    56   28   56 1
    57   29   30 2
    58   29   31 1
    59   32   57 1
    60   32   58 1
@<TRIPOS>MOLECULE
ZINC39422247
   57    60     0     0     0
SMALL
USER_CHARGES

@<TRIPOS>ATOM
      1 C1         -2.4308    0.6230    0.3718 C.3       1 <0>        -0.1155
      2 C2         -2.1052   -0.8457    0.2822 C.ar      1 <0>        -0.0809
      3 C3         -1.9049   -1.4351   -0.9521 C.ar      1 <0>        -0.1250
      4 C4         -1.6062   -2.7823   -1.0343 C.ar      1 <0>        -0.0900
      5 C5         -1.5074   -3.5400    0.1177 C.ar      1 <0>        -0.0947
      6 C6         -1.7068   -2.9503    1.3520 C.ar      1 <0>        -0.0908
      7 C7         -2.0013   -1.6022    1.4345 C.ar      1 <0>        -0.1253
      8 C8         -1.1827   -5.0088    0.0279 C.3       1 <0>         0.1005
      9 O1          0.2343   -5.1872    0.0748 O.3       1 <0>        -0.3003
     10 C9          0.6986   -6.4635    0.0045 C.ar      1 <0>         0.0861
     11 C10        -0.1901   -7.5202   -0.1129 C.ar      1 <0>        -0.1724
     12 C11         0.2836   -8.8169   -0.1848 C.ar      1 <0>        -0.1005
     13 C12         1.6432   -9.0630   -0.1393 C.ar      1 <0>        -0.0393
     14 C13         2.5352   -8.0134   -0.0217 C.ar      1 <0>        -0.1721
     15 C14         2.0674   -6.7108    0.0445 C.ar      1 <0>         0.0985
     16 O2          2.9438   -5.6767    0.1542 O.3       1 <0>        -0.3089
     17 C15         4.3340   -6.0055    0.1894 C.3       1 <0>         0.0265
     18 C16         2.1541  -10.4786   -0.2175 C.3       1 <0>         0.1306
     19 H1          3.2439  -10.4731   -0.1998 H         1 <0>         0.0652
     20 C17         1.6757  -11.1153   -1.4969 C.2       1 <0>        -0.4198
     21 C18         1.5443  -10.4785   -2.7347 C.2       1 <0>         0.1105
     22 N1          1.1036  -11.3535   -3.6017 N.2       1 <0>        -0.3797
     23 N2          0.9388  -12.5799   -2.9453 N.pl3     1 <0>        -0.5471
     24 C19         1.3007  -12.4126   -1.6542 C.2       1 <0>         0.4394
     25 O3          1.2895  -13.3666   -0.6884 O.3       1 <0>        -0.7073
     26 C20         1.8561   -9.0321   -3.0208 C.3       1 <0>        -0.0763
     27 C21         1.6366  -11.2652    0.9592 C.2       1 <0>        -0.0041
     28 C22         2.3351  -11.9932    1.8331 C.2       1 <0>        -0.0770
     29 N3          1.5183  -12.5532    2.7527 N.2       1 <0>        -0.1258
     30 N4          0.3230  -12.2873    2.6054 N.2       1 <0>        -0.2213
     31 C23         0.2001  -11.4082    1.4300 C.3       1 <0>         0.1682
     32 H2         -0.2114  -10.4391    1.7123 H         1 <0>         0.1055
     33 O4         -0.6030  -12.0257    0.4221 O.3       1 <0>        -0.4752
     34 C24         3.8316  -12.1672    1.7988 C.3       1 <0>        -0.0684
     35 H3         -1.5067    1.1961    0.4468 H         1 <0>         0.0709
     36 H4         -2.9769    0.9292   -0.5204 H         1 <0>         0.0661
     37 H5         -3.0444    0.8059    1.2540 H         1 <0>         0.0659
     38 H6         -1.9821   -0.8432   -1.8521 H         1 <0>         0.1232
     39 H7         -1.4504   -3.2430   -1.9986 H         1 <0>         0.1250
     40 H8         -1.6299   -3.5423    2.2520 H         1 <0>         0.1240
     41 H9         -2.1534   -1.1407    2.3990 H         1 <0>         0.1229
     42 H10        -1.6430   -5.5344    0.8646 H         1 <0>         0.0679
     43 H11        -1.5686   -5.4096   -0.9094 H         1 <0>         0.0695
     44 H12        -1.2527   -7.3307   -0.1480 H         1 <0>         0.1296
     45 H13        -0.4101   -9.6396   -0.2763 H         1 <0>         0.1321
     46 H14         3.5969   -8.2084    0.0140 H         1 <0>         0.1337
     47 H15         4.9213   -5.0916    0.2784 H         1 <0>         0.0951
     48 H16         4.5333   -6.6503    1.0453 H         1 <0>         0.0532
     49 H17         4.6078   -6.5253   -0.7287 H         1 <0>         0.0554
     50 H18         2.9232   -8.9216   -3.2133 H         1 <0>         0.0558
     51 H19         1.2934   -8.7053   -3.8953 H         1 <0>         0.0514
     52 H20         1.5771   -8.4233   -2.1608 H         1 <0>         0.0738
     53 H21        -1.5298  -12.1403    0.6731 H         1 <0>         0.3622
     54 H22         4.3023  -11.3827    2.3913 H         1 <0>         0.0615
     55 H23         4.0937  -13.1412    2.2119 H         1 <0>         0.0687
     56 H24         4.1813  -12.1036    0.7684 H         1 <0>         0.0718
     57 H25         0.6236  -13.4045   -3.3474 H         1 <0>         0.4069
@<TRIPOS>BOND
     1    1    2 1
     2    1   35 1
     3    1   36 1
     4    1   37 1
     5    2    7 ar
     6    2    3 ar
     7    3    4 ar
     8    3   38 1
     9    4    5 ar
    10    4   39 1
    11    5    6 ar
    12    5    8 1
    13    6    7 ar
    14    6   40 1
    15    7   41 1
    16    8    9 1
    17    8   42 1
    18    8   43 1
    19    9   10 1
    20   10   15 ar
    21   10   11 ar
    22   11   12 ar
    23   11   44 1
    24   12   13 ar
    25   12   45 1
    26   13   14 ar
    27   13   18 1
    28   14   15 ar
    29   14   46 1
    30   15   16 1
    31   16   17 1
    32   17   47 1
    33   17   48 1
    34   17   49 1
    35   18   19 1
    36   18   20 1
    37   18   27 1
    38   20   24 2
    39   20   21 1
    40   21   26 1
    41   21   22 2
    42   22   23 1
    43   23   24 1
    44   23   57 1
    45   24   25 1
    46   26   50 1
    47   26   51 1
    48   26   52 1
    49   27   31 1
    50   27   28 2
    51   28   29 1
    52   28   34 1
    53   29   30 2
    54   30   31 1
    55   31   32 1
    56   31   33 1
    57   33   53 1
    58   34   54 1
    59   34   55 1
    60   34   56 1
@<TRIPOS>MOLECULE
ZINC29433793
   34    35     0     0     0
SMALL
USER_CHARGES

@<TRIPOS>ATOM
      1 C1         -0.0167    1.3779    0.0096 C.ar      1 <0>        -0.0887
      2 C2          1.1692    2.0897    0.0021 C.ar      1 <0>        -0.1841
      3 C3          2.3812    1.4171   -0.0130 C.ar      1 <0>         0.2247
      4 C4          2.4001    0.0221   -0.0206 C.ar      1 <0>         0.2311
      5 C5          1.2068   -0.6833   -0.0130 C.ar      1 <0>        -0.1925
      6 C6          0.0021   -0.0041    0.0020 C.ar      1 <0>        -0.0468
      7 N1         -1.2707   -0.7593    0.0106 N.pl3     1 <0>         0.0510
      8 O1         -2.3248   -0.1674    0.0242 O.2       1 <0>        -0.1980
      9 O2         -1.2564   -1.9682    0.0039 O.3       1 <0>        -0.1894
     10 N2          3.6209   -0.6635   -0.0364 N.2       1 <0>        -1.0882
     11 S1          3.6405   -2.3193   -0.0454 S.o2      1 <0>         2.6351
     12 O3          3.1069   -2.7386    1.2031 O.2       1 <0>        -1.0099
     13 O4          3.0823   -2.7254   -1.2875 O.2       1 <0>        -1.0110
     14 C7          5.3298   -2.8202   -0.0648 C.2       1 <0>        -0.6582
     15 C8          6.1566   -3.0736    0.9785 C.2       1 <0>        -0.0456
     16 C9          7.4599   -3.4581    0.7234 C.2       1 <0>        -0.1325
     17 C10         7.8719   -3.5701   -0.5640 C.2       1 <0>        -0.1748
     18 S2          6.3934   -3.1328   -1.4641 S.3       1 <0>         0.2132
     19 Br1         9.5695   -4.0678   -1.2321 Br        1 <0>         0.0361
     20 N3          3.5829    2.1356   -0.0211 N.pl3     1 <0>        -0.7179
     21 C11         3.5606    3.6004   -0.0136 C.3       1 <0>         0.1233
     22 C12         4.9951    4.1324   -0.0248 C.3       1 <0>         0.0658
     23 O5          5.6277    3.7702   -1.2539 O.3       1 <0>        -0.5654
     24 H1         -0.9600    1.9035    0.0260 H         1 <0>         0.1340
     25 H2          1.1509    3.1695    0.0077 H         1 <0>         0.1293
     26 H3          1.2178   -1.7632   -0.0193 H         1 <0>         0.1253
     27 H4          5.8029   -2.9763    1.9943 H         1 <0>         0.1524
     28 H5          8.1396   -3.6657    1.5367 H         1 <0>         0.1451
     29 H6          4.4302    1.6635   -0.0317 H         1 <0>         0.4170
     30 H7          3.0326    3.9603   -0.8967 H         1 <0>         0.0637
     31 H8          3.0499    3.9514    0.8832 H         1 <0>         0.0700
     32 H9          4.9807    5.2181    0.0703 H         1 <0>         0.0568
     33 H10         5.5488    3.7018    0.8095 H         1 <0>         0.0522
     34 H11         6.5421    4.0755   -1.3305 H         1 <0>         0.3771
@<TRIPOS>BOND
     1    1    6 ar
     2    1    2 ar
     3    1   24 1
     4    2    3 ar
     5    2   25 1
     6    3    4 ar
     7    3   20 1
     8    4    5 ar
     9    4   10 1
    10    5    6 ar
    11    5   26 1
    12    6    7 1
    13    7    8 2
    14    7    9 1
    15   10   11 1
    16   11   12 2
    17   11   13 2
    18   11   14 1
    19   14   18 1
    20   14   15 2
    21   15   16 1
    22   15   27 1
    23   16   17 2
    24   16   28 1
    25   17   18 1
    26   17   19 1
    27   20   21 1
    28   20   29 1
    29   21   22 1
    30   21   30 1
    31   21   31 1
    32   22   23 1
    33   22   32 1
    34   22   33 1
    35   23   34 1
@<TRIPOS>MOLECULE
ZINC67235281
   55    55     0     0     0
SMALL
USER_CHARGES

@<TRIPOS>ATOM
      1 C1         -3.3259    2.3669   -0.9328 C.3       1 <0>        -0.1420
      2 C2         -4.0263    1.0204   -1.1264 C.3       1 <0>        -0.1174
      3 C3         -3.1797   -0.0895   -0.5001 C.3       1 <0>        -0.5981
      4 S1         -4.0101   -1.6859   -0.7296 S.o2      1 <0>         2.5254
      5 O1         -5.2044   -1.7313    0.0391 O.2       1 <0>        -1.0276
      6 O2         -4.0206   -2.0387   -2.1060 O.2       1 <0>        -1.0291
      7 N1         -3.0066   -2.7939   -0.0170 N.2       1 <0>        -1.1001
      8 C4         -3.3519   -4.1495   -0.0133 C.ar      1 <0>         0.2804
      9 C5         -4.5335   -4.5670   -0.6121 C.ar      1 <0>        -0.2455
     10 C6         -4.8740   -5.9049   -0.6083 C.ar      1 <0>        -0.0538
     11 C7         -4.0356   -6.8331   -0.0054 C.ar      1 <0>         0.0088
     12 C8         -2.8545   -6.4159    0.5938 C.ar      1 <0>        -0.0909
     13 C9         -2.5103   -5.0789    0.5843 C.ar      1 <0>        -0.1737
     14 N2         -4.3817   -8.1912   -0.0012 N.am      1 <0>        -0.6519
     15 C10        -5.6746   -8.5568    0.1049 C.2       1 <0>         0.5059
     16 O3         -6.5450   -7.7120    0.1129 O.2       1 <0>        -0.5075
     17 C11        -6.0388  -10.0150    0.2136 C.3       1 <0>         0.1814
     18 C12        -5.9464  -10.4562    1.6757 C.3       1 <0>        -0.1615
     19 C13        -7.4676  -10.2229   -0.2925 C.3       1 <0>        -0.1529
     20 N3         -5.1132  -10.8112   -0.5961 N.am      1 <0>        -0.7064
     21 C14        -5.2474  -12.1511   -0.6512 C.2       1 <0>         0.6579
     22 O4         -6.1361  -12.6988   -0.0293 O.2       1 <0>        -0.5587
     23 O5         -4.3968  -12.8828   -1.3954 O.3       1 <0>        -0.3585
     24 C15        -4.5977  -14.2976   -1.4078 C.3       1 <0>         0.1350
     25 C16        -5.9931  -14.6098   -1.9521 C.3       1 <0>        -0.1861
     26 C17        -3.5432  -14.9546   -2.3006 C.3       1 <0>        -0.1408
     27 C18        -4.4719  -14.8430    0.0162 C.3       1 <0>        -0.1856
     28 H1         -3.9290    3.1576   -1.3790 H         1 <0>         0.0548
     29 H2         -3.2015    2.5619    0.1324 H         1 <0>         0.0556
     30 H3         -2.3482    2.3403   -1.4139 H         1 <0>         0.0555
     31 H4         -5.0040    1.0470   -0.6452 H         1 <0>         0.0715
     32 H5         -4.1507    0.8254   -2.1915 H         1 <0>         0.0713
     33 H6         -2.2020   -0.1161   -0.9812 H         1 <0>         0.1190
     34 H7         -3.0553    0.1055    0.5651 H         1 <0>         0.1191
     35 H8         -5.1860   -3.8449   -1.0804 H         1 <0>         0.1038
     36 H9         -5.7928   -6.2296   -1.0739 H         1 <0>         0.1184
     37 H10        -2.2028   -7.1379    1.0633 H         1 <0>         0.1068
     38 H11        -1.5891   -4.7551    1.0458 H         1 <0>         0.1154
     39 H12        -3.6908   -8.8680   -0.0746 H         1 <0>         0.3968
     40 H13        -6.6351   -9.8638    2.2781 H         1 <0>         0.0762
     41 H14        -6.2099  -11.5110    1.7543 H         1 <0>         0.0917
     42 H15        -4.9285  -10.3081    2.0363 H         1 <0>         0.0618
     43 H16        -7.5335   -9.9087   -1.3342 H         1 <0>         0.0596
     44 H17        -7.7311  -11.2777   -0.2139 H         1 <0>         0.0857
     45 H18        -8.1563   -9.6306    0.3099 H         1 <0>         0.0800
     46 H19        -4.4038  -10.3740   -1.0926 H         1 <0>         0.4060
     47 H20        -6.0827  -14.2212   -2.9665 H         1 <0>         0.0589
     48 H21        -6.1463  -15.6889   -1.9615 H         1 <0>         0.0680
     49 H22        -6.7443  -14.1417   -1.3160 H         1 <0>         0.0893
     50 H23        -2.5491  -14.7322   -1.9128 H         1 <0>         0.0666
     51 H24        -3.6964  -16.0338   -2.3101 H         1 <0>         0.0789
     52 H25        -3.6328  -14.5660   -3.3150 H         1 <0>         0.0664
     53 H26        -5.2231  -14.3749    0.6523 H         1 <0>         0.0892
     54 H27        -4.6251  -15.9222    0.0067 H         1 <0>         0.0679
     55 H28        -3.4778  -14.6206    0.4039 H         1 <0>         0.0590
@<TRIPOS>BOND
     1    1    2 1
     2    1   28 1
     3    1   29 1
     4    1   30 1
     5    2    3 1
     6    2   31 1
     7    2   32 1
     8    3    4 1
     9    3   33 1
    10    3   34 1
    11    4    5 2
    12    4    6 2
    13    4    7 1
    14    7    8 1
    15    8   13 ar
    16    8    9 ar
    17    9   10 ar
    18    9   35 1
    19   10   11 ar
    20   10   36 1
    21   11   12 ar
    22   11   14 1
    23   12   13 ar
    24   12   37 1
    25   13   38 1
    26   14   15 am
    27   14   39 1
    28   15   16 2
    29   15   17 1
    30   17   18 1
    31   17   19 1
    32   17   20 1
    33   18   40 1
    34   18   41 1
    35   18   42 1
    36   19   43 1
    37   19   44 1
    38   19   45 1
    39   20   21 am
    40   20   46 1
    41   21   22 2
    42   21   23 1
    43   23   24 1
    44   24   25 1
    45   24   26 1
    46   24   27 1
    47   25   47 1
    48   25   48 1
    49   25   49 1
    50   26   50 1
    51   26   51 1
    52   26   52 1
    53   27   53 1
    54   27   54 1
    55   27   55 1
@<TRIPOS>MOLECULE
ZINC13050465
   48    50     0     0     0
SMALL
USER_CHARGES
3-[(1S)-2-[(2-methoxy-5-methyl-phenyl)amino]-1-methyl-2-oxo-ethoxy]naphthalene-2-carboxylic acid
@<TRIPOS>ATOM
      1 C1         -9.3810   -3.6141   -2.7628 C.3       1 <0>        -0.1116
      2 C2         -8.0392   -4.3002   -2.7671 C.ar      1 <0>        -0.0985
      3 C3         -7.8258   -5.3926   -3.5876 C.ar      1 <0>        -0.1034
      4 C4         -6.5974   -6.0266   -3.5952 C.ar      1 <0>        -0.1862
      5 C5         -5.5758   -5.5681   -2.7792 C.ar      1 <0>         0.0878
      6 C6         -5.7900   -4.4675   -1.9527 C.ar      1 <0>         0.1322
      7 C7         -7.0270   -3.8397   -1.9467 C.ar      1 <0>        -0.0969
      8 N1         -4.7605   -3.9994   -1.1254 N.am      1 <0>        -0.6642
      9 C8         -4.7203   -2.7001   -0.7692 C.2       1 <0>         0.5136
     10 O1         -5.6186   -1.9536   -1.0963 O.2       1 <0>        -0.4703
     11 C9         -3.5594   -2.1750    0.0355 C.3       1 <0>         0.0598
     12 H1         -2.6343   -2.3241   -0.5214 H         1 <0>         0.0982
     13 C10        -3.4802   -2.9257    1.3663 C.3       1 <0>        -0.1766
     14 O2         -3.7453   -0.7804    0.2856 O.3       1 <0>        -0.2360
     15 C11        -2.6309   -0.0433    0.5245 C.ar      1 <0>         0.1793
     16 C12        -1.4204   -0.6633    0.6245 C.ar      1 <0>        -0.2521
     17 C13        -0.2624    0.0925    0.8712 C.ar      1 <0>        -0.0086
     18 C14         0.9958   -0.5254    0.9787 C.ar      1 <0>        -0.1232
     19 C15         2.1011    0.2316    1.2186 C.ar      1 <0>        -0.1133
     20 C16         2.0073    1.6153    1.3598 C.ar      1 <0>        -0.1473
     21 C17         0.8075    2.2494    1.2628 C.ar      1 <0>        -0.0822
     22 C18        -0.3581    1.5010    1.0154 C.ar      1 <0>        -0.0910
     23 C19        -1.6097    2.1242    0.9154 C.ar      1 <0>        -0.0331
     24 C20        -2.7369    1.3568    0.6663 C.ar      1 <0>        -0.1288
     25 C21        -4.0557    2.0068    0.5544 C.2       1 <0>         0.4853
     26 O3         -5.0469    1.3373    0.3408 O.co2     1 <0>        -0.5964
     27 O4         -4.3672   -6.1913   -2.7849 O.3       1 <0>        -0.3209
     28 C22        -4.2199   -7.3132   -3.6576 C.3       1 <0>         0.0308
     29 H2        -10.0222   -4.0746   -2.0112 H         1 <0>         0.0684
     30 H3         -9.2482   -2.5578   -2.5292 H         1 <0>         0.0717
     31 H4         -9.8431   -3.7137   -3.7450 H         1 <0>         0.0642
     32 H5         -8.6211   -5.7516   -4.2241 H         1 <0>         0.1236
     33 H6         -6.4341   -6.8797   -4.2370 H         1 <0>         0.1295
     34 H7         -7.1977   -2.9889   -1.3037 H         1 <0>         0.1603
     35 H8         -4.0768   -4.6104   -0.8090 H         1 <0>         0.4121
     36 H9         -3.3384   -3.9894    1.1755 H         1 <0>         0.0723
     37 H10        -2.6405   -2.5458    1.9483 H         1 <0>         0.0797
     38 H11        -4.4053   -2.7765    1.9232 H         1 <0>         0.0773
     39 H12        -1.3521   -1.7356    0.5145 H         1 <0>         0.1281
     40 H13         1.0849   -1.5964    0.8717 H         1 <0>         0.1188
     41 H14         3.0657   -0.2470    1.3004 H         1 <0>         0.1149
     42 H15         2.9003    2.1924    1.5494 H         1 <0>         0.1161
     43 H16         0.7500    3.3220    1.3751 H         1 <0>         0.1251
     44 H17        -1.6941    3.1955    1.0238 H         1 <0>         0.1458
     45 H18        -4.3917   -6.9980   -4.6868 H         1 <0>         0.0545
     46 H19        -3.2113   -7.7159   -3.5645 H         1 <0>         0.0985
     47 H20        -4.9443   -8.0815   -3.3872 H         1 <0>         0.0540
     48 O5         -4.1617    3.3434    0.6891 O.co2     1 <0>        -0.7613
@<TRIPOS>BOND
     1    1    2 1
     2    1   29 1
     3    1   30 1
     4    1   31 1
     5    2    7 ar
     6    2    3 ar
     7    3    4 ar
     8    3   32 1
     9    4    5 ar
    10    4   33 1
    11    5    6 ar
    12    5   27 1
    13    6    7 ar
    14    6    8 1
    15    7   34 1
    16    8    9 am
    17    8   35 1
    18    9   10 2
    19    9   11 1
    20   11   12 1
    21   11   13 1
    22   11   14 1
    23   13   36 1
    24   13   37 1
    25   13   38 1
    26   14   15 1
    27   15   24 ar
    28   15   16 ar
    29   16   17 ar
    30   16   39 1
    31   17   22 ar
    32   17   18 ar
    33   18   19 ar
    34   18   40 1
    35   19   20 ar
    36   19   41 1
    37   20   21 ar
    38   20   42 1
    39   21   22 ar
    40   21   43 1
    41   22   23 ar
    42   23   24 ar
    43   23   44 1
    44   24   25 1
    45   25   26 2
    46   25   48 1
    47   27   28 1
    48   28   45 1
    49   28   46 1
    50   28   47 1
@<TRIPOS>MOLECULE
ZINC06892530
   40    42     0     0     0
SMALL
USER_CHARGES
5-(4-ethoxyphenyl)-4-[(N'E)-N'-[(2-fluorophenyl)methylene]hydrazino]-1,2,4-triazole-3-thiol
@<TRIPOS>ATOM
      1 C1         11.3351    5.0998    2.9261 C.3       1 <0>        -0.1536
      2 C2          9.8953    5.3154    2.4555 C.3       1 <0>         0.0515
      3 O1          9.6915    6.6995    2.1645 O.3       1 <0>        -0.3161
      4 C3          8.4562    7.0633    1.7311 C.ar      1 <0>         0.1215
      5 C4          8.1915    8.3929    1.4307 C.ar      1 <0>        -0.1415
      6 C5          6.9394    8.7661    0.9912 C.ar      1 <0>        -0.0492
      7 C6          5.9368    7.8053    0.8481 C.ar      1 <0>        -0.0087
      8 C7          6.2052    6.4704    1.1567 C.ar      1 <0>        -0.0920
      9 C8          7.4616    6.1045    1.5902 C.ar      1 <0>        -0.1982
     10 C9          4.5927    8.2011    0.3771 C.2       1 <0>         0.1373
     11 N1          4.0848    9.4115    0.3949 N.2       1 <0>        -0.2621
     12 N2          2.8948    9.3952   -0.0899 N.2       1 <0>        -0.3318
     13 C10         2.5718    8.1743   -0.4526 C.2       1 <0>         0.3748
     14 N3          3.6380    7.3706   -0.1628 N.pl3     1 <0>        -0.2586
     15 N4          3.7400    5.9897   -0.3763 N.pl3     1 <0>        -0.4522
     16 N5          2.5862    5.2298   -0.6091 N.2       1 <0>        -0.1078
     17 C11         2.6807    3.9510   -0.8069 C.2       1 <0>         0.0099
     18 C12         1.4662    3.1510   -1.0519 C.ar      1 <0>        -0.0626
     19 C13         1.5638    1.7742   -1.2653 C.ar      1 <0>        -0.0781
     20 C14         0.4239    1.0319   -1.4934 C.ar      1 <0>        -0.1468
     21 C15        -0.8151    1.6481   -1.5167 C.ar      1 <0>        -0.0902
     22 C16        -0.9222    3.0101   -1.3013 C.ar      1 <0>        -0.1688
     23 C17         0.2108    3.7672   -1.0714 C.ar      1 <0>         0.1316
     24 F1          0.1061    5.0985   -0.8665 F         1 <0>        -0.0687
     25 S1          1.0463    7.6673   -1.1741 S.3       1 <0>        -0.7378
     26 H1         11.4920    4.0343    3.1501 H         1 <0>         0.0775
     27 H2         11.5177    5.6958    3.8324 H         1 <0>         0.0665
     28 H3         12.0307    5.4143    2.1341 H         1 <0>         0.0663
     29 H4          9.7127    4.7194    1.5492 H         1 <0>         0.0617
     30 H5          9.1997    5.0009    3.2475 H         1 <0>         0.0620
     31 H6          8.9678    9.1356    1.5413 H         1 <0>         0.1351
     32 H7          6.7342    9.8005    0.7581 H         1 <0>         0.1437
     33 H8          5.4310    5.7249    1.0516 H         1 <0>         0.1212
     34 H9          7.6715    5.0713    1.8245 H         1 <0>         0.1288
     35 H10         4.7259    5.5021   -0.3612 H         1 <0>         0.4100
     36 H11         3.6667    3.4635   -0.7919 H         1 <0>         0.1133
     37 H12         2.5300    1.2917   -1.2520 H         1 <0>         0.1289
     38 H13         0.4989   -0.0327   -1.6588 H         1 <0>         0.1250
     39 H14        -1.7033    1.0617   -1.7003 H         1 <0>         0.1257
     40 H15        -1.8928    3.4835   -1.3168 H         1 <0>         0.1328
@<TRIPOS>BOND
     1    1    2 1
     2    1   26 1
     3    1   27 1
     4    1   28 1
     5    2    3 1
     6    2   29 1
     7    2   30 1
     8    3    4 1
     9    4    9 ar
    10    4    5 ar
    11    5    6 ar
    12    5   31 1
    13    6    7 ar
    14    6   32 1
    15    7    8 ar
    16    7   10 1
    17    8    9 ar
    18    8   33 1
    19    9   34 1
    20   10   14 1
    21   10   11 2
    22   11   12 1
    23   12   13 2
    24   13   14 1
    25   13   25 1
    26   14   15 1
    27   15   16 1
    28   15   35 1
    29   16   17 2
    30   17   18 1
    31   17   36 1
    32   18   23 ar
    33   18   19 ar
    34   19   20 ar
    35   19   37 1
    36   20   21 ar
    37   20   38 1
    38   21   22 ar
    39   21   39 1
    40   22   23 ar
    41   22   40 1
    42   23   24 1
@<TRIPOS>MOLECULE
ZINC38653375
   37    39     0     0     0
SMALL
USER_CHARGES

@<TRIPOS>ATOM
      1 C1         -1.3341    1.5776   -0.5858 C.3       1 <0>        -0.1535
      2 C2         -0.9150    0.1098   -0.4835 C.3       1 <0>         0.1113
      3 H1         -0.5840   -0.2583   -1.4546 H         1 <0>         0.1362
      4 N1         -2.0397   -0.7148    0.0261 N.3       1 <0>        -0.6567
      5 C3         -1.3218   -1.6919    0.8831 C.3       1 <0>         0.0967
      6 H2         -1.1121   -2.6043    0.3248 H         1 <0>         0.1693
      7 N2         -0.0697   -1.0182    1.2508 N.2       1 <0>        -0.1446
      8 N3          0.1510   -0.0493    0.5142 N.2       1 <0>        -0.1631
      9 S1         -2.2979   -2.0696    2.3647 S.3       1 <0>         0.0174
     10 C4         -2.4799   -0.5101    3.1642 C.2       1 <0>        -0.1203
     11 C5         -1.9257    0.6080    2.6129 C.2       1 <0>        -0.1496
     12 C6         -2.2329    1.8816    3.1397 C.2       1 <0>         0.1087
     13 C7         -1.3403    2.9223    3.3230 C.2       1 <0>        -0.2216
     14 C8         -2.0675    3.9859    3.8647 C.2       1 <0>        -0.1810
     15 C9         -3.3610    3.5656    3.9923 C.2       1 <0>         0.0089
     16 O1         -3.4500    2.2988    3.5472 O.3       1 <0>        -0.1114
     17 C10        -4.4777    4.3702    4.5246 C.ar      1 <0>         0.0211
     18 C11        -4.2577    5.6843    4.9457 C.ar      1 <0>        -0.1049
     19 C12        -5.3056    6.4311    5.4417 C.ar      1 <0>        -0.1054
     20 C13        -6.5734    5.8823    5.5231 C.ar      1 <0>        -0.1199
     21 C14        -6.7995    4.5808    5.1078 C.ar      1 <0>        -0.0284
     22 C15        -5.7606    3.8236    4.6042 C.ar      1 <0>        -0.0922
     23 Cl1        -8.3937    3.9019    5.2147 Cl        1 <0>        -0.0725
     24 C16        -3.2021   -0.4171    4.3799 C.2       1 <0>         0.5201
     25 O2         -3.2273    0.6407    4.9984 O.co2     1 <0>        -0.6425
     26 O3         -3.8015   -1.3946    4.8129 O.co2     1 <0>        -0.6706
     27 H3         -0.4902    2.1730   -0.9344 H         1 <0>         0.0833
     28 H4         -2.1605    1.6712   -1.2905 H         1 <0>         0.0796
     29 H5         -1.6504    1.9344    0.3944 H         1 <0>         0.0704
     30 H6         -2.6791   -0.1566    0.5717 H         1 <0>         0.3609
     31 H7         -1.2519    0.5190    1.7735 H         1 <0>         0.1292
     32 H8         -0.2852    2.9145    3.0925 H         1 <0>         0.1432
     33 H9         -1.6795    4.9575    4.1324 H         1 <0>         0.1426
     34 H10        -3.2688    6.1142    4.8833 H         1 <0>         0.1325
     35 H11        -5.1363    7.4467    5.7678 H         1 <0>         0.1340
     36 H12        -7.3902    6.4718    5.9127 H         1 <0>         0.1314
     37 H13        -5.9387    2.8101    4.2764 H         1 <0>         0.1410
@<TRIPOS>BOND
     1    1    2 1
     2    1   27 1
     3    1   28 1
     4    1   29 1
     5    2    3 1
     6    2    8 1
     7    2    4 1
     8    4    5 1
     9    4   30 1
    10    5    6 1
    11    5    7 1
    12    5    9 1
    13    7    8 2
    14    9   10 1
    15   10   11 2
    16   10   24 1
    17   11   12 1
    18   11   31 1
    19   12   16 1
    20   12   13 2
    21   13   14 1
    22   13   32 1
    23   14   15 2
    24   14   33 1
    25   15   16 1
    26   15   17 1
    27   17   22 ar
    28   17   18 ar
    29   18   19 ar
    30   18   34 1
    31   19   20 ar
    32   19   35 1
    33   20   21 ar
    34   20   36 1
    35   21   22 ar
    36   21   23 1
    37   22   37 1
    38   24   25 2
    39   24   26 1
@<TRIPOS>MOLECULE
ZINC44298430
   47    48     0     0     0
SMALL
USER_CHARGES

@<TRIPOS>ATOM
      1 C1         -0.0184    1.5028    0.0103 C.3       1 <0>        -0.1103
      2 C2          0.0021   -0.0041    0.0020 C.2       1 <0>        -0.1000
      3 C3         -1.1383   -0.6866    0.0037 C.2       1 <0>        -0.1399
      4 C4         -1.1146   -2.1927   -0.0017 C.3       1 <0>        -0.0540
      5 H1         -1.0046   -2.5566    1.0199 H         1 <0>         0.1050
      6 C5         -2.4039   -2.7153   -0.5831 C.2       1 <0>        -0.1101
      7 C6         -2.5112   -2.8574   -1.9038 C.2       1 <0>        -0.1161
      8 C7         -1.3693   -2.5002   -2.7588 C.2       1 <0>         0.2612
      9 N1         -0.1786   -2.4205   -2.2570 N.2       1 <0>        -0.4996
     10 C8          0.0584   -2.6885   -0.8458 C.3       1 <0>         0.1123
     11 H2          0.1803   -3.7615   -0.6980 H         1 <0>         0.0969
     12 C9          1.3241   -1.9936   -0.4150 C.2       1 <0>        -0.1283
     13 C10         1.2850   -0.7253   -0.0141 C.2       1 <0>        -0.1043
     14 Cl1        -1.6190   -2.1838   -4.4473 Cl        1 <0>        -0.0133
     15 C11        -3.7871   -3.3782   -2.5136 C.3       1 <0>        -0.0735
     16 C12        -4.6669   -2.2008   -2.9386 C.3       1 <0>         0.0998
     17 H3         -4.1026   -1.5470   -3.6036 H         1 <0>         0.0934
     18 C13        -5.8855   -2.7185   -3.6583 C.2       1 <0>         0.4924
     19 O1         -6.8969   -2.9839   -3.0313 O.co2     1 <0>        -0.6876
     20 O2         -5.8600   -2.8719   -4.8676 O.co2     1 <0>        -0.6857
     21 N2         -5.0831   -1.4489   -1.7521 N.am      1 <0>        -0.6750
     22 C14        -5.4129   -0.1467   -1.8610 C.2       1 <0>         0.6490
     23 O3         -5.3649    0.4038   -2.9432 O.2       1 <0>        -0.5676
     24 O4         -5.7954    0.5443   -0.7706 O.3       1 <0>        -0.3663
     25 C15        -6.1305    1.9206   -0.9592 C.3       1 <0>         0.1358
     26 C16        -7.2949    2.0313   -1.9455 C.3       1 <0>        -0.1860
     27 C17        -6.5377    2.5347    0.3816 C.3       1 <0>        -0.1368
     28 C18        -4.9178    2.6692   -1.5158 C.3       1 <0>        -0.1832
     29 H4          1.0042    1.8801    0.0026 H         1 <0>         0.0619
     30 H5         -0.5455    1.8639   -0.8728 H         1 <0>         0.0671
     31 H6         -0.5286    1.8543    0.9071 H         1 <0>         0.0661
     32 H7         -2.0820   -0.1614    0.0094 H         1 <0>         0.1198
     33 H8         -3.2304   -2.9718    0.0630 H         1 <0>         0.1382
     34 H9          2.2634   -2.5266   -0.4266 H         1 <0>         0.1231
     35 H10         2.1915   -0.2252    0.2933 H         1 <0>         0.1204
     36 H11        -3.5505   -3.9882   -3.3853 H         1 <0>         0.0961
     37 H12        -4.3197   -3.9836   -1.7801 H         1 <0>         0.0839
     38 H13        -5.1214   -1.8884   -0.8882 H         1 <0>         0.3941
     39 H14        -8.1589    1.4980   -1.5490 H         1 <0>         0.0584
     40 H15        -7.5506    3.0811   -2.0894 H         1 <0>         0.0624
     41 H16        -7.0049    1.5938   -2.9008 H         1 <0>         0.0917
     42 H17        -5.7082    2.4558    1.0843 H         1 <0>         0.0621
     43 H18        -6.7934    3.5845    0.2377 H         1 <0>         0.0746
     44 H19        -7.4017    2.0014    0.7781 H         1 <0>         0.0646
     45 H20        -4.6277    2.2316   -2.4710 H         1 <0>         0.0902
     46 H21        -5.1734    3.7189   -1.6597 H         1 <0>         0.0633
     47 H22        -4.0882    2.5902   -0.8131 H         1 <0>         0.0537
@<TRIPOS>BOND
     1    1    2 1
     2    1   29 1
     3    1   30 1
     4    1   31 1
     5    2   13 1
     6    2    3 2
     7    3    4 1
     8    3   32 1
     9    4    5 1
    10    4   10 1
    11    4    6 1
    12    6    7 2
    13    6   33 1
    14    7    8 1
    15    7   15 1
    16    8    9 2
    17    8   14 1
    18    9   10 1
    19   10   11 1
    20   10   12 1
    21   12   13 2
    22   12   34 1
    23   13   35 1
    24   15   16 1
    25   15   36 1
    26   15   37 1
    27   16   17 1
    28   16   18 1
    29   16   21 1
    30   18   19 2
    31   18   20 1
    32   21   22 am
    33   21   38 1
    34   22   23 2
    35   22   24 1
    36   24   25 1
    37   25   26 1
    38   25   27 1
    39   25   28 1
    40   26   39 1
    41   26   40 1
    42   26   41 1
    43   27   42 1
    44   27   43 1
    45   27   44 1
    46   28   45 1
    47   28   46 1
    48   28   47 1
@<TRIPOS>MOLECULE
ZINC64474344
   49    50     0     0     0
SMALL
USER_CHARGES

@<TRIPOS>ATOM
      1 C1         -0.0511    1.5022    0.0171 C.3       1 <0>        -0.0763
      2 C2         -0.0209   -0.0045    0.0066 C.ar      1 <0>        -0.1624
      3 C3         -0.7561   -0.7030   -0.9318 C.ar      1 <0>        -0.0686
      4 C4         -0.7308   -2.0841   -0.9451 C.ar      1 <0>        -0.2137
      5 C5          0.0343   -2.7755   -0.0137 C.ar      1 <0>         0.1772
      6 C6          0.7737   -2.0775    0.9299 C.ar      1 <0>        -0.2753
      7 C7          0.7507   -0.6897    0.9370 C.ar      1 <0>         0.2989
      8 N1          1.4979    0.0171    1.8820 N.2       1 <0>        -1.0912
      9 S1          2.4172   -0.8005    2.9905 S.o2      1 <0>         2.5221
     10 O1          1.4802   -1.5287    3.7722 O.2       1 <0>        -1.0330
     11 O2          3.3985   -1.4786    2.2181 O.2       1 <0>        -1.0311
     12 C8          3.1970    0.4934    3.9946 C.3       1 <0>        -0.6369
     13 N2          0.0586   -4.1745   -0.0274 N.am      1 <0>        -0.6633
     14 C9         -0.0400   -4.8388   -1.1959 C.2       1 <0>         0.5100
     15 O3         -0.0534   -4.2261   -2.2426 O.2       1 <0>        -0.4972
     16 C10        -0.1336   -6.3429   -1.2020 C.3       1 <0>         0.0430
     17 O4         -0.2287   -6.8087   -2.5496 O.3       1 <0>        -0.2872
     18 C11        -0.3211   -8.1522   -2.7329 C.ar      1 <0>         0.1357
     19 C12        -0.3260   -9.0042   -1.6379 C.ar      1 <0>        -0.2162
     20 C13        -0.4204  -10.3692   -1.8268 C.ar      1 <0>        -0.0769
     21 C14        -0.5100  -10.8868   -3.1060 C.ar      1 <0>        -0.1558
     22 C15        -0.5049  -10.0400   -4.1987 C.ar      1 <0>        -0.0383
     23 C16        -0.4164   -8.6735   -4.0148 C.ar      1 <0>        -0.1475
     24 C17        -0.6022  -10.6074   -5.5914 C.3       1 <0>        -0.0584
     25 C18         0.5805  -11.5447   -5.8440 C.3       1 <0>        -0.1438
     26 C19        -1.9106  -11.3875   -5.7340 C.3       1 <0>        -0.1436
     27 H1          0.7398    1.8859   -0.6273 H         1 <0>         0.0453
     28 H2         -1.0177    1.8488   -0.3484 H         1 <0>         0.0363
     29 H3          0.1027    1.8616    1.0346 H         1 <0>         0.0706
     30 H4         -1.3522   -0.1681   -1.6564 H         1 <0>         0.1075
     31 H5         -1.3065   -2.6272   -1.6799 H         1 <0>         0.1136
     32 H6          1.3691   -2.6127    1.6548 H         1 <0>         0.1046
     33 H7          2.4253    1.0945    4.4756 H         1 <0>         0.1148
     34 H8          3.8260    0.0326    4.7563 H         1 <0>         0.0996
     35 H9          3.8081    1.1306    3.3554 H         1 <0>         0.1149
     36 H10         0.1464   -4.6662    0.8041 H         1 <0>         0.4057
     37 H11         0.7560   -6.7642   -0.7339 H         1 <0>         0.0936
     38 H12        -1.0184   -6.6541   -0.6467 H         1 <0>         0.0946
     39 H13        -0.2557   -8.6005   -0.6386 H         1 <0>         0.1282
     40 H14        -0.4239  -11.0329   -0.9748 H         1 <0>         0.1241
     41 H15        -0.5838  -11.9544   -3.2517 H         1 <0>         0.1212
     42 H16        -0.4169   -8.0121   -4.8686 H         1 <0>         0.1313
     43 H17        -0.5830   -9.7944   -6.3172 H         1 <0>         0.0800
     44 H18         1.5126  -10.9889   -5.7425 H         1 <0>         0.0571
     45 H19         0.5612  -12.3577   -5.1183 H         1 <0>         0.0569
     46 H20         0.5101  -11.9551   -6.8514 H         1 <0>         0.0581
     47 H21        -2.7532  -10.7198   -5.5541 H         1 <0>         0.0570
     48 H22        -1.9810  -11.7980   -6.7413 H         1 <0>         0.0580
     49 H23        -1.9299  -12.2006   -5.0083 H         1 <0>         0.0569
@<TRIPOS>BOND
     1    1    2 1
     2    1   27 1
     3    1   28 1
     4    1   29 1
     5    2    7 ar
     6    2    3 ar
     7    3    4 ar
     8    3   30 1
     9    4    5 ar
    10    4   31 1
    11    5    6 ar
    12    5   13 1
    13    6    7 ar
    14    6   32 1
    15    7    8 1
    16    8    9 1
    17    9   10 2
    18    9   11 2
    19    9   12 1
    20   12   33 1
    21   12   34 1
    22   12   35 1
    23   13   14 am
    24   13   36 1
    25   14   15 2
    26   14   16 1
    27   16   17 1
    28   16   37 1
    29   16   38 1
    30   17   18 1
    31   18   23 ar
    32   18   19 ar
    33   19   20 ar
    34   19   39 1
    35   20   21 ar
    36   20   40 1
    37   21   22 ar
    38   21   41 1
    39   22   23 ar
    40   22   24 1
    41   23   42 1
    42   24   25 1
    43   24   26 1
    44   24   43 1
    45   25   44 1
    46   25   45 1
    47   25   46 1
    48   26   47 1
    49   26   48 1
    50   26   49 1
@<TRIPOS>MOLECULE
ZINC13200212
   45    47     0     0     0
SMALL
USER_CHARGES
2-[3-[2-[(4-chlorophenyl)amino]-2-oxo-ethyl]sulfanyl-5-(4-methoxyphenyl)-1,2,4-triazol-4-yl]acetic acid
@<TRIPOS>ATOM
      1 C1         -4.2579   -4.6785    0.4108 C.3       1 <0>         0.0247
      2 O1         -4.6483   -3.9389    1.5695 O.3       1 <0>        -0.3176
      3 C2         -3.9871   -2.7768    1.8113 C.ar      1 <0>         0.1346
      4 C3         -4.3176   -2.0099    2.9207 C.ar      1 <0>        -0.1548
      5 C4         -3.6491   -0.8303    3.1695 C.ar      1 <0>        -0.0387
      6 C5         -2.6389   -0.4067    2.3040 C.ar      1 <0>        -0.0479
      7 C6         -2.3138   -1.1775    1.1863 C.ar      1 <0>        -0.0615
      8 C7         -2.9828   -2.3590    0.9480 C.ar      1 <0>        -0.2020
      9 C8         -1.9194    0.8575    2.5670 C.2       1 <0>         0.2359
     10 N1         -2.3187    1.8347    3.3475 N.2       1 <0>        -0.2814
     11 N2         -1.4495    2.7811    3.3452 N.2       1 <0>        -0.3016
     12 C9         -0.4390    2.4642    2.5674 C.2       1 <0>         0.1464
     13 N3         -0.7048    1.2320    2.0405 N.pl3     1 <0>        -0.4165
     14 C10         0.1320    0.4664    1.1132 C.3       1 <0>         0.0412
     15 C11        -0.2314    0.8251   -0.3046 C.2       1 <0>         0.4545
     16 O2         -1.1004    1.6369   -0.5186 O.co2     1 <0>        -0.6062
     17 S1          0.9903    3.4470    2.2581 S.3       1 <0>         0.0896
     18 C12         0.6106    4.8867    3.2873 C.3       1 <0>        -0.1525
     19 C13         1.7281    5.8917    3.1773 C.2       1 <0>         0.5370
     20 O3          2.6869    5.6577    2.4723 O.2       1 <0>        -0.4964
     21 N4          1.6621    7.0506    3.8622 N.am      1 <0>        -0.6697
     22 C14         2.6424    8.0318    3.6737 C.ar      1 <0>         0.1574
     23 C15         3.0205    8.8492    4.7306 C.ar      1 <0>        -0.1342
     24 C16         3.9914    9.8134    4.5432 C.ar      1 <0>        -0.0905
     25 C17         4.5798    9.9722    3.3008 C.ar      1 <0>        -0.0523
     26 C18         4.2010    9.1624    2.2445 C.ar      1 <0>        -0.0874
     27 C19         3.2343    8.1932    2.4280 C.ar      1 <0>        -0.1093
     28 Cl1         5.7956   11.1892    3.0670 Cl        1 <0>        -0.0735
     29 H1         -4.8630   -5.5820    0.3356 H         1 <0>         0.0987
     30 H2         -4.4071   -4.0662   -0.4784 H         1 <0>         0.0580
     31 H3         -3.2057   -4.9516    0.4916 H         1 <0>         0.0571
     32 H4         -5.0993   -2.3382    3.5898 H         1 <0>         0.1360
     33 H5         -3.9068   -0.2343    4.0325 H         1 <0>         0.1420
     34 H6         -1.5362   -0.8509    0.5118 H         1 <0>         0.1417
     35 H7         -2.7286   -2.9583    0.0862 H         1 <0>         0.1344
     36 H8         -0.0315   -0.5996    1.2717 H         1 <0>         0.1086
     37 H9          1.1811    0.7033    1.2904 H         1 <0>         0.1045
     38 H10        -0.3207    5.3403    2.9482 H         1 <0>         0.1316
     39 H11         0.5049    4.5731    4.3259 H         1 <0>         0.1286
     40 H12         0.9352    7.2047    4.4858 H         1 <0>         0.4170
     41 H13         2.5587    8.7284    5.6994 H         1 <0>         0.1366
     42 H14         4.2890   10.4465    5.3660 H         1 <0>         0.1370
     43 H15         4.6620    9.2881    1.2760 H         1 <0>         0.1379
     44 H16         2.9393    7.5612    1.6034 H         1 <0>         0.1470
     45 O4          0.4101    0.2427   -1.3298 O.co2     1 <0>        -0.7440
@<TRIPOS>BOND
     1    1    2 1
     2    1   29 1
     3    1   30 1
     4    1   31 1
     5    2    3 1
     6    3    8 ar
     7    3    4 ar
     8    4    5 ar
     9    4   32 1
    10    5    6 ar
    11    5   33 1
    12    6    7 ar
    13    6    9 1
    14    7    8 ar
    15    7   34 1
    16    8   35 1
    17    9   13 1
    18    9   10 2
    19   10   11 1
    20   11   12 2
    21   12   13 1
    22   12   17 1
    23   13   14 1
    24   14   15 1
    25   14   36 1
    26   14   37 1
    27   15   16 2
    28   15   45 1
    29   17   18 1
    30   18   19 1
    31   18   38 1
    32   18   39 1
    33   19   20 2
    34   19   21 am
    35   21   22 1
    36   21   40 1
    37   22   27 ar
    38   22   23 ar
    39   23   24 ar
    40   23   41 1
    41   24   25 ar
    42   24   42 1
    43   25   26 ar
    44   25   28 1
    45   26   27 ar
    46   26   43 1
    47   27   44 1
@<TRIPOS>MOLECULE
ZINC19638961
   53    56     0     0     0
SMALL
USER_CHARGES
methyl (4S,7S)-4-(4-hydroxy-3-nitro-phenyl)-2-methyl-5-oxo-7-phenyl-4,6,7,8-tetrahydro-1H-quinoline-3-carboxylate
@<TRIPOS>ATOM
      1 C1          7.4627    1.6869    2.5580 C.3       1 <0>        -0.2259
      2 C2          6.4910    2.6367    1.9062 C.2       1 <0>         0.2408
      3 C3          6.0744    2.4075    0.6501 C.2       1 <0>        -0.2544
      4 C4          5.1014    3.3262   -0.0288 C.3       1 <0>         0.0999
      5 H1          5.4429    3.4891   -1.0617 H         1 <0>         0.0839
      6 C5          5.0355    4.6583    0.6751 C.2       1 <0>        -0.2531
      7 C6          5.4931    4.7941    1.9378 C.2       1 <0>         0.1954
      8 N1          6.0391    3.7258    2.5976 N.pl3     1 <0>        -0.6454
      9 C7          5.4193    6.1206    2.6526 C.3       1 <0>        -0.0850
     10 C8          5.5333    7.2590    1.6363 C.3       1 <0>        -0.0355
     11 H2          6.5123    7.2304    1.1355 H         1 <0>         0.0906
     12 C9          4.4017    7.1128    0.6136 C.3       1 <0>        -0.1598
     13 C10         4.4871    5.7508   -0.0193 C.2       1 <0>         0.3986
     14 O1          4.0750    5.5921   -1.1513 O.2       1 <0>        -0.4524
     15 C11         5.4083    8.5837    2.3439 C.ar      1 <0>        -0.0774
     16 C12         4.2651    8.8780    3.0631 C.ar      1 <0>        -0.1130
     17 C13         4.1523   10.0914    3.7157 C.ar      1 <0>        -0.1172
     18 C14         5.1787   11.0143    3.6412 C.ar      1 <0>        -0.1230
     19 C15         6.3200   10.7219    2.9180 C.ar      1 <0>        -0.1191
     20 C16         6.4346    9.5068    2.2690 C.ar      1 <0>        -0.1130
     21 C17         3.7339    2.6932   -0.0191 C.ar      1 <0>        -0.2007
     22 C18         3.1186    2.3975    1.1835 C.ar      1 <0>        -0.0241
     23 C19         1.8628    1.8225    1.1951 C.ar      1 <0>        -0.2498
     24 C20         1.2228    1.5324   -0.0014 C.ar      1 <0>         0.3097
     25 C21         1.8421    1.8300   -1.2064 C.ar      1 <0>        -0.1999
     26 C22         3.0963    2.4096   -1.2125 C.ar      1 <0>         0.0250
     27 N2          1.1597    1.5275   -2.4844 N.pl3     1 <0>         0.0703
     28 O2          1.7039    1.7891   -3.5422 O.2       1 <0>        -0.2666
     29 O3          0.0538    1.0170   -2.4783 O.3       1 <0>        -0.1746
     30 O4         -0.0110    0.9628    0.0073 O.3       1 <0>        -0.6535
     31 C23         6.5628    1.2771   -0.0459 C.2       1 <0>         0.5352
     32 O5          7.3522    0.5246    0.4938 O.2       1 <0>        -0.5235
     33 O6          6.1533    1.0332   -1.3084 O.3       1 <0>        -0.3326
     34 C24         6.6871   -0.1261   -1.9510 C.3       1 <0>         0.0319
     35 H3          7.7116    0.8778    1.8556 H         1 <0>         0.1889
     36 H4          7.0064    1.2594    3.4630 H         1 <0>         0.0711
     37 H5          8.3793    2.2303    2.8311 H         1 <0>         0.0707
     38 H6          6.1122    3.7498    3.6949 H         1 <0>         0.4396
     39 H7          4.4584    6.1987    3.1824 H         1 <0>         0.0988
     40 H8          6.2442    6.1933    3.3767 H         1 <0>         0.0898
     41 H9          3.4322    7.2262    1.1208 H         1 <0>         0.1016
     42 H10         4.5039    7.8884   -0.1597 H         1 <0>         0.0970
     43 H11         3.4614    8.1586    3.1179 H         1 <0>         0.1242
     44 H12         3.2608   10.3197    4.2809 H         1 <0>         0.1221
     45 H13         5.0892   11.9637    4.1483 H         1 <0>         0.1200
     46 H14         7.1219   11.4430    2.8598 H         1 <0>         0.1210
     47 H15         7.3261    9.2785    1.7037 H         1 <0>         0.1223
     48 H16         3.6187    2.6200    2.1145 H         1 <0>         0.0975
     49 H17         1.3808    1.5958    2.1346 H         1 <0>         0.1121
     50 H18         3.5789    2.6415   -2.1505 H         1 <0>         0.1216
     51 H19         6.2735   -0.2052   -2.9672 H         1 <0>         0.1020
     52 H20         6.4162   -1.0226   -1.3740 H         1 <0>         0.0598
     53 H21         7.7825   -0.0429   -2.0065 H         1 <0>         0.0578
@<TRIPOS>BOND
     1    1    2 1
     2    1   35 1
     3    1   36 1
     4    1   37 1
     5    2    8 1
     6    2    3 2
     7    3    4 1
     8    3   31 1
     9    4    5 1
    10    4    6 1
    11    4   21 1
    12    6   13 1
    13    6    7 2
    14    7    8 1
    15    7    9 1
    16    8   38 1
    17    9   10 1
    18    9   39 1
    19    9   40 1
    20   10   11 1
    21   10   12 1
    22   10   15 1
    23   12   13 1
    24   12   41 1
    25   12   42 1
    26   13   14 2
    27   15   20 ar
    28   15   16 ar
    29   16   17 ar
    30   16   43 1
    31   17   18 ar
    32   17   44 1
    33   18   19 ar
    34   18   45 1
    35   19   20 ar
    36   19   46 1
    37   20   47 1
    38   21   26 ar
    39   21   22 ar
    40   22   23 ar
    41   22   48 1
    42   23   24 ar
    43   23   49 1
    44   24   25 ar
    45   24   30 1
    46   25   26 ar
    47   25   27 1
    48   26   50 1
    49   27   28 2
    50   27   29 1
    51   31   32 2
    52   31   33 1
    53   33   34 1
    54   34   51 1
    55   34   52 1
    56   34   53 1
@<TRIPOS>MOLECULE
ZINC12735080
   48    50     0     0     0
SMALL
USER_CHARGES

@<TRIPOS>ATOM
      1 C1          1.3788   -2.5762   -0.4002 C.3       1 <0>        -0.1979
      2 C2          0.3433   -1.8871   -1.2911 C.3       1 <0>         0.1737
      3 C3          0.5644   -2.3043   -2.7465 C.3       1 <0>        -0.1814
      4 C4         -1.0630   -2.2985   -0.8507 C.3       1 <0>        -0.1507
      5 N1          0.4866   -0.4340   -1.1725 N.pl3     1 <0>        -1.1023
      6 S1          1.9691    0.2721   -1.3872 S.o2      1 <0>         2.6943
      7 O1          2.5329   -0.3135   -2.5527 O.2       1 <0>        -0.9345
      8 O2          1.7741    1.6736   -1.2569 O.2       1 <0>        -0.9429
      9 C5          2.9829   -0.2233   -0.0338 C.ar      1 <0>        -0.6550
     10 C6          2.8715    0.4225    1.1843 C.ar      1 <0>         0.0227
     11 C7          3.6640    0.0366    2.2470 C.ar      1 <0>        -0.0702
     12 C8          4.5743   -1.0018    2.0917 C.ar      1 <0>        -0.0420
     13 C9          4.6835   -1.6482    0.8669 C.ar      1 <0>        -0.0187
     14 C10         3.8839   -1.2605   -0.1904 C.ar      1 <0>         0.0417
     15 N2          5.6518   -2.7549    0.6967 N.pl3     1 <0>         0.0311
     16 O3          5.7462   -3.3170   -0.3695 O.2       1 <0>        -0.1447
     17 O4          6.3481   -3.0968    1.6240 O.3       1 <0>        -0.1332
     18 S2          5.5881   -1.4972    3.4451 S.3       1 <0>         0.1744
     19 C11         7.1731   -0.8333    3.0557 C.2       1 <0>         0.2537
     20 N3          7.4548   -0.0548    2.0342 N.2       1 <0>        -0.5325
     21 H1          8.4107   -1.5595    4.5651 H         1 <0>         0.4491
     22 C12         8.7584    0.2580    2.0518 C.2       1 <0>         0.2833
     23 N4          9.3208   -0.3207    3.0886 N.2       1 <0>        -0.2848
     24 N5          8.3110   -1.0303    3.7582 N.pl3     1 <0>        -0.4504
     25 C13         9.4529    1.1177    1.0615 C.ar      1 <0>        -0.0216
     26 C14         8.7417    1.6808    0.0038 C.ar      1 <0>        -0.0765
     27 C15         9.3927    2.4796   -0.9144 C.ar      1 <0>        -0.1236
     28 C16        10.7486    2.7211   -0.7863 C.ar      1 <0>        -0.1001
     29 C17        11.4596    2.1643    0.2614 C.ar      1 <0>        -0.1225
     30 C18        10.8174    1.3694    1.1891 C.ar      1 <0>        -0.0815
     31 H2          2.3737   -2.4331   -0.8219 H         1 <0>         0.0634
     32 H3          1.3425   -2.1442    0.5999 H         1 <0>         0.0678
     33 H4          1.1579   -3.6420   -0.3438 H         1 <0>         0.0889
     34 H5          0.2674   -3.3452   -2.8752 H         1 <0>         0.0720
     35 H6         -0.0354   -1.6718   -3.4009 H         1 <0>         0.0676
     36 H7          1.6186   -2.1932   -3.0001 H         1 <0>         0.0860
     37 H8         -1.2205   -2.0013    0.1861 H         1 <0>         0.0644
     38 H9         -1.8007   -1.8077   -1.4854 H         1 <0>         0.0682
     39 H10        -1.1696   -3.3797   -0.9389 H         1 <0>         0.0759
     40 H11        -0.2869    0.1146   -0.9683 H         1 <0>         0.4230
     41 H12         2.1641    1.2297    1.3042 H         1 <0>         0.1669
     42 H13         3.5768    0.5415    3.1977 H         1 <0>         0.1696
     43 H14         3.9653   -1.7653   -1.1417 H         1 <0>         0.1796
     44 H15         7.6831    1.4923   -0.0975 H         1 <0>         0.1289
     45 H16         8.8424    2.9166   -1.7345 H         1 <0>         0.1298
     46 H17        11.2541    3.3465   -1.5073 H         1 <0>         0.1281
     47 H18        12.5183    2.3555    0.3562 H         1 <0>         0.1305
     48 H19        11.3724    0.9393    2.0097 H         1 <0>         0.1319
@<TRIPOS>BOND
     1    1    2 1
     2    1   31 1
     3    1   32 1
     4    1   33 1
     5    2    3 1
     6    2    4 1
     7    2    5 1
     8    3   34 1
     9    3   35 1
    10    3   36 1
    11    4   37 1
    12    4   38 1
    13    4   39 1
    14    5    6 1
    15    5   40 1
    16    6    7 2
    17    6    8 2
    18    6    9 1
    19    9   14 ar
    20    9   10 ar
    21   10   11 ar
    22   10   41 1
    23   11   12 ar
    24   11   42 1
    25   12   13 ar
    26   12   18 1
    27   13   14 ar
    28   13   15 1
    29   14   43 1
    30   15   16 2
    31   15   17 1
    32   18   19 1
    33   19   20 2
    34   19   24 1
    35   20   22 1
    36   21   24 1
    37   22   25 1
    38   22   23 2
    39   23   24 1
    40   25   30 ar
    41   25   26 ar
    42   26   27 ar
    43   26   44 1
    44   27   28 ar
    45   27   45 1
    46   28   29 ar
    47   28   46 1
    48   29   30 ar
    49   29   47 1
    50   30   48 1
@<TRIPOS>MOLECULE
ZINC07942704
   42    44     0     0     0
SMALL
USER_CHARGES

@<TRIPOS>ATOM
      1 C1         -0.1281    1.4729    0.3888 C.3       1 <0>         0.0273
      2 O1         -0.0812    0.0505    0.2595 O.3       1 <0>        -0.3287
      3 C2         -1.2597   -0.6029    0.2597 C.2       1 <0>         0.4714
      4 O2         -2.2981    0.0177    0.3666 O.2       1 <0>        -0.5062
      5 C3         -1.2885   -2.0753    0.1298 C.2       1 <0>         0.3197
      6 O3         -0.1341   -2.7629   -0.0365 O.3       1 <0>        -0.5746
      7 C4         -2.4705   -2.7367    0.1771 C.2       1 <0>        -0.4190
      8 C5         -2.5317   -4.2084    0.2250 C.2       1 <0>         0.3895
      9 N1         -3.6137   -4.7996   -0.2606 N.2       1 <0>        -0.5644
     10 C6         -4.6290   -4.0944   -0.7623 C.2       1 <0>         0.5537
     11 S1         -5.8595   -4.9342   -1.6058 S.2       1 <0>        -0.6642
     12 N2         -4.7380   -2.7635   -0.6411 N.pl3     1 <0>        -0.6788
     13 C7         -3.7947   -1.9991    0.1899 C.3       1 <0>         0.2206
     14 H1         -3.6644   -0.9993   -0.2241 H         1 <0>         0.1409
     15 C8         -4.3126   -1.9044    1.6020 C.ar      1 <0>        -0.0277
     16 C9         -4.9484   -2.9877    2.1791 C.ar      1 <0>        -0.1075
     17 C10        -5.4235   -2.9009    3.4743 C.ar      1 <0>        -0.0514
     18 C11        -5.2623   -1.7308    4.1926 C.ar      1 <0>        -0.0578
     19 C12        -4.6256   -0.6478    3.6159 C.ar      1 <0>        -0.0586
     20 C13        -4.1468   -0.7362    2.3221 C.ar      1 <0>        -0.1041
     21 N3         -5.7718   -1.6375    5.5792 N.pl3     1 <0>         0.0395
     22 O4         -6.3289   -2.5845    6.0836 O.2       1 <0>        -0.1660
     23 O5         -5.6308   -0.6142    6.2075 O.3       1 <0>        -0.1683
     24 C14        -1.4214   -4.9997    0.7959 C.ar      1 <0>        -0.0465
     25 C15        -0.6577   -4.4821    1.8447 C.ar      1 <0>        -0.0336
     26 C16         0.3768   -5.2259    2.3726 C.ar      1 <0>        -0.1367
     27 C17         0.6588   -6.4824    1.8656 C.ar      1 <0>        -0.1016
     28 C18        -0.0938   -7.0015    0.8266 C.ar      1 <0>        -0.1392
     29 C19        -1.1348   -6.2710    0.2930 C.ar      1 <0>        -0.0653
     30 H2          0.8859    1.8727    0.3741 H         1 <0>         0.0992
     31 H3         -0.6969    1.8945   -0.4400 H         1 <0>         0.0590
     32 H4         -0.6090    1.7365    1.3307 H         1 <0>         0.0591
     33 H5         -5.0744   -3.9018    1.6179 H         1 <0>         0.1392
     34 H6         -5.9209   -3.7470    3.9250 H         1 <0>         0.1504
     35 H7         -4.5000    0.2664    4.1769 H         1 <0>         0.1503
     36 H8         -3.6461    0.1087    1.8727 H         1 <0>         0.1616
     37 H9         -0.8765   -3.5015    2.2410 H         1 <0>         0.1160
     38 H10         0.9683   -4.8268    3.1832 H         1 <0>         0.1198
     39 H11         1.4703   -7.0605    2.2826 H         1 <0>         0.1181
     40 H12         0.1318   -7.9827    0.4358 H         1 <0>         0.1216
     41 H13        -1.7244   -6.6792   -0.5145 H         1 <0>         0.1302
     42 H14        -5.4511   -2.2986   -1.1060 H         1 <0>         0.4131
@<TRIPOS>BOND
     1    1    2 1
     2    1   30 1
     3    1   31 1
     4    1   32 1
     5    2    3 1
     6    3    4 2
     7    3    5 1
     8    5    6 1
     9    5    7 2
    10    7   13 1
    11    7    8 1
    12    8    9 2
    13    8   24 1
    14    9   10 1
    15   10   11 2
    16   10   12 1
    17   12   13 1
    18   12   42 1
    19   13   14 1
    20   13   15 1
    21   15   20 ar
    22   15   16 ar
    23   16   17 ar
    24   16   33 1
    25   17   18 ar
    26   17   34 1
    27   18   19 ar
    28   18   21 1
    29   19   20 ar
    30   19   35 1
    31   20   36 1
    32   21   22 2
    33   21   23 1
    34   24   29 ar
    35   24   25 ar
    36   25   26 ar
    37   25   37 1
    38   26   27 ar
    39   26   38 1
    40   27   28 ar
    41   27   39 1
    42   28   29 ar
    43   28   40 1
    44   29   41 1
@<TRIPOS>MOLECULE
ZINC05309616
   33    35     0     0     0
SMALL
USER_CHARGES

@<TRIPOS>ATOM
      1 C1         -0.0302    1.4648    0.0245 C.ar      1 <0>        -0.1323
      2 C2          1.0790    2.0065   -0.5988 C.ar      1 <0>        -0.0214
      3 C3          2.2719    1.3110   -0.6162 C.ar      1 <0>        -0.0847
      4 C4          2.3577    0.0659   -0.0064 C.ar      1 <0>         0.2473
      5 C5          1.2431   -0.4760    0.6193 C.ar      1 <0>        -0.1231
      6 C6          0.0514    0.2247    0.6331 C.ar      1 <0>         0.0344
      7 Cl1        -1.3435   -0.4516    1.4145 Cl        1 <0>        -0.0319
      8 N1          3.5651   -0.6410   -0.0230 N.am      1 <0>        -0.6668
      9 C7          3.5575   -1.9857   -0.1133 C.2       1 <0>         0.5424
     10 O1          2.5110   -2.5767   -0.2761 O.2       1 <0>        -0.4927
     11 C8          4.8494   -2.7550   -0.0118 C.3       1 <0>        -0.1449
     12 S1          4.5101   -4.5300   -0.1698 S.3       1 <0>         0.0443
     13 C9          6.0980   -5.2814   -0.0322 C.2       1 <0>         0.1897
     14 N2          7.2253   -4.6344    0.1444 N.2       1 <0>        -0.5644
     15 C10         8.2548   -5.5157    0.2073 C.ar      1 <0>         0.2056
     16 C11         7.7037   -6.8011    0.0562 C.ar      1 <0>        -0.0203
     17 N3          6.3380   -6.6248   -0.0876 N.2       1 <0>        -0.5513
     18 C12         8.5377   -7.9081    0.0809 C.ar      1 <0>        -0.0377
     19 C13         9.8985   -7.7007    0.2557 C.ar      1 <0>        -0.1185
     20 C14        10.3772   -6.4089    0.3986 C.ar      1 <0>         0.0955
     21 N4          9.5675   -5.3708    0.3726 N.ar      1 <0>        -0.4537
     22 Cl2        10.9915   -9.0488    0.2955 Cl        1 <0>        -0.0951
     23 N5          3.4580    1.8916   -1.2846 N.pl3     1 <0>         0.0448
     24 O2          3.3606    2.9323   -1.8921 O.2       1 <0>        -0.1448
     25 O3          4.5244    1.3252   -1.2230 O.3       1 <0>        -0.1714
     26 H1         -0.9608    2.0127    0.0403 H         1 <0>         0.1590
     27 H2          1.0121    2.9746   -1.0729 H         1 <0>         0.1669
     28 H3          1.3067   -1.4440    1.0939 H         1 <0>         0.1700
     29 H4          4.4076   -0.1632    0.0303 H         1 <0>         0.4326
     30 H5          5.5227   -2.4414   -0.8096 H         1 <0>         0.1274
     31 H6          5.3144   -2.5586    0.9543 H         1 <0>         0.1262
     32 H7          8.1390   -8.9054   -0.0326 H         1 <0>         0.1216
     33 H8         11.4367   -6.2497    0.5346 H         1 <0>         0.1473
@<TRIPOS>BOND
     1    1    6 ar
     2    1    2 ar
     3    1   26 1
     4    2    3 ar
     5    2   27 1
     6    3    4 ar
     7    3   23 1
     8    4    5 ar
     9    4    8 1
    10    5    6 ar
    11    5   28 1
    12    6    7 1
    13    8    9 am
    14    8   29 1
    15    9   10 2
    16    9   11 1
    17   11   12 1
    18   11   30 1
    19   11   31 1
    20   12   13 1
    21   13   14 2
    22   13   17 1
    23   14   15 1
    24   15   21 ar
    25   15   16 ar
    26   16   18 ar
    27   16   17 1
    28   18   19 ar
    29   18   32 1
    30   19   20 ar
    31   19   22 1
    32   20   21 ar
    33   20   33 1
    34   23   24 2
    35   23   25 1
@<TRIPOS>MOLECULE
ZINC13054200
   37    38     0     0     0
SMALL
USER_CHARGES
4-[(1S)-2-[(2-chloro-4-fluoro-phenyl)amino]-1-methyl-2-oxo-ethoxy]-3-nitro-benzoic acid
@<TRIPOS>ATOM
      1 C1          0.0491    1.3772    0.0331 C.3       1 <0>        -0.1790
      2 C2          0.1134   -0.1506   -0.0174 C.3       1 <0>         0.0610
      3 H1         -0.8960   -0.5586    0.0342 H         1 <0>         0.1111
      4 C3          0.7652   -0.5836   -1.3053 C.2       1 <0>         0.5216
      5 O1          1.8315   -1.1611   -1.2812 O.2       1 <0>        -0.4725
      6 N1          0.1631   -0.3292   -2.4840 N.am      1 <0>        -0.6659
      7 C4          0.7077   -0.8337   -3.6719 C.ar      1 <0>         0.1584
      8 C5          1.5093   -1.9669   -3.6430 C.ar      1 <0>        -0.0919
      9 C6          2.0454   -2.4628   -4.8153 C.ar      1 <0>        -0.1209
     10 C7          1.7842   -1.8308   -6.0196 C.ar      1 <0>         0.0924
     11 C8          0.9852   -0.7006   -6.0516 C.ar      1 <0>        -0.1235
     12 C9          0.4418   -0.2041   -4.8816 C.ar      1 <0>        -0.0448
     13 Cl1        -0.5659    1.2089   -4.9226 Cl        1 <0>        -0.0507
     14 F1          2.3102   -2.3177   -7.1648 F         1 <0>        -0.1325
     15 O2          0.8789   -0.6319    1.0892 O.3       1 <0>        -0.2544
     16 C10         0.2237   -0.7979    2.2658 C.ar      1 <0>         0.1851
     17 C11        -1.1509   -0.5982    2.3280 C.ar      1 <0>        -0.2331
     18 C12        -1.8203   -0.7710    3.5184 C.ar      1 <0>         0.0148
     19 C13        -1.1143   -1.1371    4.6684 C.ar      1 <0>        -0.1422
     20 C14         0.2683   -1.3312    4.6027 C.ar      1 <0>         0.0107
     21 C15         0.9294   -1.1614    3.4068 C.ar      1 <0>        -0.0857
     22 N2          2.3936   -1.3667    3.3360 N.pl3     1 <0>         0.0387
     23 O3          3.0128   -1.6853    4.3353 O.2       1 <0>        -0.1852
     24 O4          2.9791   -1.2171    2.2785 O.3       1 <0>        -0.1410
     25 C16        -1.8264   -1.3174    5.9471 C.2       1 <0>         0.4942
     26 O5         -1.2111   -1.6352    6.9455 O.co2     1 <0>        -0.6179
     27 H2          1.0585    1.7853   -0.0184 H         1 <0>         0.0812
     28 H3         -0.5348    1.7444   -0.8109 H         1 <0>         0.0810
     29 H4         -0.4223    1.6905    0.9647 H         1 <0>         0.0844
     30 H5         -0.6473    0.2032   -2.5097 H         1 <0>         0.4157
     31 H6          1.7132   -2.4605   -2.7043 H         1 <0>         0.1670
     32 H7          2.6687   -3.3445   -4.7928 H         1 <0>         0.1484
     33 H8          0.7827   -0.2092   -6.9918 H         1 <0>         0.1507
     34 H9         -1.6948   -0.3112    1.4402 H         1 <0>         0.1477
     35 H10        -2.8887   -0.6201    3.5649 H         1 <0>         0.1555
     36 H11         0.8174   -1.6137    5.4887 H         1 <0>         0.1658
     37 O6         -3.1593   -1.1298    6.0083 O.co2     1 <0>        -0.7442
@<TRIPOS>BOND
     1    1    2 1
     2    1   27 1
     3    1   28 1
     4    1   29 1
     5    2    3 1
     6    2    4 1
     7    2   15 1
     8    4    5 2
     9    4    6 am
    10    6    7 1
    11    6   30 1
    12    7   12 ar
    13    7    8 ar
    14    8    9 ar
    15    8   31 1
    16    9   10 ar
    17    9   32 1
    18   10   11 ar
    19   10   14 1
    20   11   12 ar
    21   11   33 1
    22   12   13 1
    23   15   16 1
    24   16   21 ar
    25   16   17 ar
    26   17   18 ar
    27   17   34 1
    28   18   19 ar
    29   18   35 1
    30   19   20 ar
    31   19   25 1
    32   20   21 ar
    33   20   36 1
    34   21   22 1
    35   22   23 2
    36   22   24 1
    37   25   26 2
    38   25   37 1
@<TRIPOS>MOLECULE
ZINC13278957
   38    39     0     0     0
SMALL
USER_CHARGES
4-[(3-chloro-4-methyl-5-nitro-phenyl)sulfonylamino]-3-methylsulfanyl-benzoic acid
@<TRIPOS>ATOM
      1 C1          1.1633    5.3889    4.6957 C.3       1 <0>        -0.1402
      2 C2          1.3623    4.5223    3.4789 C.ar      1 <0>         0.0392
      3 C3          1.0494    5.0103    2.2239 C.ar      1 <0>        -0.0480
      4 C4          1.2364    4.2174    1.1074 C.ar      1 <0>         0.0564
      5 C5          1.7264    2.9319    1.2459 C.ar      1 <0>        -0.6720
      6 C6          2.0396    2.4429    2.4999 C.ar      1 <0>         0.0417
      7 C7          1.8576    3.2382    3.6176 C.ar      1 <0>        -0.0628
      8 Cl1         2.2512    2.6248    5.1932 Cl        1 <0>        -0.0248
      9 S1          1.9587    1.9196   -0.1774 S.o2      1 <0>         2.6981
     10 O1          2.9461    0.9570    0.1655 O.2       1 <0>        -0.9411
     11 O2          2.1050    2.8005   -1.2828 O.2       1 <0>        -0.9309
     12 N1          0.5488    1.0855   -0.4204 N.pl3     1 <0>        -1.0373
     13 C8         -0.6378    1.7766   -0.6541 C.ar      1 <0>         0.1510
     14 C9         -0.6204    2.9567   -1.3880 C.ar      1 <0>        -0.1780
     15 C10        -1.7913    3.6434   -1.6222 C.ar      1 <0>        -0.0437
     16 C11        -3.0019    3.1545   -1.1221 C.ar      1 <0>        -0.0978
     17 C12        -3.0223    1.9672   -0.3833 C.ar      1 <0>        -0.0753
     18 C13        -1.8454    1.2790   -0.1549 C.ar      1 <0>        -0.1137
     19 S2         -1.8662   -0.2212    0.7691 S.3       1 <0>        -0.1399
     20 C14        -3.6152   -0.4522    1.1915 C.3       1 <0>        -0.1367
     21 C15        -4.2547    3.8894   -1.3728 C.2       1 <0>         0.4891
     22 O3         -5.3064    3.4636   -0.9377 O.co2     1 <0>        -0.6309
     23 N2          0.5199    6.3844    2.0753 N.pl3     1 <0>         0.0204
     24 O4         -0.3359    6.6204    1.2414 O.2       1 <0>        -0.1196
     25 O5          0.9400    7.2792    2.7869 O.3       1 <0>        -0.1448
     26 H1          2.0255    6.0441    4.8200 H         1 <0>         0.1092
     27 H2          0.2641    5.9917    4.5693 H         1 <0>         0.0875
     28 H3          1.0565    4.7576    5.5778 H         1 <0>         0.0914
     29 H4          0.9960    4.6006    0.1267 H         1 <0>         0.1739
     30 H5          2.4266    1.4404    2.6076 H         1 <0>         0.1700
     31 H6          0.5500    0.1157   -0.4038 H         1 <0>         0.4291
     32 H7          0.3134    3.3360   -1.7760 H         1 <0>         0.1605
     33 H8         -1.7742    4.5601   -2.1930 H         1 <0>         0.1468
     34 H9         -3.9558    1.5867    0.0041 H         1 <0>         0.1360
     35 H10        -3.9621    0.3973    1.7797 H         1 <0>         0.0865
     36 H11        -4.2033   -0.5252    0.2767 H         1 <0>         0.0878
     37 H12        -3.7309   -1.3675    1.7718 H         1 <0>         0.1060
     38 O6         -4.2338    5.0336   -2.0845 O.co2     1 <0>        -0.7428
@<TRIPOS>BOND
     1    1    2 1
     2    1   26 1
     3    1   27 1
     4    1   28 1
     5    2    7 ar
     6    2    3 ar
     7    3    4 ar
     8    3   23 1
     9    4    5 ar
    10    4   29 1
    11    5    6 ar
    12    5    9 1
    13    6    7 ar
    14    6   30 1
    15    7    8 1
    16    9   10 2
    17    9   11 2
    18    9   12 1
    19   12   13 1
    20   12   31 1
    21   13   18 ar
    22   13   14 ar
    23   14   15 ar
    24   14   32 1
    25   15   16 ar
    26   15   33 1
    27   16   17 ar
    28   16   21 1
    29   17   18 ar
    30   17   34 1
    31   18   19 1
    32   19   20 1
    33   20   35 1
    34   20   36 1
    35   20   37 1
    36   21   22 2
    37   21   38 1
    38   23   24 2
    39   23   25 1
@<TRIPOS>MOLECULE
ZINC34764819
   56    58     0     0     0
SMALL
USER_CHARGES

@<TRIPOS>ATOM
      1 C1         -0.0187    1.5258    0.0104 C.3       1 <0>        -0.1517
      2 C2          0.0021   -0.0041    0.0020 C.3       1 <0>         0.0552
      3 O1          0.6932   -0.4774    1.1597 O.3       1 <0>        -0.3163
      4 C3          0.8020   -1.8243    1.3057 C.ar      1 <0>         0.1125
      5 C4          0.2589   -2.6721    0.3498 C.ar      1 <0>        -0.2029
      6 C5          0.3670   -4.0424    0.4940 C.ar      1 <0>        -0.0952
      7 C6          1.0158   -4.5760    1.5895 C.ar      1 <0>        -0.1094
      8 C7          1.5643   -3.7320    2.5536 C.ar      1 <0>         0.0193
      9 C8          1.4596   -2.3507    2.4050 C.ar      1 <0>        -0.1085
     10 C9          2.2614   -4.3026    3.7318 C.ar      1 <0>         0.3133
     11 N1          2.7757   -3.4899    4.6472 N.ar      1 <0>        -0.3807
     12 N2          3.3871   -3.9477    5.6830 N.ar      1 <0>        -0.1966
     13 C10         3.5200   -5.2489    5.8637 C.ar      1 <0>        -0.0723
     14 C11         2.9886   -6.1261    4.9164 C.ar      1 <0>         0.4157
     15 O2          3.1082   -7.4671    5.0726 O.3       1 <0>        -0.6697
     16 N3          2.3594   -5.6208    3.8618 N.ar      1 <0>        -0.5780
     17 C12         4.2371   -5.7809    7.0777 C.3       1 <0>        -0.0139
     18 C13         3.2329   -5.9876    8.2134 C.3       1 <0>        -0.1270
     19 C14         3.9500   -6.5195    9.4274 C.2       1 <0>         0.5200
     20 O3          5.1465   -6.7141    9.3881 O.2       1 <0>        -0.5391
     21 N4          3.2618   -6.7790   10.5567 N.am      1 <0>        -0.7378
     22 C15         3.9589   -7.2961   11.7369 C.3       1 <0>         0.1281
     23 C16         2.9547   -7.5028   12.8726 C.3       1 <0>        -0.0828
     24 C17         3.6718   -8.0347   14.0866 C.ar      1 <0>        -0.1112
     25 C18         3.7220   -9.3958   14.3189 C.ar      1 <0>        -0.0755
     26 C19         4.3792   -9.8844   15.4327 C.ar      1 <0>        -0.1563
     27 C20         4.9884   -9.0127   16.3167 C.ar      1 <0>        -0.0834
     28 C21         4.9415   -7.6513   16.0887 C.ar      1 <0>        -0.2086
     29 C22         4.2870   -7.1587   14.9688 C.ar      1 <0>         0.1328
     30 O4          4.2442   -5.8199   14.7393 O.3       1 <0>        -0.3111
     31 C23         4.8993   -4.9775   15.6897 C.3       1 <0>         0.0271
     32 H1          1.0039    1.9031    0.0027 H         1 <0>         0.0656
     33 H2         -0.5459    1.8868   -0.8726 H         1 <0>         0.0745
     34 H3         -0.5289    1.8773    0.9072 H         1 <0>         0.0656
     35 H4         -1.0205   -0.3814    0.0098 H         1 <0>         0.0590
     36 H5          0.5123   -0.3556   -0.8948 H         1 <0>         0.0590
     37 H6         -0.2500   -2.2596   -0.5089 H         1 <0>         0.1228
     38 H7         -0.0575   -4.6976   -0.2523 H         1 <0>         0.1246
     39 H8          1.0981   -5.6472    1.6997 H         1 <0>         0.1394
     40 H9          1.8864   -1.6923    3.1471 H         1 <0>         0.1445
     41 H10         4.7096   -6.7321    6.8328 H         1 <0>         0.0855
     42 H11         4.9987   -5.0671    7.3916 H         1 <0>         0.0713
     43 H12         2.7604   -5.0363    8.4582 H         1 <0>         0.0898
     44 H13         2.4713   -6.7014    7.8995 H         1 <0>         0.0949
     45 H14         2.3049   -6.6233   10.5881 H         1 <0>         0.3996
     46 H15         4.4314   -8.2474   11.4920 H         1 <0>         0.0646
     47 H16         4.7205   -6.5823   12.0508 H         1 <0>         0.0673
     48 H17         2.4822   -6.5515   13.1175 H         1 <0>         0.0825
     49 H18         2.1931   -8.2166   12.5587 H         1 <0>         0.0783
     50 H19         3.2470  -10.0786   13.6300 H         1 <0>         0.1306
     51 H20         4.4167  -10.9486   15.6129 H         1 <0>         0.1239
     52 H21         5.5009   -9.3969   17.1862 H         1 <0>         0.1232
     53 H22         5.4174   -6.9709   16.7794 H         1 <0>         0.1273
     54 H23         4.4502   -5.1207   16.6725 H         1 <0>         0.0539
     55 H24         5.9579   -5.2336   15.7332 H         1 <0>         0.0555
     56 H25         4.7896   -3.9358   15.3883 H         1 <0>         0.1009
@<TRIPOS>BOND
     1    1    2 1
     2    1   32 1
     3    1   33 1
     4    1   34 1
     5    2    3 1
     6    2   35 1
     7    2   36 1
     8    3    4 1
     9    4    9 ar
    10    4    5 ar
    11    5    6 ar
    12    5   37 1
    13    6    7 ar
    14    6   38 1
    15    7    8 ar
    16    7   39 1
    17    8    9 ar
    18    8   10 1
    19    9   40 1
    20   10   16 ar
    21   10   11 ar
    22   11   12 ar
    23   12   13 ar
    24   13   14 ar
    25   13   17 1
    26   14   15 1
    27   14   16 ar
    28   17   18 1
    29   17   41 1
    30   17   42 1
    31   18   19 1
    32   18   43 1
    33   18   44 1
    34   19   20 2
    35   19   21 am
    36   21   22 1
    37   21   45 1
    38   22   23 1
    39   22   46 1
    40   22   47 1
    41   23   24 1
    42   23   48 1
    43   23   49 1
    44   24   29 ar
    45   24   25 ar
    46   25   26 ar
    47   25   50 1
    48   26   27 ar
    49   26   51 1
    50   27   28 ar
    51   27   52 1
    52   28   29 ar
    53   28   53 1
    54   29   30 1
    55   30   31 1
    56   31   54 1
    57   31   55 1
    58   31   56 1
@<TRIPOS>MOLECULE
ZINC45967650
   51    53     0     0     0
SMALL
USER_CHARGES

@<TRIPOS>ATOM
      1 C1          0.3368    1.2204    0.4751 C.3       1 <0>        -0.1517
      2 C2          0.3152   -0.3069    0.3868 C.3       1 <0>         0.0798
      3 O1         -1.0387   -0.7634    0.3606 O.3       1 <0>        -0.3655
      4 C3         -1.2339   -2.0933    0.2837 C.2       1 <0>         0.6500
      5 O2         -0.2809   -2.8458    0.2400 O.2       1 <0>        -0.5740
      6 N1         -2.4865   -2.5900    0.2552 N.am      1 <0>        -0.5894
      7 C4         -3.6486   -1.6915    0.3012 C.3       1 <0>         0.0962
      8 C5         -4.5413   -1.9824   -0.9116 C.3       1 <0>         0.1112
      9 N2         -4.7695   -3.4321   -0.9897 N.pl3     1 <0>        -0.6357
     10 C6         -3.6074   -4.3306   -1.0357 C.3       1 <0>         0.1080
     11 C7         -2.7147   -4.0394    0.1714 C.3       1 <0>         0.1120
     12 C8         -6.0700   -3.9478   -1.0193 C.ar      1 <0>         0.1820
     13 C9         -7.1585   -3.0947   -0.8605 C.ar      1 <0>        -0.1812
     14 C10        -8.4446   -3.5922   -0.8885 C.ar      1 <0>        -0.0910
     15 C11        -8.6633   -4.9509   -1.0753 C.ar      1 <0>         0.1203
     16 C12        -7.5706   -5.8177   -1.2362 C.ar      1 <0>        -0.1138
     17 C13        -6.2703   -5.3031   -1.2121 C.ar      1 <0>        -0.1393
     18 C14        -7.7923   -7.2587   -1.4342 C.2       1 <0>         0.5259
     19 O3         -6.8390   -8.0246   -1.4742 O.co2     1 <0>        -0.6788
     20 O4         -8.9300   -7.6912   -1.5589 O.co2     1 <0>        -0.6875
     21 N3         -9.9623   -5.4520   -1.1024 N.am      1 <0>        -0.6276
     22 C15       -10.9554   -4.7210   -1.6464 C.2       1 <0>         0.5482
     23 O5        -10.7335   -3.5929   -2.0417 O.2       1 <0>        -0.5323
     24 C16       -12.3129   -5.2902   -1.7622 C.ar      1 <0>        -0.1638
     25 C17       -12.5731   -6.5837   -1.3039 C.ar      1 <0>        -0.0475
     26 C18       -13.8428   -7.1090   -1.4147 C.ar      1 <0>        -0.1402
     27 C19       -14.8607   -6.3586   -1.9786 C.ar      1 <0>        -0.0701
     28 C20       -14.6133   -5.0777   -2.4350 C.ar      1 <0>        -0.1719
     29 C21       -13.3459   -4.5348   -2.3261 C.ar      1 <0>         0.1549
     30 F1        -13.1056   -3.2806   -2.7672 F         1 <0>        -0.1175
     31 H1          1.3695    1.5685    0.4951 H         1 <0>         0.0802
     32 H2         -0.1719    1.6417   -0.3919 H         1 <0>         0.0664
     33 H3         -0.1716    1.5389    1.3851 H         1 <0>         0.0660
     34 H4          0.8237   -0.6255   -0.5232 H         1 <0>         0.0667
     35 H5          0.8240   -0.7283    1.2538 H         1 <0>         0.0664
     36 H6         -4.2100   -1.8663    1.2190 H         1 <0>         0.0764
     37 H7         -3.3116   -0.6555    0.2672 H         1 <0>         0.0981
     38 H8         -5.4951   -1.4677   -0.7956 H         1 <0>         0.0972
     39 H9         -4.0464   -1.6405   -1.8205 H         1 <0>         0.0613
     40 H10        -3.9445   -5.3666   -1.0018 H         1 <0>         0.1060
     41 H11        -3.0460   -4.1558   -1.9535 H         1 <0>         0.0627
     42 H12        -1.7611   -4.5536    0.0517 H         1 <0>         0.1044
     43 H13        -3.2081   -4.3852    1.0797 H         1 <0>         0.0791
     44 H14        -6.9949   -2.0372   -0.7142 H         1 <0>         0.1178
     45 H15        -9.2836   -2.9236   -0.7645 H         1 <0>         0.1334
     46 H16        -5.4246   -5.9625   -1.3395 H         1 <0>         0.1312
     47 H17       -10.1524   -6.3272   -0.7298 H         1 <0>         0.4214
     48 H18       -11.7810   -7.1714   -0.8640 H         1 <0>         0.1469
     49 H19       -14.0442   -8.1093   -1.0607 H         1 <0>         0.1357
     50 H20       -15.8530   -6.7765   -2.0625 H         1 <0>         0.1344
     51 H21       -15.4121   -4.4982   -2.8737 H         1 <0>         0.1386
@<TRIPOS>BOND
     1    1    2 1
     2    1   31 1
     3    1   32 1
     4    1   33 1
     5    2    3 1
     6    2   34 1
     7    2   35 1
     8    3    4 1
     9    4    5 2
    10    4    6 am
    11    6   11 1
    12    6    7 1
    13    7    8 1
    14    7   36 1
    15    7   37 1
    16    8    9 1
    17    8   38 1
    18    8   39 1
    19    9   10 1
    20    9   12 1
    21   10   11 1
    22   10   40 1
    23   10   41 1
    24   11   42 1
    25   11   43 1
    26   12   17 ar
    27   12   13 ar
    28   13   14 ar
    29   13   44 1
    30   14   15 ar
    31   14   45 1
    32   15   16 ar
    33   15   21 1
    34   16   17 ar
    35   16   18 1
    36   17   46 1
    37   18   19 2
    38   18   20 1
    39   21   22 am
    40   21   47 1
    41   22   23 2
    42   22   24 1
    43   24   29 ar
    44   24   25 ar
    45   25   26 ar
    46   25   48 1
    47   26   27 ar
    48   26   49 1
    49   27   28 ar
    50   27   50 1
    51   28   29 ar
    52   28   51 1
    53   29   30 1
@<TRIPOS>MOLECULE
ZINC64358541
   46    47     0     0     0
SMALL
USER_CHARGES

@<TRIPOS>ATOM
      1 C1         -0.0187    1.5258    0.0104 C.3       1 <0>        -0.1507
      2 C2          0.0021   -0.0041    0.0020 C.3       1 <0>         0.1930
      3 C3          0.7074   -0.4901   -1.2379 C.2       1 <0>         0.4871
      4 O1          2.0213   -0.7934   -1.1914 O.3       1 <0>        -0.7113
      5 N1          0.0549   -0.6161   -2.3439 N.2       1 <0>        -1.0543
      6 S1          0.8300   -1.1501   -3.7064 S.o2      1 <0>         2.6521
      7 O2          1.7726   -0.1463   -4.0573 O.2       1 <0>        -0.9969
      8 O3          1.2086   -2.4968   -3.4567 O.2       1 <0>        -0.9953
      9 C4         -0.3640   -1.1946   -5.0014 C.ar      1 <0>        -0.6227
     10 C5         -0.2349   -0.3729   -6.0797 C.ar      1 <0>         0.0109
     11 C6         -1.1693   -0.3956   -7.1122 C.ar      1 <0>        -0.1631
     12 C7         -2.2391   -1.2395   -7.0735 C.ar      1 <0>         0.1660
     13 C8         -2.4063   -2.1039   -5.9750 C.ar      1 <0>         0.0767
     14 C9         -1.4501   -2.0814   -4.9296 C.ar      1 <0>         0.0003
     15 C10        -1.6160   -2.9499   -3.8341 C.ar      1 <0>        -0.0570
     16 C11        -2.6967   -3.7849   -3.8319 C.ar      1 <0>        -0.1559
     17 C12        -3.5967   -3.7602   -4.8953 C.ar      1 <0>         0.1271
     18 N2         -3.4451   -2.9422   -5.9083 N.ar      1 <0>        -0.4671
     19 F1         -3.1352   -1.2461   -8.0846 F         1 <0>        -0.1199
     20 N3          0.7106   -0.4894    1.1889 N.am      1 <0>        -0.6892
     21 C13         0.0512   -0.6335    2.3554 C.2       1 <0>         0.6505
     22 O4         -1.1310   -0.3608    2.4228 O.2       1 <0>        -0.5762
     23 O5          0.7024   -1.0795    3.4462 O.3       1 <0>        -0.3605
     24 C14        -0.0587   -1.2080    4.6488 C.3       1 <0>         0.1335
     25 C15        -1.2063   -2.1945    4.4231 C.3       1 <0>        -0.1856
     26 C16         0.8441   -1.7241    5.7710 C.3       1 <0>        -0.1392
     27 C17        -0.6289    0.1568    5.0398 C.3       1 <0>        -0.1846
     28 H1          1.0039    1.9031    0.0027 H         1 <0>         0.0595
     29 H2         -0.5459    1.8868   -0.8726 H         1 <0>         0.0764
     30 H3         -0.5289    1.8773    0.9072 H         1 <0>         0.0619
     31 H4         -1.0205   -0.3814    0.0098 H         1 <0>         0.1086
     32 H5          0.6033    0.3059   -6.1348 H         1 <0>         0.1569
     33 H6         -1.0445    0.2660   -7.9567 H         1 <0>         0.1502
     34 H7         -0.9082   -2.9559   -3.0184 H         1 <0>         0.1605
     35 H8         -2.8533   -4.4639   -3.0068 H         1 <0>         0.1457
     36 H9         -4.4467   -4.4264   -4.8802 H         1 <0>         0.1645
     37 H10         1.6544   -0.7070    1.1351 H         1 <0>         0.4160
     38 H11        -0.8000   -3.1668    4.1445 H         1 <0>         0.0582
     39 H12        -1.7868   -2.2926    5.3404 H         1 <0>         0.0649
     40 H13        -1.8495   -1.8268    3.6236 H         1 <0>         0.0902
     41 H14         1.6616   -1.0213    5.9318 H         1 <0>         0.0650
     42 H15         0.2636   -1.8222    6.6883 H         1 <0>         0.0762
     43 H16         1.2503   -2.6964    5.4924 H         1 <0>         0.0656
     44 H17        -1.2722    0.5245    4.2403 H         1 <0>         0.0900
     45 H18        -1.2095    0.0587    5.9571 H         1 <0>         0.0648
     46 H19         0.1886    0.8596    5.2007 H         1 <0>         0.0573
@<TRIPOS>BOND
     1    1    2 1
     2    1   28 1
     3    1   29 1
     4    1   30 1
     5    2    3 1
     6    2   20 1
     7    2   31 1
     8    3    4 1
     9    3    5 2
    10    5    6 1
    11    6    7 2
    12    6    8 2
    13    6    9 1
    14    9   14 ar
    15    9   10 ar
    16   10   11 ar
    17   10   32 1
    18   11   12 ar
    19   11   33 1
    20   12   13 ar
    21   12   19 1
    22   13   18 ar
    23   13   14 ar
    24   14   15 ar
    25   15   16 ar
    26   15   34 1
    27   16   17 ar
    28   16   35 1
    29   17   18 ar
    30   17   36 1
    31   20   21 am
    32   20   37 1
    33   21   22 2
    34   21   23 1
    35   23   24 1
    36   24   25 1
    37   24   26 1
    38   24   27 1
    39   25   38 1
    40   25   39 1
    41   25   40 1
    42   26   41 1
    43   26   42 1
    44   26   43 1
    45   27   44 1
    46   27   45 1
    47   27   46 1
@<TRIPOS>MOLECULE
ZINC09510864
   49    51     0     0     0
SMALL
USER_CHARGES
N-[(4-hydroxy-3-nitro-phenyl)methyleneamino]-8-tert-butyl-2,5-dioxabicyclo[4.4.0]deca-7,9,11-triene-4-carboxamide
@<TRIPOS>ATOM
      1 C1          3.4441   -2.2242   -0.0337 C.3       1 <0>        -0.1446
      2 C2          3.7095   -0.7174   -0.0287 C.3       1 <0>        -0.0258
      3 C3          4.4994   -0.3345   -1.2818 C.3       1 <0>        -0.1412
      4 C4          4.5170   -0.3459    1.2166 C.3       1 <0>        -0.1407
      5 C5          2.3973    0.0237   -0.0161 C.ar      1 <0>        -0.0646
      6 C6          1.2073   -0.6801   -0.0109 C.ar      1 <0>        -0.1173
      7 C7          0.0021   -0.0041    0.0020 C.ar      1 <0>        -0.1078
      8 C8         -0.0167    1.3828    0.0096 C.ar      1 <0>         0.0403
      9 C9          1.1794    2.0902    0.0020 C.ar      1 <0>         0.0580
     10 C10         2.3856    1.4056   -0.0092 C.ar      1 <0>        -0.1051
     11 O1          1.1837    3.4513    0.0009 O.3       1 <0>        -0.2770
     12 C11        -0.0327    4.0990    0.3892 C.3       1 <0>         0.0425
     13 H1         -0.1712    4.0057    1.4663 H         1 <0>         0.1134
     14 C12        -1.1957    3.4171   -0.3440 C.3       1 <0>         0.0338
     15 O2         -1.2114    2.0347    0.0302 O.3       1 <0>        -0.2997
     16 C13         0.0235    5.5561    0.0085 C.2       1 <0>         0.5386
     17 O3          0.9681    5.9822   -0.6224 O.2       1 <0>        -0.4752
     18 N1         -0.9755    6.3858    0.3691 N.am      1 <0>        -0.5813
     19 N2         -0.9232    7.7404    0.0152 N.2       1 <0>        -0.2687
     20 C14        -1.8852    8.5393    0.3624 C.2       1 <0>         0.1668
     21 C15        -1.8302    9.9647   -0.0100 C.ar      1 <0>        -0.2000
     22 C16        -0.7431   10.4578   -0.7368 C.ar      1 <0>        -0.0035
     23 C17        -0.6959   11.7907   -1.0825 C.ar      1 <0>        -0.2398
     24 C18        -1.7265   12.6442   -0.7094 C.ar      1 <0>         0.3198
     25 C19        -2.8090   12.1585    0.0124 C.ar      1 <0>        -0.1972
     26 C20        -2.8675   10.8255    0.3577 C.ar      1 <0>         0.0355
     27 N3         -3.9041   13.0729    0.4071 N.pl3     1 <0>         0.0657
     28 O4         -4.8539   12.6479    1.0402 O.2       1 <0>        -0.2610
     29 O5         -3.8554   14.2502    0.0987 O.3       1 <0>        -0.1599
     30 H2          2.8688   -2.4889   -0.9209 H         1 <0>         0.0598
     31 H3          4.3932   -2.7602   -0.0428 H         1 <0>         0.0592
     32 H4          2.8813   -2.4970    0.8590 H         1 <0>         0.0597
     33 H5          4.6884    0.7390   -1.2782 H         1 <0>         0.0591
     34 H6          5.4485   -0.8705   -1.2909 H         1 <0>         0.0594
     35 H7          3.9241   -0.5992   -2.1690 H         1 <0>         0.0574
     36 H8          3.9542   -0.6187    2.1093 H         1 <0>         0.0571
     37 H9          5.4661   -0.8819    1.2075 H         1 <0>         0.0594
     38 H10         4.7060    0.7276    1.2201 H         1 <0>         0.0587
     39 H11         1.2197   -1.7600   -0.0174 H         1 <0>         0.1368
     40 H12        -0.9261   -0.5562    0.0058 H         1 <0>         0.1353
     41 H13         3.3166    1.9530   -0.0128 H         1 <0>         0.1359
     42 H14        -2.1369    3.8859   -0.0566 H         1 <0>         0.1276
     43 H15        -1.0544    3.5069   -1.4211 H         1 <0>         0.0880
     44 H16        -1.7307    6.0451    0.8735 H         1 <0>         0.3792
     45 H17        -2.7261    8.1600    0.9240 H         1 <0>         0.1118
     46 H18         0.0586    9.7950   -1.0273 H         1 <0>         0.1263
     47 H19         0.1438   12.1726   -1.6442 H         1 <0>         0.1240
     48 H20        -3.7116   10.4479    0.9156 H         1 <0>         0.1301
     49 O6         -1.6756   13.9577   -1.0521 O.3       1 <0>        -0.6288
@<TRIPOS>BOND
     1    1    2 1
     2    1   30 1
     3    1   31 1
     4    1   32 1
     5    2    3 1
     6    2    4 1
     7    2    5 1
     8    3   33 1
     9    3   34 1
    10    3   35 1
    11    4   36 1
    12    4   37 1
    13    4   38 1
    14    5   10 ar
    15    5    6 ar
    16    6    7 ar
    17    6   39 1
    18    7    8 ar
    19    7   40 1
    20    8   15 1
    21    8    9 ar
    22    9   10 ar
    23    9   11 1
    24   10   41 1
    25   11   12 1
    26   12   13 1
    27   12   14 1
    28   12   16 1
    29   14   15 1
    30   14   42 1
    31   14   43 1
    32   16   17 2
    33   16   18 am
    34   18   19 1
    35   18   44 1
    36   19   20 2
    37   20   21 1
    38   20   45 1
    39   21   26 ar
    40   21   22 ar
    41   22   23 ar
    42   22   46 1
    43   23   24 ar
    44   23   47 1
    45   24   25 ar
    46   24   49 1
    47   25   26 ar
    48   25   27 1
    49   26   48 1
    50   27   28 2
    51   27   29 1
@<TRIPOS>MOLECULE
ZINC13464927
   43    44     0     0     0
SMALL
USER_CHARGES
(3S)-3-[(3,4-dimethyl-5-nitro-phenyl)sulfonylamino]-3-(4-fluorophenyl)propanoic acid
@<TRIPOS>ATOM
      1 C1         -2.4162    2.5808   -4.7705 C.3       1 <0>        -0.1183
      2 C2         -1.6736    1.3211   -4.4060 C.ar      1 <0>        -0.0990
      3 C3         -1.7191    0.8424   -3.1097 C.ar      1 <0>         0.0293
      4 C4         -1.0336   -0.3099   -2.7741 C.ar      1 <0>        -0.6732
      5 C5         -0.3107   -0.9894   -3.7370 C.ar      1 <0>         0.0393
      6 C6         -0.2688   -0.5132   -5.0338 C.ar      1 <0>        -0.0563
      7 C7         -0.9505    0.6421   -5.3684 C.ar      1 <0>         0.0205
      8 C8         -0.9048    1.1613   -6.7824 C.3       1 <0>        -0.1356
      9 N1          0.5056   -1.2405   -6.0646 N.pl3     1 <0>         0.0275
     10 O1          0.0777   -1.3237   -7.2019 O.2       1 <0>        -0.1508
     11 O2          1.5708   -1.7556   -5.7754 O.3       1 <0>        -0.1502
     12 S1         -1.0871   -0.9169   -1.1209 S.o2      1 <0>         2.6954
     13 O3         -0.8152   -2.3099   -1.1907 O.2       1 <0>        -0.9608
     14 O4         -2.2754   -0.4010   -0.5370 O.2       1 <0>        -0.9175
     15 N2          0.1787   -0.2279   -0.3052 N.pl3     1 <0>        -1.0818
     16 C9          0.2302    1.2251   -0.1253 C.3       1 <0>         0.2093
     17 H1         -0.7791    1.6334   -0.1756 H         1 <0>         0.1030
     18 C10         0.8439    1.5487    1.2384 C.3       1 <0>        -0.1578
     19 C11        -0.0708    1.0568    2.3304 C.2       1 <0>         0.4562
     20 O5         -1.0658    0.4317    2.0490 O.co2     1 <0>        -0.6172
     21 C12         1.0743    1.8364   -1.2138 C.ar      1 <0>        -0.1083
     22 C13         2.2372    1.2091   -1.6206 C.ar      1 <0>        -0.0745
     23 C14         3.0090    1.7659   -2.6226 C.ar      1 <0>        -0.1510
     24 C15         2.6235    2.9585   -3.2110 C.ar      1 <0>         0.0892
     25 C16         1.4616    3.5888   -2.7988 C.ar      1 <0>        -0.1510
     26 C17         0.6881    3.0270   -1.8008 C.ar      1 <0>        -0.0856
     27 F1          3.3807    3.5070   -4.1862 F         1 <0>        -0.1442
     28 H2         -3.4270    2.3270   -5.0900 H         1 <0>         0.0825
     29 H3         -2.4638    3.2386   -3.9027 H         1 <0>         0.0807
     30 H4         -1.8950    3.0877   -5.5826 H         1 <0>         0.0777
     31 H5         -2.2874    1.3708   -2.3585 H         1 <0>         0.1599
     32 H6          0.2215   -1.8921   -3.4757 H         1 <0>         0.1612
     33 H7         -1.7672    0.7879   -7.3346 H         1 <0>         0.0992
     34 H8         -0.9251    2.2510   -6.7702 H         1 <0>         0.0871
     35 H9          0.0111    0.8204   -7.2652 H         1 <0>         0.0783
     36 H10         0.8861   -0.7864    0.0535 H         1 <0>         0.4185
     37 H11         1.8126    1.0568    1.3269 H         1 <0>         0.0743
     38 H12         0.9740    2.6269    1.3317 H         1 <0>         0.0803
     39 H13         2.5404    0.2815   -1.1579 H         1 <0>         0.1346
     40 H14         3.9149    1.2733   -2.9436 H         1 <0>         0.1341
     41 H15         1.1601    4.5192   -3.2567 H         1 <0>         0.1331
     42 H16        -0.2182    3.5184   -1.4791 H         1 <0>         0.1356
     43 O6          0.2198    1.3130    3.6155 O.co2     1 <0>        -0.7732
@<TRIPOS>BOND
     1    1    2 1
     2    1   28 1
     3    1   29 1
     4    1   30 1
     5    2    7 ar
     6    2    3 ar
     7    3    4 ar
     8    3   31 1
     9    4    5 ar
    10    4   12 1
    11    5    6 ar
    12    5   32 1
    13    6    7 ar
    14    6    9 1
    15    7    8 1
    16    8   33 1
    17    8   34 1
    18    8   35 1
    19    9   10 2
    20    9   11 1
    21   12   13 2
    22   12   14 2
    23   12   15 1
    24   15   16 1
    25   15   36 1
    26   16   17 1
    27   16   18 1
    28   16   21 1
    29   18   19 1
    30   18   37 1
    31   18   38 1
    32   19   20 2
    33   19   43 1
    34   21   26 ar
    35   21   22 ar
    36   22   23 ar
    37   22   39 1
    38   23   24 ar
    39   23   40 1
    40   24   25 ar
    41   24   27 1
    42   25   26 ar
    43   25   41 1
    44   26   42 1
@<TRIPOS>MOLECULE
ZINC04249909
   38    40     0     0     0
SMALL
USER_CHARGES

@<TRIPOS>ATOM
      1 C1         -0.0134    1.5021    0.0104 C.3       1 <0>        -0.1143
      2 C2         -0.0039   -0.0049    0.0023 C.2       1 <0>         0.1250
      3 C3         -0.0030   -0.6840   -1.1659 C.2       1 <0>        -0.2159
      4 C4          0.0060   -2.0953   -1.1472 C.2       1 <0>         0.4547
      5 O1          0.0074   -2.7840   -2.3133 O.3       1 <0>        -0.6720
      6 N1          0.0133   -2.7464   -0.0025 N.2       1 <0>        -0.5743
      7 C5          0.0125   -2.0828    1.1634 C.2       1 <0>         0.4469
      8 N2          0.0096   -0.7046    1.1771 N.pl3     1 <0>        -0.4382
      9 C6          0.0170   -0.3431    2.4944 C.2       1 <0>         0.0587
     10 N3          0.0292   -1.4492    3.2000 N.2       1 <0>        -0.2465
     11 N4          0.0186   -2.4747    2.4239 N.2       1 <0>        -0.3389
     12 S1          0.0119    1.3012    3.1275 S.3       1 <0>         0.0571
     13 C7          0.0263    1.0783    4.9277 C.3       1 <0>        -0.1523
     14 C8          0.0232    2.4266    5.6009 C.2       1 <0>         0.5398
     15 O2          0.0123    3.4384    4.9320 O.2       1 <0>        -0.5022
     16 N5          0.0325    2.5082    6.9462 N.am      1 <0>        -0.6688
     17 C9          0.1274    3.7584    7.5715 C.ar      1 <0>         0.1338
     18 C10         0.8378    3.8897    8.7572 C.ar      1 <0>        -0.1069
     19 C11         0.9313    5.1223    9.3728 C.ar      1 <0>        -0.1033
     20 C12         0.3153    6.2290    8.8071 C.ar      1 <0>         0.0860
     21 C13        -0.3950    6.0984    7.6227 C.ar      1 <0>        -0.1693
     22 C14        -0.4842    4.8677    7.0028 C.ar      1 <0>        -0.0790
     23 O3          0.4074    7.4423    9.4140 O.3       1 <0>        -0.3108
     24 C15        -0.2512    8.5384    8.7762 C.3       1 <0>         0.6036
     25 F1         -1.6206    8.2684    8.6815 F         1 <0>        -0.1649
     26 F2         -0.0561    9.7015    9.5287 F         1 <0>        -0.1325
     27 F3          0.2784    8.7183    7.4938 F         1 <0>        -0.1636
     28 H1          1.0119    1.8719    0.0044 H         1 <0>         0.0858
     29 H2         -0.5364    1.8668   -0.8737 H         1 <0>         0.0911
     30 H3         -0.5226    1.8574    0.9062 H         1 <0>         0.0788
     31 H4         -0.0094   -0.1516   -2.1056 H         1 <0>         0.1470
     32 H5         -0.8582    0.5185    5.2316 H         1 <0>         0.1260
     33 H6          0.9217    0.5291    5.2187 H         1 <0>         0.1262
     34 H7         -0.0265    1.7014    7.4814 H         1 <0>         0.4174
     35 H8          1.3168    3.0281    9.1981 H         1 <0>         0.1431
     36 H9          1.4839    5.2246   10.2951 H         1 <0>         0.1434
     37 H10        -0.8750    6.9603    7.1832 H         1 <0>         0.1369
     38 H11        -1.0331    4.7671    6.0782 H         1 <0>         0.1522
@<TRIPOS>BOND
     1    1    2 1
     2    1   28 1
     3    1   29 1
     4    1   30 1
     5    2    8 1
     6    2    3 2
     7    3    4 1
     8    3   31 1
     9    4    5 1
    10    4    6 2
    11    6    7 1
    12    7   11 2
    13    7    8 1
    14    8    9 1
    15    9   10 2
    16    9   12 1
    17   10   11 1
    18   12   13 1
    19   13   14 1
    20   13   32 1
    21   13   33 1
    22   14   15 2
    23   14   16 am
    24   16   17 1
    25   16   34 1
    26   17   22 ar
    27   17   18 ar
    28   18   19 ar
    29   18   35 1
    30   19   20 ar
    31   19   36 1
    32   20   21 ar
    33   20   23 1
    34   21   22 ar
    35   21   37 1
    36   22   38 1
    37   23   24 1
    38   24   25 1
    39   24   26 1
    40   24   27 1
@<TRIPOS>MOLECULE
ZINC52798227
   38    40     0     0     0
SMALL
USER_CHARGES

@<TRIPOS>ATOM
      1 C1          2.4448   -1.7037    1.5325 C.3       1 <0>        -0.1562
      2 C2          1.1802   -1.5381    0.7297 C.ar      1 <0>         0.0183
      3 C3          0.6810   -2.6005   -0.0008 C.ar      1 <0>        -0.1103
      4 C4         -0.4787   -2.4486   -0.7371 C.ar      1 <0>        -0.0739
      5 C5         -1.1400   -1.2344   -0.7427 C.ar      1 <0>        -0.0967
      6 C6         -0.6415   -0.1726   -0.0117 C.ar      1 <0>         0.0579
      7 C7          0.5164   -0.3258    0.7282 C.ar      1 <0>        -0.5846
      8 S1          1.1486    1.0260    1.6650 S.o2      1 <0>         2.5887
      9 O1          2.3819    0.5925    2.2220 O.2       1 <0>        -1.0108
     10 O2          1.0494    2.1761    0.8363 O.2       1 <0>        -1.0128
     11 N1          0.1143    1.2675    2.9355 N.2       1 <0>        -1.0479
     12 C8          0.3661    2.2854    3.8566 C.ar      1 <0>         0.3036
     13 C9          1.4826    3.0996    3.7030 C.ar      1 <0>        -0.2647
     14 C10         1.7338    4.1055    4.6109 C.ar      1 <0>        -0.0414
     15 C11         0.8661    4.3065    5.6854 C.ar      1 <0>        -0.1681
     16 C12        -0.2539    3.4878    5.8370 C.ar      1 <0>        -0.0374
     17 C13        -0.5032    2.4870    4.9228 C.ar      1 <0>        -0.1773
     18 C14         1.1332    5.3852    6.6619 C.2       1 <0>         0.1844
     19 C15         0.3736    5.6943    7.7551 C.2       1 <0>        -0.2955
     20 C16         0.9770    6.7717    8.4041 C.2       1 <0>         0.0496
     21 N2          2.0547    7.1078    7.7416 N.2       1 <0>        -0.3177
     22 H1          2.8970    6.2711    5.9821 H         1 <0>         0.4336
     23 N3          2.1857    6.2509    6.6413 N.pl3     1 <0>        -0.4871
     24 N4         -1.3491    1.1275   -0.0182 N.pl3     1 <0>         0.0107
     25 O3         -1.8639    1.5305   -1.0352 O.2       1 <0>        -0.1797
     26 O4         -1.4122    1.7864    0.9935 O.3       1 <0>        -0.0660
     27 H2          2.1920   -1.8483    2.5829 H         1 <0>         0.0919
     28 H3          2.9952   -2.5712    1.1685 H         1 <0>         0.0650
     29 H4          3.0618   -0.8113    1.4268 H         1 <0>         0.1305
     30 H5          1.1976   -3.5489    0.0036 H         1 <0>         0.1445
     31 H6         -0.8683   -3.2782   -1.3083 H         1 <0>         0.1476
     32 H7         -2.0459   -1.1155   -1.3186 H         1 <0>         0.1489
     33 H8          2.1540    2.9433    2.8715 H         1 <0>         0.0991
     34 H9          2.6014    4.7374    4.4913 H         1 <0>         0.0982
     35 H10        -0.9269    3.6409    6.6677 H         1 <0>         0.1151
     36 H11        -1.3723    1.8562    5.0370 H         1 <0>         0.1206
     37 H12        -0.5330    5.1939    8.0617 H         1 <0>         0.1438
     38 H13         0.6152    7.2490    9.3028 H         1 <0>         0.1761
@<TRIPOS>BOND
     1    1    2 1
     2    1   27 1
     3    1   28 1
     4    1   29 1
     5    2    7 ar
     6    2    3 ar
     7    3    4 ar
     8    3   30 1
     9    4    5 ar
    10    4   31 1
    11    5    6 ar
    12    5   32 1
    13    6    7 ar
    14    6   24 1
    15    7    8 1
    16    8    9 2
    17    8   10 2
    18    8   11 1
    19   11   12 1
    20   12   17 ar
    21   12   13 ar
    22   13   14 ar
    23   13   33 1
    24   14   15 ar
    25   14   34 1
    26   15   16 ar
    27   15   18 1
    28   16   17 ar
    29   16   35 1
    30   17   36 1
    31   18   19 2
    32   18   23 1
    33   19   20 1
    34   19   37 1
    35   20   21 2
    36   20   38 1
    37   21   23 1
    38   22   23 1
    39   24   25 2
    40   24   26 1
@<TRIPOS>MOLECULE
ZINC31817969
   55    58     0     0     0
SMALL
USER_CHARGES

@<TRIPOS>ATOM
      1 C1         -0.0722    1.4971    0.4637 C.3       1 <0>        -0.1511
      2 C2         -0.0552   -0.0322    0.5092 C.3       1 <0>        -0.1227
      3 C3         -1.4644   -0.5660    0.2443 C.3       1 <0>        -0.1172
      4 C4         -1.4474   -2.0952    0.2898 C.3       1 <0>         0.0534
      5 O1         -2.7636   -2.5938    0.0424 O.3       1 <0>        -0.3199
      6 C5         -2.9013   -3.9416   -0.0746 C.ar      1 <0>         0.0724
      7 C6         -2.9133   -4.5321   -1.3281 C.ar      1 <0>        -0.0493
      8 C7         -3.0529   -5.9025   -1.4453 C.ar      1 <0>        -0.1307
      9 C8         -3.1814   -6.6866   -0.3139 C.ar      1 <0>        -0.0803
     10 C9         -3.1707   -6.1038    0.9396 C.ar      1 <0>        -0.2005
     11 C10        -3.0249   -4.7315    1.0644 C.ar      1 <0>         0.1043
     12 O2         -3.0082   -4.1572    2.2970 O.3       1 <0>        -0.3083
     13 C11        -3.1398   -5.0297    3.4210 C.3       1 <0>         0.0259
     14 C12        -2.7745   -3.6805   -2.5636 C.3       1 <0>         0.0504
     15 H1         -2.5894   -2.6445   -2.2795 H         1 <0>         0.1097
     16 C13        -4.0549   -3.7689   -3.4030 C.3       1 <0>        -0.0977
     17 C14        -4.1216   -5.0576   -4.1696 C.2       1 <0>         0.3862
     18 N1         -3.0754   -5.6661   -4.6433 N.2       1 <0>        -0.5248
     19 C15        -1.8386   -5.1465   -4.3992 C.2       1 <0>         0.3145
     20 C16        -1.6358   -4.1898   -3.4108 C.2       1 <0>        -0.3037
     21 C17        -0.2929   -3.8629   -3.4015 C.2       1 <0>         0.0971
     22 N2          0.3162   -4.5797   -4.3187 N.2       1 <0>        -0.2876
     23 N3         -0.6322   -5.4038   -4.9553 N.pl3     1 <0>        -0.2487
     24 C18        -0.3739   -6.3230   -5.9771 C.ar      1 <0>         0.1400
     25 C19         0.7356   -6.1544   -6.8049 C.ar      1 <0>        -0.0753
     26 C20         0.9498   -7.0907   -7.8022 C.ar      1 <0>        -0.2155
     27 C21         0.0434   -8.1431   -7.9164 C.ar      1 <0>         0.3589
     28 N4         -0.9820   -8.2223   -7.0851 N.ar      1 <0>        -0.3314
     29 N5         -1.1783   -7.3574   -6.1573 N.ar      1 <0>        -0.1739
     30 O3          0.2125   -9.0848   -8.8794 O.3       1 <0>        -0.6890
     31 C22         0.3618   -2.8541   -2.4933 C.3       1 <0>        -0.0723
     32 O4         -5.3324   -5.6142   -4.3779 O.3       1 <0>        -0.4630
     33 H2          0.9317    1.8773    0.6524 H         1 <0>         0.0545
     34 H3         -0.4071    1.8276   -0.5195 H         1 <0>         0.0559
     35 H4         -0.7534    1.8757    1.2258 H         1 <0>         0.0536
     36 H5          0.6259   -0.4108   -0.2529 H         1 <0>         0.0661
     37 H6          0.2797   -0.3627    1.4924 H         1 <0>         0.0623
     38 H7         -2.1456   -0.1873    1.0064 H         1 <0>         0.0705
     39 H8         -1.7993   -0.2354   -0.7389 H         1 <0>         0.0722
     40 H9         -0.7663   -2.4738   -0.4723 H         1 <0>         0.0621
     41 H10        -1.1125   -2.4257    1.2730 H         1 <0>         0.0518
     42 H11        -3.0620   -6.3615   -2.4229 H         1 <0>         0.1300
     43 H12        -3.2906   -7.7568   -0.4096 H         1 <0>         0.1272
     44 H13        -3.2716   -6.7185    1.8218 H         1 <0>         0.1296
     45 H14        -3.1109   -4.4448    4.3403 H         1 <0>         0.0983
     46 H15        -4.0891   -5.5618    3.3587 H         1 <0>         0.0549
     47 H16        -2.3200   -5.7480    3.4214 H         1 <0>         0.0537
     48 H17        -4.9193   -3.7023   -2.7423 H         1 <0>         0.1051
     49 H18        -4.0792   -2.9352   -4.1047 H         1 <0>         0.1083
     50 H19         1.4070   -5.3189   -6.6725 H         1 <0>         0.1279
     51 H20         1.7935   -7.0078   -8.4713 H         1 <0>         0.1286
     52 H21         0.6025   -3.3254   -1.5404 H         1 <0>         0.0737
     53 H22         1.2766   -2.4866   -2.9582 H         1 <0>         0.0744
     54 H23        -0.3201   -2.0207   -2.3245 H         1 <0>         0.0770
     55 H24        -5.3042   -6.4416   -4.8776 H         1 <0>         0.4125
@<TRIPOS>BOND
     1    1    2 1
     2    1   33 1
     3    1   34 1
     4    1   35 1
     5    2    3 1
     6    2   36 1
     7    2   37 1
     8    3    4 1
     9    3   38 1
    10    3   39 1
    11    4    5 1
    12    4   40 1
    13    4   41 1
    14    5    6 1
    15    6   11 ar
    16    6    7 ar
    17    7    8 ar
    18    7   14 1
    19    8    9 ar
    20    8   42 1
    21    9   10 ar
    22    9   43 1
    23   10   11 ar
    24   10   44 1
    25   11   12 1
    26   12   13 1
    27   13   45 1
    28   13   46 1
    29   13   47 1
    30   14   15 1
    31   14   20 1
    32   14   16 1
    33   16   17 1
    34   16   48 1
    35   16   49 1
    36   17   18 2
    37   17   32 1
    38   18   19 1
    39   19   23 1
    40   19   20 2
    41   20   21 1
    42   21   22 2
    43   21   31 1
    44   22   23 1
    45   23   24 1
    46   24   29 ar
    47   24   25 ar
    48   25   26 ar
    49   25   50 1
    50   26   27 ar
    51   26   51 1
    52   27   28 ar
    53   27   30 1
    54   28   29 ar
    55   31   52 1
    56   31   53 1
    57   31   54 1
    58   32   55 1
@<TRIPOS>MOLECULE
ZINC11864071
   49    51     0     0     0
SMALL
USER_CHARGES
5-methyl-4-[[2-oxo-3-(sec-butylcarbamoyl)chromen-7-yl]oxymethyl]furan-2-carboxylic acid
@<TRIPOS>ATOM
      1 C1          0.6554   -2.0374    1.2986 C.3       1 <0>        -0.1546
      2 C2          0.7421   -0.5109    1.2415 C.3       1 <0>        -0.1312
      3 C3          0.0021   -0.0041    0.0020 C.3       1 <0>         0.1423
      4 H1         -1.0205   -0.3814    0.0098 H         1 <0>         0.0911
      5 C4         -0.0187    1.5258    0.0104 C.3       1 <0>        -0.1656
      6 N1          0.6878   -0.4765   -1.2033 N.am      1 <0>        -0.7252
      7 C5          0.0062   -0.6081   -2.3585 C.2       1 <0>         0.5727
      8 O1         -1.1783   -0.3347   -2.4004 O.2       1 <0>        -0.5065
      9 C6          0.6950   -1.0828   -3.5694 C.2       1 <0>        -0.2785
     10 C7          2.0446   -1.3979   -3.5356 C.2       1 <0>         0.0603
     11 C8          2.6674   -1.8505   -4.7225 C.ar      1 <0>        -0.2182
     12 C9          4.0336   -2.1784   -4.7209 C.ar      1 <0>         0.0006
     13 C10         4.6299   -2.6144   -5.8656 C.ar      1 <0>        -0.2325
     14 C11         3.8920   -2.7380   -7.0429 C.ar      1 <0>         0.2172
     15 C12         2.5442   -2.4191   -7.0647 C.ar      1 <0>        -0.1865
     16 C13         1.9185   -1.9738   -5.9088 C.ar      1 <0>         0.2112
     17 O2          0.6041   -1.6647   -5.9331 O.3       1 <0>        -0.2612
     18 C14        -0.0353   -1.2365   -4.8316 C.2       1 <0>         0.5229
     19 O3         -1.2216   -0.9705   -4.8829 O.2       1 <0>        -0.4199
     20 O4          4.4992   -3.1733   -8.1754 O.3       1 <0>        -0.2854
     21 C15         5.8910   -3.4850   -8.0866 C.3       1 <0>         0.1432
     22 C16         6.3888   -3.9484   -9.4314 C.2       1 <0>        -0.2069
     23 C17         5.6284   -4.0719  -10.6041 C.2       1 <0>        -0.1669
     24 C18         6.4774   -4.5181  -11.5774 C.2       1 <0>        -0.0178
     25 O5          7.6997   -4.6711  -11.0267 O.3       1 <0>        -0.1414
     26 C19         7.6503   -4.3286   -9.7331 C.2       1 <0>        -0.0190
     27 C20         8.8105   -4.3610   -8.7719 C.3       1 <0>        -0.0711
     28 C21         6.1215   -4.7891  -12.9721 C.2       1 <0>         0.5256
     29 O6          4.9803   -4.6129  -13.3538 O.co2     1 <0>        -0.6026
     30 H2         -0.3904   -2.3402    1.3506 H         1 <0>         0.0568
     31 H3          1.1123   -2.4609    0.4042 H         1 <0>         0.0547
     32 H4          1.1826   -2.3985    2.1817 H         1 <0>         0.0569
     33 H5          1.7879   -0.2080    1.1895 H         1 <0>         0.0679
     34 H6          0.2852   -0.0874    2.1360 H         1 <0>         0.0799
     35 H7          1.0039    1.9031    0.0027 H         1 <0>         0.0566
     36 H8         -0.5459    1.8868   -0.8726 H         1 <0>         0.0628
     37 H9         -0.5289    1.8773    0.9072 H         1 <0>         0.0663
     38 H10         1.6324   -0.6946   -1.1699 H         1 <0>         0.3947
     39 H11         2.6099   -1.2994   -2.6206 H         1 <0>         0.1497
     40 H12         4.6106   -2.0853   -3.8127 H         1 <0>         0.1455
     41 H13         5.6803   -2.8654   -5.8617 H         1 <0>         0.1458
     42 H14         1.9804   -2.5177   -7.9805 H         1 <0>         0.1584
     43 H15         6.4435   -2.5966   -7.7810 H         1 <0>         0.0763
     44 H16         6.0399   -4.2762   -7.3517 H         1 <0>         0.0766
     45 H17         4.5766   -3.8539  -10.7165 H         1 <0>         0.1534
     46 H18         8.8574   -5.3384   -8.2917 H         1 <0>         0.0791
     47 H19         9.7376   -4.1782   -9.3152 H         1 <0>         0.0781
     48 H20         8.6757   -3.5897   -8.0135 H         1 <0>         0.0801
     49 O7          7.0596   -5.2341  -13.8333 O.co2     1 <0>        -0.7356
@<TRIPOS>BOND
     1    1    2 1
     2    1   30 1
     3    1   31 1
     4    1   32 1
     5    2    3 1
     6    2   33 1
     7    2   34 1
     8    3    4 1
     9    3    5 1
    10    3    6 1
    11    5   35 1
    12    5   36 1
    13    5   37 1
    14    6    7 am
    15    6   38 1
    16    7    8 2
    17    7    9 1
    18    9   18 1
    19    9   10 2
    20   10   11 1
    21   10   39 1
    22   11   16 ar
    23   11   12 ar
    24   12   13 ar
    25   12   40 1
    26   13   14 ar
    27   13   41 1
    28   14   15 ar
    29   14   20 1
    30   15   16 ar
    31   15   42 1
    32   16   17 1
    33   17   18 1
    34   18   19 2
    35   20   21 1
    36   21   22 1
    37   21   43 1
    38   21   44 1
    39   22   26 2
    40   22   23 1
    41   23   24 2
    42   23   45 1
    43   24   25 1
    44   24   28 1
    45   25   26 1
    46   26   27 1
    47   27   46 1
    48   27   47 1
    49   27   48 1
    50   28   29 2
    51   28   49 1
@<TRIPOS>MOLECULE
ZINC13419011
   41    42     0     0     0
SMALL
USER_CHARGES
3-[(1R)-2-[(2-methoxy-4-nitro-phenyl)amino]-1-methyl-2-oxo-ethoxy]benzoic acid
@<TRIPOS>ATOM
      1 C1          1.4688    2.6986    1.3001 C.3       1 <0>        -0.1781
      2 C2          1.3230    1.9295   -0.0145 C.3       1 <0>         0.0721
      3 H1          1.3578    2.6284   -0.8502 H         1 <0>         0.1050
      4 C3          0.0052    1.1986   -0.0253 C.2       1 <0>         0.5216
      5 O1         -0.0157   -0.0141   -0.0359 O.2       1 <0>        -0.4812
      6 N1         -1.1502    1.8925   -0.0289 N.am      1 <0>        -0.6585
      7 C4         -2.3733    1.2162   -0.1300 C.ar      1 <0>         0.1848
      8 C5         -2.4765   -0.1012    0.2920 C.ar      1 <0>        -0.1057
      9 C6         -3.6838   -0.7661    0.1913 C.ar      1 <0>        -0.0585
     10 C7         -4.7908   -0.1215   -0.3294 C.ar      1 <0>        -0.0315
     11 C8         -4.6956    1.1914   -0.7520 C.ar      1 <0>        -0.1290
     12 C9         -3.4902    1.8669   -0.6491 C.ar      1 <0>         0.1001
     13 O2         -3.3964    3.1599   -1.0591 O.3       1 <0>        -0.3086
     14 C10        -4.5824    3.7628   -1.5808 C.3       1 <0>         0.0225
     15 N2         -6.0813   -0.8388   -0.4342 N.pl3     1 <0>         0.0323
     16 O3         -6.1671   -1.9954   -0.0621 O.2       1 <0>        -0.1558
     17 O4         -7.0573   -0.2726   -0.8927 O.3       1 <0>        -0.1670
     18 O5          2.3910    0.9878   -0.1364 O.3       1 <0>        -0.2863
     19 C11         3.5605    1.4451   -0.6563 C.ar      1 <0>         0.1009
     20 C12         3.7106    2.7950   -0.9452 C.ar      1 <0>        -0.2146
     21 C13         4.8999    3.2671   -1.4689 C.ar      1 <0>        -0.1023
     22 C14         5.9422    2.3979   -1.7186 C.ar      1 <0>        -0.1078
     23 C15         5.7988    1.0380   -1.4367 C.ar      1 <0>        -0.0741
     24 C16         4.5995    0.5640   -0.9027 C.ar      1 <0>        -0.1076
     25 C17         6.9122    0.1042   -1.7031 C.2       1 <0>         0.4888
     26 O6          6.7848   -1.0786   -1.4574 O.co2     1 <0>        -0.6248
     27 H2          1.4341    1.9997    2.1358 H         1 <0>         0.0772
     28 H3          2.4220    3.2273    1.3079 H         1 <0>         0.0857
     29 H4          0.6542    3.4169    1.3931 H         1 <0>         0.0742
     30 H5         -1.1351    2.8600    0.0385 H         1 <0>         0.4224
     31 H6         -1.6137   -0.6071    0.6995 H         1 <0>         0.1851
     32 H7         -3.7631   -1.7917    0.5205 H         1 <0>         0.1610
     33 H8         -5.5621    1.6921   -1.1579 H         1 <0>         0.1617
     34 H9         -4.3698    4.7919   -1.8700 H         1 <0>         0.1100
     35 H10        -4.9213    3.2030   -2.4524 H         1 <0>         0.0623
     36 H11        -5.3607    3.7532   -0.8177 H         1 <0>         0.0618
     37 H12         2.8969    3.4794   -0.7560 H         1 <0>         0.1203
     38 H13         5.0121    4.3188   -1.6870 H         1 <0>         0.1205
     39 H14         6.8681    2.7693   -2.1322 H         1 <0>         0.1337
     40 H15         4.4822   -0.4869   -0.6829 H         1 <0>         0.1369
     41 O7          8.0686    0.5643   -2.2185 O.co2     1 <0>        -0.7495
@<TRIPOS>BOND
     1    1    2 1
     2    1   27 1
     3    1   28 1
     4    1   29 1
     5    2    3 1
     6    2    4 1
     7    2   18 1
     8    4    5 2
     9    4    6 am
    10    6    7 1
    11    6   30 1
    12    7   12 ar
    13    7    8 ar
    14    8    9 ar
    15    8   31 1
    16    9   10 ar
    17    9   32 1
    18   10   11 ar
    19   10   15 1
    20   11   12 ar
    21   11   33 1
    22   12   13 1
    23   13   14 1
    24   14   34 1
    25   14   35 1
    26   14   36 1
    27   15   16 2
    28   15   17 1
    29   18   19 1
    30   19   24 ar
    31   19   20 ar
    32   20   21 ar
    33   20   37 1
    34   21   22 ar
    35   21   38 1
    36   22   23 ar
    37   22   39 1
    38   23   24 ar
    39   23   25 1
    40   24   40 1
    41   25   26 2
    42   25   41 1
@<TRIPOS>MOLECULE
ZINC34767162
   59    61     0     0     0
SMALL
USER_CHARGES

@<TRIPOS>ATOM
      1 C1          0.2896    1.7279    0.2027 C.3       1 <0>        -0.1544
      2 C2          0.0590    0.2223    0.0582 C.3       1 <0>        -0.1164
      3 C3          0.6714   -0.2635   -1.2571 C.3       1 <0>         0.0776
      4 H1          0.2659    0.3197   -2.0839 H         1 <0>         0.0738
      5 C4          0.3337   -1.7416   -1.4616 C.3       1 <0>        -0.1814
      6 O1          2.0903   -0.1010   -1.2105 O.3       1 <0>        -0.2974
      7 C5          2.7364    0.0240   -2.3996 C.ar      1 <0>         0.1098
      8 C6          2.0352   -0.1227   -3.5875 C.ar      1 <0>        -0.1875
      9 C7          2.6871    0.0034   -4.7965 C.ar      1 <0>        -0.0673
     10 C8          4.0537    0.2789   -4.8267 C.ar      1 <0>        -0.0190
     11 C9          4.7595    0.4271   -3.6332 C.ar      1 <0>        -0.1282
     12 C10         4.1005    0.3050   -2.4237 C.ar      1 <0>         0.0822
     13 O2          4.7850    0.4540   -1.2580 O.3       1 <0>        -0.3099
     14 C11         6.1813    0.7411   -1.3577 C.3       1 <0>         0.0259
     15 C12         4.7551    0.4137   -6.1253 C.ar      1 <0>         0.3194
     16 N1          6.0580    0.6708   -6.1443 N.ar      1 <0>        -0.3872
     17 N2          6.7012    0.7941   -7.2523 N.ar      1 <0>        -0.1967
     18 C13         6.0769    0.6671   -8.4088 C.ar      1 <0>        -0.0747
     19 C14         4.7073    0.3967   -8.4180 C.ar      1 <0>         0.4163
     20 O3          4.0378    0.2603   -9.5884 O.3       1 <0>        -0.6700
     21 N3          4.0745    0.2704   -7.2574 N.ar      1 <0>        -0.5804
     22 C15         6.8339    0.8128   -9.7037 C.3       1 <0>        -0.0131
     23 C16         7.3699   -0.5530  -10.1376 C.3       1 <0>        -0.1276
     24 C17         8.1269   -0.4073  -11.4325 C.2       1 <0>         0.5199
     25 O4          8.2277    0.6817  -11.9567 O.2       1 <0>        -0.5387
     26 N4          8.6918   -1.4871  -12.0080 N.am      1 <0>        -0.7312
     27 C18         9.4276   -1.3455  -13.2668 C.3       1 <0>         0.1387
     28 C19        10.9029   -0.9971  -12.9803 C.3       1 <0>        -0.1344
     29 C20        11.6309   -2.3635  -13.0221 C.3       1 <0>        -0.1255
     30 C21        10.9093   -3.1001  -14.1779 C.3       1 <0>        -0.1240
     31 C22         9.4317   -2.6826  -14.0283 C.3       1 <0>        -0.1316
     32 H2          1.3601    1.9332    0.2026 H         1 <0>         0.0639
     33 H3         -0.1804    2.2492   -0.6313 H         1 <0>         0.0526
     34 H4         -0.1467    2.0740    1.1397 H         1 <0>         0.0541
     35 H5          0.5290   -0.2989    0.8922 H         1 <0>         0.0724
     36 H6         -1.0115    0.0170    0.0583 H         1 <0>         0.0782
     37 H7         -0.7487   -1.8655   -1.4972 H         1 <0>         0.0688
     38 H8          0.7699   -2.0877   -2.3987 H         1 <0>         0.0659
     39 H9          0.7392   -2.3248   -0.6348 H         1 <0>         0.0656
     40 H10         0.9768   -0.3365   -3.5657 H         1 <0>         0.1361
     41 H11         2.1391   -0.1116   -5.7200 H         1 <0>         0.1423
     42 H12         5.8180    0.6405   -3.6534 H         1 <0>         0.1495
     43 H13         6.6052    0.8353   -0.3580 H         1 <0>         0.0951
     44 H14         6.6816   -0.0681   -1.8897 H         1 <0>         0.0558
     45 H15         6.3223    1.6752   -1.9016 H         1 <0>         0.0559
     46 H16         6.1668    1.2023  -10.4727 H         1 <0>         0.0850
     47 H17         7.6667    1.5017   -9.5622 H         1 <0>         0.0706
     48 H18         8.0370   -0.9425   -9.3686 H         1 <0>         0.0888
     49 H19         6.5371   -1.2419  -10.2791 H         1 <0>         0.0943
     50 H20         8.6111   -2.3581  -11.5887 H         1 <0>         0.3982
     51 H21         8.9719   -0.5680  -13.8800 H         1 <0>         0.0890
     52 H22        11.2944   -0.3324  -13.7503 H         1 <0>         0.0717
     53 H23        11.0028   -0.5416  -11.9950 H         1 <0>         0.0709
     54 H24        12.6887   -2.2308  -13.2495 H         1 <0>         0.0652
     55 H25        11.5011   -2.8994  -12.0819 H         1 <0>         0.0663
     56 H26        11.3019   -2.7750  -15.1414 H         1 <0>         0.0666
     57 H27        11.0139   -4.1793  -14.0667 H         1 <0>         0.0656
     58 H28         8.8862   -3.4369  -13.4613 H         1 <0>         0.0715
     59 H29         8.9788   -2.5539  -15.0114 H         1 <0>         0.0729
@<TRIPOS>BOND
     1    1    2 1
     2    1   32 1
     3    1   33 1
     4    1   34 1
     5    2    3 1
     6    2   35 1
     7    2   36 1
     8    3    4 1
     9    3    5 1
    10    3    6 1
    11    5   37 1
    12    5   38 1
    13    5   39 1
    14    6    7 1
    15    7   12 ar
    16    7    8 ar
    17    8    9 ar
    18    8   40 1
    19    9   10 ar
    20    9   41 1
    21   10   11 ar
    22   10   15 1
    23   11   12 ar
    24   11   42 1
    25   12   13 1
    26   13   14 1
    27   14   43 1
    28   14   44 1
    29   14   45 1
    30   15   21 ar
    31   15   16 ar
    32   16   17 ar
    33   17   18 ar
    34   18   19 ar
    35   18   22 1
    36   19   20 1
    37   19   21 ar
    38   22   23 1
    39   22   46 1
    40   22   47 1
    41   23   24 1
    42   23   48 1
    43   23   49 1
    44   24   25 2
    45   24   26 am
    46   26   27 1
    47   26   50 1
    48   27   31 1
    49   27   28 1
    50   27   51 1
    51   28   29 1
    52   28   52 1
    53   28   53 1
    54   29   30 1
    55   29   54 1
    56   29   55 1
    57   30   31 1
    58   30   56 1
    59   30   57 1
    60   31   58 1
    61   31   59 1
@<TRIPOS>MOLECULE
ZINC13346012
   45    48     0     0     0
SMALL
USER_CHARGES

@<TRIPOS>ATOM
      1 C1         -0.0171    1.5550   -0.0212 C.3       1 <0>        -0.1782
      2 C2          0.0046    0.0252   -0.0083 C.3       1 <0>         0.0881
      3 N1          0.6889   -0.4636   -1.2078 N.pl3     1 <0>        -0.4514
      4 C3          0.1120   -0.8397   -2.3989 C.2       1 <0>         0.2175
      5 N2          1.0851   -1.2097   -3.1985 N.2       1 <0>        -0.2685
      6 N3          2.2150   -1.0924   -2.5978 N.2       1 <0>        -0.2987
      7 C4          2.0328   -0.6353   -1.3789 C.2       1 <0>         0.1436
      8 S1          3.2884   -0.3088   -0.1865 S.3       1 <0>         0.1110
      9 C5          4.8286   -0.7427   -1.0410 C.3       1 <0>        -0.0760
     10 C6          5.9977   -0.5067   -0.1198 C.2       1 <0>         0.3830
     11 N4          7.2470   -0.7702   -0.5838 N.am      1 <0>        -0.6486
     12 H1          7.3639   -1.1014   -1.4880 H         1 <0>         0.4152
     13 C7          8.3301   -0.5746    0.2037 C.2       1 <0>         0.5575
     14 O1          9.4548   -0.8061   -0.1992 O.2       1 <0>        -0.5177
     15 C8          8.0945   -0.0699    1.5677 C.ar      1 <0>        -0.1962
     16 C9          9.1433    0.1645    2.4549 C.ar      1 <0>        -0.0653
     17 C10         8.8801    0.6332    3.7106 C.ar      1 <0>        -0.0891
     18 C11         7.5624    0.8814    4.1168 C.ar      1 <0>        -0.0893
     19 C12         6.5019    0.6535    3.2466 C.ar      1 <0>        -0.0645
     20 C13         6.7605    0.1749    1.9606 C.ar      1 <0>         0.1266
     21 N5          5.7596   -0.0571    1.0746 N.2       1 <0>        -0.4899
     22 C14         7.2976    1.3884    5.4797 C.2       1 <0>         0.5194
     23 O2          8.2268    1.5898    6.2482 O.co2     1 <0>        -0.6771
     24 O3          6.1494    1.6064    5.8385 O.co2     1 <0>        -0.6759
     25 C15        -1.3315   -0.8292   -2.7181 C.ar      1 <0>        -0.0126
     26 C16        -2.2108   -0.0523   -1.9621 C.ar      1 <0>        -0.1199
     27 C17        -3.5567   -0.0470   -2.2652 C.ar      1 <0>        -0.1160
     28 C18        -4.0355   -0.8099   -3.3155 C.ar      1 <0>        -0.1079
     29 C19        -3.1692   -1.5822   -4.0687 C.ar      1 <0>        -0.1169
     30 C20        -1.8201   -1.5917   -3.7802 C.ar      1 <0>        -0.0765
     31 H2          1.0053    1.9327   -0.0356 H         1 <0>         0.0764
     32 H3         -0.5457    1.9034   -0.9084 H         1 <0>         0.0655
     33 H4         -0.5263    1.9187    0.8714 H         1 <0>         0.0884
     34 H5          0.5332   -0.3232    0.8790 H         1 <0>         0.1064
     35 H6         -1.0178   -0.3525    0.0062 H         1 <0>         0.1066
     36 H7          4.8001   -1.7932   -1.3302 H         1 <0>         0.1274
     37 H8          4.9369   -0.1235   -1.9315 H         1 <0>         0.1273
     38 H9         10.1621   -0.0244    2.1504 H         1 <0>         0.1331
     39 H10         9.6947    0.8136    4.3963 H         1 <0>         0.1402
     40 H11         5.4871    0.8451    3.5627 H         1 <0>         0.1469
     41 H12        -1.8385    0.5431   -1.1416 H         1 <0>         0.1339
     42 H13        -4.2382    0.5537   -1.6811 H         1 <0>         0.1293
     43 H14        -5.0901   -0.8028   -3.5481 H         1 <0>         0.1267
     44 H15        -3.5493   -2.1757   -4.8870 H         1 <0>         0.1303
     45 H16        -1.1443   -2.1914   -4.3717 H         1 <0>         0.1359
@<TRIPOS>BOND
     1    1    2 1
     2    1   31 1
     3    1   32 1
     4    1   33 1
     5    2    3 1
     6    2   34 1
     7    2   35 1
     8    3    7 1
     9    3    4 1
    10    4    5 2
    11    4   25 1
    12    5    6 1
    13    6    7 2
    14    7    8 1
    15    8    9 1
    16    9   10 1
    17    9   36 1
    18    9   37 1
    19   10   21 2
    20   10   11 1
    21   11   12 1
    22   11   13 am
    23   13   14 2
    24   13   15 1
    25   15   20 ar
    26   15   16 ar
    27   16   17 ar
    28   16   38 1
    29   17   18 ar
    30   17   39 1
    31   18   19 ar
    32   18   22 1
    33   19   20 ar
    34   19   40 1
    35   20   21 1
    36   22   23 2
    37   22   24 1
    38   25   30 ar
    39   25   26 ar
    40   26   27 ar
    41   26   41 1
    42   27   28 ar
    43   27   42 1
    44   28   29 ar
    45   28   43 1
    46   29   30 ar
    47   29   44 1
    48   30   45 1
@<TRIPOS>MOLECULE
ZINC59794563
   41    44     0     0     0
SMALL
USER_CHARGES

@<TRIPOS>ATOM
      1 C1          0.0709    1.5300   -0.0917 C.ar      1 <0>        -0.1029
      2 C2          1.2741    2.1886   -0.2666 C.ar      1 <0>        -0.1038
      3 C3          2.4592    1.4792   -0.2559 C.ar      1 <0>        -0.0958
      4 C4          2.4414    0.1035   -0.0694 C.ar      1 <0>         0.1100
      5 C5          1.2318   -0.5549    0.1059 C.ar      1 <0>        -0.0978
      6 C6          0.0500    0.1599    0.0943 C.ar      1 <0>        -0.1072
      7 N1          3.6425   -0.6192   -0.0586 N.pl3     1 <0>        -0.4187
      8 C7          4.0766   -1.5278   -0.9990 C.2       1 <0>         0.2056
      9 N2          5.2481   -1.9654   -0.5993 N.2       1 <0>        -0.2577
     10 N3          5.5730   -1.4027    0.5093 N.2       1 <0>        -0.2973
     11 C8          4.6316   -0.5657    0.8850 C.2       1 <0>         0.1680
     12 S1          4.6404    0.4353    2.3350 S.3       1 <0>         0.0812
     13 C9          6.2172    0.0330    3.1365 C.3       1 <0>        -0.0669
     14 C10         6.3533    0.8320    4.4069 C.2       1 <0>         0.4403
     15 O1          7.4524    0.6960    5.1738 O.3       1 <0>        -0.6517
     16 N4          5.4083    1.6540    4.7634 N.2       1 <0>        -0.6572
     17 C11         5.5314    2.3770    5.9130 C.2       1 <0>         0.5197
     18 N5          6.5507    2.3395    6.7509 N.2       1 <0>        -0.5607
     19 H1          3.7830    3.5117    5.9976 H         1 <0>         0.4243
     20 C12         6.3304    3.1757    7.7630 C.2       1 <0>         0.1923
     21 N6          5.1740    3.7611    7.5946 N.2       1 <0>        -0.3752
     22 N7          4.6325    3.2669    6.3969 N.pl3     1 <0>        -0.5144
     23 C13         3.3589   -1.9335   -2.2258 C.ar      1 <0>         0.0081
     24 C14         2.3234   -1.1420   -2.7263 C.ar      1 <0>        -0.1021
     25 C15         1.6572   -1.5258   -3.8716 C.ar      1 <0>        -0.1023
     26 C16         2.0125   -2.6927   -4.5245 C.ar      1 <0>        -0.1013
     27 C17         3.0384   -3.4826   -4.0341 C.ar      1 <0>        -0.0333
     28 C18         3.7173   -3.1063   -2.8919 C.ar      1 <0>        -0.0706
     29 Cl1         3.4765   -4.9453   -4.8601 Cl        1 <0>        -0.0637
     30 H2         -0.8542    2.0874   -0.0960 H         1 <0>         0.1317
     31 H3          1.2872    3.2586   -0.4120 H         1 <0>         0.1361
     32 H4          3.3986    1.9940   -0.3929 H         1 <0>         0.1345
     33 H5          1.2149   -1.6250    0.2509 H         1 <0>         0.1291
     34 H6         -0.8912   -0.3517    0.2310 H         1 <0>         0.1341
     35 H7          6.2441   -1.0310    3.3718 H         1 <0>         0.1081
     36 H8          7.0394    0.2772    2.4639 H         1 <0>         0.1082
     37 H9          7.0013    3.3436    8.5926 H         1 <0>         0.1938
     38 H10         2.0442   -0.2312   -2.2175 H         1 <0>         0.1338
     39 H11         0.8560   -0.9140   -4.2593 H         1 <0>         0.1378
     40 H12         1.4871   -2.9889   -5.4205 H         1 <0>         0.1368
     41 H13         4.5206   -3.7203   -2.5125 H         1 <0>         0.1472
@<TRIPOS>BOND
     1    1    6 ar
     2    1    2 ar
     3    1   30 1
     4    2    3 ar
     5    2   31 1
     6    3    4 ar
     7    3   32 1
     8    4    5 ar
     9    4    7 1
    10    5    6 ar
    11    5   33 1
    12    6   34 1
    13    7   11 1
    14    7    8 1
    15    8    9 2
    16    8   23 1
    17    9   10 1
    18   10   11 2
    19   11   12 1
    20   12   13 1
    21   13   14 1
    22   13   35 1
    23   13   36 1
    24   14   15 1
    25   14   16 2
    26   16   17 1
    27   17   18 2
    28   17   22 1
    29   18   20 1
    30   19   22 1
    31   20   37 1
    32   20   21 2
    33   21   22 1
    34   23   28 ar
    35   23   24 ar
    36   24   25 ar
    37   24   38 1
    38   25   26 ar
    39   25   39 1
    40   26   27 ar
    41   26   40 1
    42   27   28 ar
    43   27   29 1
    44   28   41 1
@<TRIPOS>MOLECULE
ZINC01602172
   31    32     0     0     0
SMALL
USER_CHARGES
[3-(5-amino-6-chloro-pyrimidin-4-yl)aminocyclopentyl]methanol
@<TRIPOS>ATOM
      1 C1         -0.0126    1.0758    0.0080 C.ar      1 <0>         0.3029
      2 N1          1.1317    1.7308    0.0005 N.ar      1 <0>        -0.5387
      3 C2          1.1551    3.0591    0.0075 C.ar      1 <0>         0.4026
      4 C3         -0.0595    3.7574    0.0228 C.ar      1 <0>         0.0786
      5 C4         -1.2380    3.0240    0.0301 C.ar      1 <0>         0.1587
      6 N2         -1.1730    1.6987    0.0170 N.ar      1 <0>        -0.5158
      7 Cl1        -2.7757    3.8294    0.0485 Cl        1 <0>        -0.0211
      8 N3         -0.0840    5.1586    0.0301 N.pl3     1 <0>        -0.8627
      9 N4          2.3629    3.7439    0.0001 N.pl3     1 <0>        -0.7063
     10 C5          3.6258    3.0014   -0.0155 C.3       1 <0>         0.1559
     11 H1          3.5133    2.0861   -0.5965 H         1 <0>         0.0981
     12 C6          4.0573    2.6625    1.4263 C.3       1 <0>        -0.1349
     13 C7          5.5998    2.8098    1.4048 C.3       1 <0>        -0.1131
     14 C8          5.8141    4.0348    0.4815 C.3       1 <0>        -0.0926
     15 H2          5.6589    4.9623    1.0327 H         1 <0>         0.0829
     16 C9          4.7424    3.8733   -0.6162 C.3       1 <0>        -0.1261
     17 C10         7.2161    4.0053   -0.1304 C.3       1 <0>         0.0814
     18 O1          8.1850    4.2724    0.8855 O.3       1 <0>        -0.5732
     19 H3          0.0021   -0.0041    0.0020 H         1 <0>         0.2031
     20 H4          0.7475    5.6583    0.0245 H         1 <0>         0.3980
     21 H5         -0.9323    5.6289    0.0407 H         1 <0>         0.4068
     22 H6          2.3706    4.7138    0.0052 H         1 <0>         0.4040
     23 H7          3.6167    3.3669    2.1319 H         1 <0>         0.0679
     24 H8          3.7743    1.6406    1.6789 H         1 <0>         0.0747
     25 H9          6.0662    1.9204    0.9812 H         1 <0>         0.0699
     26 H10         5.9858    3.0075    2.4048 H         1 <0>         0.0725
     27 H11         5.1724    3.3806   -1.4883 H         1 <0>         0.0797
     28 H12         4.3447    4.8487   -0.8962 H         1 <0>         0.0728
     29 H13         7.4036    3.0220   -0.5618 H         1 <0>         0.0482
     30 H14         7.2884    4.7638   -0.9098 H         1 <0>         0.0449
     31 H15         9.0985    4.2694    0.5683 H         1 <0>         0.3810
@<TRIPOS>BOND
     1    1    6 ar
     2    1    2 ar
     3    1   19 1
     4    2    3 ar
     5    3    4 ar
     6    3    9 1
     7    4    5 ar
     8    4    8 1
     9    5    6 ar
    10    5    7 1
    11    8   20 1
    12    8   21 1
    13    9   10 1
    14    9   22 1
    15   10   11 1
    16   10   16 1
    17   10   12 1
    18   12   13 1
    19   12   23 1
    20   12   24 1
    21   13   14 1
    22   13   25 1
    23   13   26 1
    24   14   15 1
    25   14   16 1
    26   14   17 1
    27   16   27 1
    28   16   28 1
    29   17   18 1
    30   17   29 1
    31   17   30 1
    32   18   31 1
@<TRIPOS>MOLECULE
ZINC31775940
   30    31     0     0     0
SMALL
USER_CHARGES
(3S,4S)-4-(4-aminoanilino)-1,1-dioxo-thiolan-3-ol
@<TRIPOS>ATOM
      1 C1          3.4810    6.5016    0.2774 C.ar      1 <0>        -0.1574
      2 C2          2.4421    5.6971   -0.1477 C.ar      1 <0>        -0.1390
      3 C3          2.4570    4.3374    0.1335 C.ar      1 <0>         0.1600
      4 C4          3.5139    3.7875    0.8468 C.ar      1 <0>        -0.1505
      5 C5          4.5549    4.5911    1.2681 C.ar      1 <0>        -0.1572
      6 C6          4.5402    5.9508    0.9865 C.ar      1 <0>         0.1768
      7 N1          5.5932    6.7664    1.4178 N.pl3     1 <0>        -0.9075
      8 N2          1.4036    3.5219   -0.2970 N.pl3     1 <0>        -0.7459
      9 C7          1.4193    2.0874   -0.0003 C.3       1 <0>         0.1545
     10 H1          1.8889    1.9913    0.9898 H         1 <0>         0.1108
     11 C8          2.2147    1.3316   -1.1028 C.3       1 <0>        -0.5997
     12 S1          1.5821   -0.3818   -0.8601 S.o2      1 <0>         2.3825
     13 O1          2.4442   -1.0704    0.0353 O.2       1 <0>        -0.9274
     14 O2          1.2916   -0.9523   -2.1287 O.2       1 <0>        -0.9315
     15 C9          0.0021   -0.0041    0.0020 C.3       1 <0>        -0.6214
     16 C10        -0.0189    1.5435    0.0105 C.3       1 <0>         0.1195
     17 H2         -0.5960    1.9429   -0.8365 H         1 <0>         0.0821
     18 O3         -0.6908    2.0024    1.1853 O.3       1 <0>        -0.5788
     19 H3          3.4694    7.5591    0.0586 H         1 <0>         0.1174
     20 H4          1.6183    6.1255   -0.6992 H         1 <0>         0.1183
     21 H5          3.5234    2.7307    1.0694 H         1 <0>         0.1174
     22 H6          5.3786    4.1628    1.8199 H         1 <0>         0.1176
     23 H7          6.4323    6.3301    1.9795 H         1 <0>         0.4121
     24 H8          5.5815    7.8435    1.1949 H         1 <0>         0.4118
     25 H9          0.5641    3.9583   -0.8581 H         1 <0>         0.4167
     26 H10         1.9720    1.7578   -2.0874 H         1 <0>         0.1498
     27 H11         3.2933    1.4363   -0.9138 H         1 <0>         0.1499
     28 H12        -0.8364   -0.4378   -0.5626 H         1 <0>         0.1476
     29 H13         0.0245   -0.4348    1.0139 H         1 <0>         0.1522
     30 H14        -1.7364    1.7141    1.3689 H         1 <0>         0.4191
@<TRIPOS>BOND
     1    1    6 ar
     2    1    2 ar
     3    1   19 1
     4    2    3 ar
     5    2   20 1
     6    3    4 ar
     7    3    8 1
     8    4    5 ar
     9    4   21 1
    10    5    6 ar
    11    5   22 1
    12    6    7 1
    13    7   23 1
    14    7   24 1
    15    8    9 1
    16    8   25 1
    17    9   10 1
    18    9   16 1
    19    9   11 1
    20   11   12 1
    21   11   26 1
    22   11   27 1
    23   12   13 2
    24   12   14 2
    25   12   15 1
    26   15   16 1
    27   15   28 1
    28   15   29 1
    29   16   17 1
    30   16   18 1
    31   18   30 1
@<TRIPOS>MOLECULE
ZINC36307824
   27    27     0     0     0
SMALL
USER_CHARGES

@<TRIPOS>ATOM
      1 C1         -0.0168    1.3793    0.0063 C.ar      1 <0>        -0.0103
      2 C2          1.1651    2.0952    0.0313 C.ar      1 <0>        -0.2258
      3 C3          2.3813    1.4316    0.0171 C.ar      1 <0>         0.2288
      4 C4          2.4083    0.0297   -0.0223 C.ar      1 <0>        -0.1887
      5 C5          1.2045   -0.6839   -0.0469 C.ar      1 <0>         0.1648
      6 C6          0.0019   -0.0037   -0.0327 C.ar      1 <0>        -0.1963
      7 F1          1.2184   -2.0343   -0.0853 F         1 <0>        -0.1226
      8 C7          3.6946   -0.6864   -0.0382 C.2       1 <0>         0.3883
      9 S1          5.1597    0.1884   -0.1765 S.2       1 <0>        -0.5152
     10 N1          3.7187   -2.0307    0.0561 N.pl3     1 <0>        -0.7752
     11 O1          3.5414    2.1349    0.0408 O.3       1 <0>        -0.2283
     12 C8          3.4357    3.5595    0.0801 C.3       1 <0>         0.0474
     13 C9          4.8365    4.1744    0.1022 C.3       1 <0>        -0.1361
     14 C10         4.7251    5.6767    0.1436 C.2       1 <0>         0.5233
     15 O2          3.6328    6.2036    0.1544 O.2       1 <0>        -0.5468
     16 N2          5.8393    6.4346    0.1686 N.am      1 <0>        -0.8532
     17 H1         -0.9614    1.9027    0.0217 H         1 <0>         0.1471
     18 H2          1.1406    3.1745    0.0616 H         1 <0>         0.1507
     19 H3         -0.9273   -0.5539   -0.0517 H         1 <0>         0.1477
     20 H4          2.8879   -2.5314    0.0622 H         1 <0>         0.4044
     21 H5          4.5668   -2.4974    0.1180 H         1 <0>         0.4206
     22 H6          2.8996    3.9085   -0.8024 H         1 <0>         0.0743
     23 H7          2.8933    3.8590    0.9768 H         1 <0>         0.0731
     24 H8          5.3727    3.8253    0.9847 H         1 <0>         0.1088
     25 H9          5.3790    3.8749   -0.7946 H         1 <0>         0.1101
     26 H10         6.7129    6.0131    0.1600 H         1 <0>         0.4048
     27 H11         5.7675    7.4016    0.1953 H         1 <0>         0.4042
@<TRIPOS>BOND
     1    1    6 ar
     2    1    2 ar
     3    1   17 1
     4    2    3 ar
     5    2   18 1
     6    3    4 ar
     7    3   11 1
     8    4    5 ar
     9    4    8 1
    10    5    6 ar
    11    5    7 1
    12    6   19 1
    13    8    9 2
    14    8   10 1
    15   10   20 1
    16   10   21 1
    17   11   12 1
    18   12   13 1
    19   12   22 1
    20   12   23 1
    21   13   14 1
    22   13   24 1
    23   13   25 1
    24   14   15 2
    25   14   16 am
    26   16   26 1
    27   16   27 1
@<TRIPOS>MOLECULE
ZINC40999315
   28    29     0     0     0
SMALL
USER_CHARGES

@<TRIPOS>ATOM
      1 C1         -0.0187    1.5258    0.0104 C.3       1 <0>        -0.1654
      2 C2          0.0021   -0.0041    0.0020 C.3       1 <0>         0.2110
      3 H1          0.5293   -0.3651    0.8851 H         1 <0>         0.0815
      4 C3         -1.4117   -0.5257    0.0127 C.ar      1 <0>        -0.1412
      5 C4         -1.9893   -0.9645    1.1946 C.ar      1 <0>        -0.0662
      6 C5         -3.2923   -1.4362    1.1569 C.ar      1 <0>        -0.1678
      7 C6         -3.9678   -1.4533   -0.0490 C.ar      1 <0>         0.0972
      8 N1         -3.3866   -1.0284   -1.1536 N.ar      1 <0>        -0.4809
      9 C7         -2.1509   -0.5674   -1.1540 C.ar      1 <0>         0.1057
     10 N2          0.6878   -0.4765   -1.2033 N.pl3     1 <0>        -0.7397
     11 C8          2.0927   -0.5920   -1.2155 C.2       1 <0>         0.0291
     12 C9          2.9262   -0.3069   -0.1852 C.2       1 <0>        -0.0008
     13 N3          4.1979   -0.5504   -0.6037 N.pl3     1 <0>        -0.4827
     14 H2          5.0039   -0.4346   -0.0766 H         1 <0>         0.4430
     15 N4          4.1381   -0.9976   -1.9297 N.2       1 <0>        -0.3307
     16 C10         2.8793   -1.0298   -2.2977 C.2       1 <0>         0.3139
     17 N5          2.4005   -1.4275   -3.5533 N.pl3     1 <0>        -0.8484
     18 H3          1.0039    1.9031    0.0027 H         1 <0>         0.0647
     19 H4         -0.5459    1.8868   -0.8726 H         1 <0>         0.0598
     20 H5         -0.5289    1.8773    0.9072 H         1 <0>         0.0622
     21 H6         -1.4369   -0.9398    2.1223 H         1 <0>         0.1362
     22 H7         -3.7735   -1.7862    2.0582 H         1 <0>         0.1378
     23 H8         -4.9832   -1.8192   -0.0869 H         1 <0>         0.1573
     24 H9         -1.7100   -0.2230   -2.0778 H         1 <0>         0.1511
     25 H10         0.1751   -0.7099   -1.9930 H         1 <0>         0.3939
     26 H11         2.6338    0.0495    0.7915 H         1 <0>         0.1698
     27 H12         1.4478   -1.4151   -3.7353 H         1 <0>         0.4052
     28 H13         3.0218   -1.7151   -4.2405 H         1 <0>         0.4045
@<TRIPOS>BOND
     1    1    2 1
     2    1   18 1
     3    1   19 1
     4    1   20 1
     5    2    3 1
     6    2    4 1
     7    2   10 1
     8    4    9 ar
     9    4    5 ar
    10    5    6 ar
    11    5   21 1
    12    6    7 ar
    13    6   22 1
    14    7    8 ar
    15    7   23 1
    16    8    9 ar
    17    9   24 1
    18   10   11 1
    19   10   25 1
    20   11   16 1
    21   11   12 2
    22   12   13 1
    23   12   26 1
    24   13   14 1
    25   13   15 1
    26   15   16 2
    27   16   17 1
    28   17   27 1
    29   17   28 1
@<TRIPOS>MOLECULE
ZINC51296797
   30    31     0     0     0
SMALL
USER_CHARGES

@<TRIPOS>ATOM
      1 C1         -0.0168    1.3853    0.0097 C.ar      1 <0>        -0.2429
      2 C2          1.1680    2.0933    0.0021 C.ar      1 <0>        -0.0323
      3 C3          2.3827    1.4275   -0.0121 C.ar      1 <0>        -0.2021
      4 C4          2.4057    0.0404   -0.0168 C.ar      1 <0>         0.2661
      5 C5          1.2157   -0.6760   -0.0115 C.ar      1 <0>        -0.2633
      6 C6          0.0021   -0.0041    0.0020 C.ar      1 <0>         0.2501
      7 N1         -1.1963   -0.7214    0.0079 N.pl3     1 <0>        -0.8784
      8 N2          3.6190   -0.6567   -0.0220 N.pl3     1 <0>        -0.6125
      9 C7          4.8569    0.0740   -0.3254 C.3       1 <0>         0.1290
     10 C8          4.8300    1.3895    0.4637 C.3       1 <0>        -0.1350
     11 C9          3.6542    2.2349   -0.0253 C.3       1 <0>        -0.0644
     12 C10         3.6543   -2.0918    0.2708 C.3       1 <0>         0.1097
     13 C11         3.4961   -2.8698   -1.0101 C.2       1 <0>         0.4865
     14 O1          3.3667   -2.2833   -2.0638 O.2       1 <0>        -0.5239
     15 N3          3.4985   -4.2173   -0.9848 N.am      1 <0>        -0.8596
     16 H1         -0.9596    1.9118    0.0260 H         1 <0>         0.1154
     17 H2          1.1480    3.1731    0.0071 H         1 <0>         0.1197
     18 H3          1.2352   -1.7558   -0.0175 H         1 <0>         0.1109
     19 H4         -2.0439   -0.2497    0.0174 H         1 <0>         0.3980
     20 H5         -1.1810   -1.6913    0.0026 H         1 <0>         0.3953
     21 H6          5.7196   -0.5200   -0.0235 H         1 <0>         0.0756
     22 H7          4.9087    0.2851   -1.3935 H         1 <0>         0.0635
     23 H8          4.7096    1.1760    1.5257 H         1 <0>         0.0693
     24 H9          5.7617    1.9316    0.3017 H         1 <0>         0.0771
     25 H10         3.8538    2.5751   -1.0414 H         1 <0>         0.0662
     26 H11         3.5376    3.1003    0.6270 H         1 <0>         0.0706
     27 H12         4.6079   -2.3447    0.7341 H         1 <0>         0.1050
     28 H13         2.8413   -2.3438    0.9517 H         1 <0>         0.1043
     29 H14         3.6020   -4.6863   -0.1420 H         1 <0>         0.4007
     30 H15         3.3967   -4.7181   -1.8092 H         1 <0>         0.4011
@<TRIPOS>BOND
     1    1    6 ar
     2    1    2 ar
     3    1   16 1
     4    2    3 ar
     5    2   17 1
     6    3   11 1
     7    3    4 ar
     8    4    5 ar
     9    4    8 1
    10    5    6 ar
    11    5   18 1
    12    6    7 1
    13    7   19 1
    14    7   20 1
    15    8    9 1
    16    8   12 1
    17    9   10 1
    18    9   21 1
    19    9   22 1
    20   10   11 1
    21   10   23 1
    22   10   24 1
    23   11   25 1
    24   11   26 1
    25   12   13 1
    26   12   27 1
    27   12   28 1
    28   13   14 2
    29   13   15 am
    30   15   29 1
    31   15   30 1
@<TRIPOS>MOLECULE
ZINC13022241
   41    42     0     0     0
SMALL
USER_CHARGES
2-[(1S)-2-[(3-cyanophenyl)amino]-1-methyl-2-oxo-ethyl]sulfanyl-4,6-dimethyl-pyridine-3-carboxylic acid
@<TRIPOS>ATOM
      1 C1         -2.5379    0.9982    0.6170 C.3       1 <0>        -0.1125
      2 C2         -1.2431    1.7528    0.4584 C.ar      1 <0>        -0.0156
      3 C3         -0.0515    1.0804    0.2540 C.ar      1 <0>        -0.1801
      4 C4          1.1211    1.8001    0.1060 C.ar      1 <0>         0.1177
      5 N1          1.1266    3.1173    0.1614 N.ar      1 <0>        -0.4954
      6 C5          0.0161    3.8118    0.3603 C.ar      1 <0>         0.1125
      7 C6         -1.2158    3.1512    0.5198 C.ar      1 <0>        -0.1159
      8 C7         -2.4541    3.9165    0.7412 C.2       1 <0>         0.5001
      9 O1         -3.1235    4.2767   -0.2070 O.co2     1 <0>        -0.6167
     10 S1          0.0823    5.5714    0.4258 S.3       1 <0>         0.0480
     11 C8          1.8551    5.8290    0.1671 C.3       1 <0>        -0.1211
     12 H1          2.4168    5.2621    0.9095 H         1 <0>         0.1193
     13 C9          2.2401    5.3543   -1.2355 C.3       1 <0>        -0.1396
     14 C10         2.1753    7.2950    0.3068 C.2       1 <0>         0.5358
     15 O2          1.2949    8.1215    0.1935 O.2       1 <0>        -0.4936
     16 N2          3.4399    7.6876    0.5577 N.am      1 <0>        -0.6713
     17 C11         3.7586    9.0502    0.5779 C.ar      1 <0>         0.1549
     18 C12         4.7405    9.5215    1.4416 C.ar      1 <0>        -0.1170
     19 C13         5.0598   10.8660    1.4651 C.ar      1 <0>        -0.0990
     20 C14         4.4059   11.7501    0.6311 C.ar      1 <0>        -0.0896
     21 C15         3.4176   11.2870   -0.2400 C.ar      1 <0>        -0.0072
     22 C16         3.0992    9.9286   -0.2671 C.ar      1 <0>        -0.0761
     23 C17         2.7377   12.2019   -1.1068 C.1       1 <0>         0.2558
     24 N3          2.1984   12.9276   -1.7945 N.1       1 <0>        -0.4132
     25 C18         2.4164    1.0643   -0.1223 C.3       1 <0>        -0.0926
     26 H2         -2.7004    0.7729    1.6710 H         1 <0>         0.0767
     27 H3         -3.3615    1.6075    0.2446 H         1 <0>         0.0779
     28 H4         -2.4885    0.0685    0.0501 H         1 <0>         0.0656
     29 H5         -0.0371    0.0015    0.2058 H         1 <0>         0.1296
     30 H6          1.6784    5.9213   -1.9779 H         1 <0>         0.0651
     31 H7          3.3077    5.5095   -1.3913 H         1 <0>         0.0600
     32 H8          2.0085    4.2940   -1.3365 H         1 <0>         0.0960
     33 H9          4.1293    7.0258    0.7241 H         1 <0>         0.4157
     34 H10         5.2560    8.8345    2.0964 H         1 <0>         0.1349
     35 H11         5.8239   11.2260    2.1381 H         1 <0>         0.1380
     36 H12         4.6587   12.7999    0.6519 H         1 <0>         0.1337
     37 H13         2.3391    9.5636   -0.9420 H         1 <0>         0.1458
     38 H14         2.5742    0.9299   -1.1924 H         1 <0>         0.0716
     39 H15         3.2407    1.6413    0.2969 H         1 <0>         0.0707
     40 H16         2.3711    0.0897    0.3635 H         1 <0>         0.0701
     41 O3         -2.8451    4.2176    1.9954 O.co2     1 <0>        -0.7389
@<TRIPOS>BOND
     1    1    2 1
     2    1   26 1
     3    1   27 1
     4    1   28 1
     5    2    7 ar
     6    2    3 ar
     7    3    4 ar
     8    3   29 1
     9    4    5 ar
    10    4   25 1
    11    5    6 ar
    12    6    7 ar
    13    6   10 1
    14    7    8 1
    15    8    9 2
    16    8   41 1
    17   10   11 1
    18   11   12 1
    19   11   13 1
    20   11   14 1
    21   13   30 1
    22   13   31 1
    23   13   32 1
    24   14   15 2
    25   14   16 am
    26   16   17 1
    27   16   33 1
    28   17   22 ar
    29   17   18 ar
    30   18   19 ar
    31   18   34 1
    32   19   20 ar
    33   19   35 1
    34   20   21 ar
    35   20   36 1
    36   21   22 ar
    37   21   23 1
    38   22   37 1
    39   23   24 3
    40   25   38 1
    41   25   39 1
    42   25   40 1
@<TRIPOS>MOLECULE
ZINC35562361
   38    41     0     0     0
SMALL
USER_CHARGES

@<TRIPOS>ATOM
      1 C1         -0.0167    1.3782    0.0096 C.ar      1 <0>        -0.0856
      2 C2          1.1706    2.0858    0.0021 C.ar      1 <0>        -0.1141
      3 C3          2.3780    1.4104   -0.0130 C.ar      1 <0>        -0.0312
      4 C4          2.3961    0.0270   -0.0206 C.ar      1 <0>        -0.1141
      5 C5          1.2082   -0.6795   -0.0130 C.ar      1 <0>        -0.0856
      6 C6          0.0021   -0.0041    0.0020 C.ar      1 <0>        -0.0942
      7 C7         -1.2928   -0.7750    0.0107 C.3       1 <0>         0.1883
      8 N1         -1.7261   -1.0173   -1.3676 N.pl3     1 <0>        -0.7029
      9 C8         -2.9051   -1.7164   -1.6142 C.2       1 <0>         0.4877
     10 N2         -3.7193   -2.2048   -0.6805 N.2       1 <0>        -0.6010
     11 C9         -4.7498   -2.8137   -1.2584 C.2       1 <0>         0.4975
     12 N3         -5.8141   -3.4518   -0.7652 N.2       1 <0>        -0.5692
     13 C10        -6.7284   -3.9890   -1.5573 C.2       1 <0>         0.2446
     14 C11        -6.5922   -3.8924   -2.9348 C.2       1 <0>        -0.3374
     15 C12        -5.4997   -3.2424   -3.4554 C.2       1 <0>         0.4899
     16 O1         -5.3400   -3.1387   -4.7944 O.3       1 <0>        -0.6540
     17 N4         -4.5805   -2.7043   -2.6099 N.pl3     1 <0>        -0.3551
     18 N5         -3.3905   -1.9919   -2.8065 N.2       1 <0>        -0.3922
     19 C13        -7.5999   -4.4670   -3.8933 C.3       1 <0>        -0.0208
     20 C14        -8.4829   -5.4952   -3.1879 C.3       1 <0>        -0.1176
     21 C15        -9.0377   -4.8608   -1.9073 C.3       1 <0>        -0.1148
     22 C16        -7.8914   -4.6961   -0.9114 C.3       1 <0>        -0.0614
     23 Cl1         3.8696    2.2984   -0.0231 Cl        1 <0>        -0.0755
     24 H1         -0.9592    1.9053    0.0259 H         1 <0>         0.1357
     25 H2          1.1558    3.1656    0.0076 H         1 <0>         0.1336
     26 H3          3.3383   -0.5007   -0.0327 H         1 <0>         0.1336
     27 H4          1.2222   -1.7594   -0.0193 H         1 <0>         0.1357
     28 H5         -1.1447   -1.7283    0.5180 H         1 <0>         0.0713
     29 H6         -2.0551   -0.1989    0.5352 H         1 <0>         0.0714
     30 H7         -1.1917   -0.6909   -2.1085 H         1 <0>         0.4091
     31 H8         -8.2242   -3.6636   -4.2842 H         1 <0>         0.0515
     32 H9         -7.0772   -4.9478   -4.7202 H         1 <0>         0.0625
     33 H10        -9.3067   -5.7808   -3.8420 H         1 <0>         0.0602
     34 H11        -7.8906   -6.3744   -2.9344 H         1 <0>         0.0609
     35 H12        -9.4656   -3.8852   -2.1377 H         1 <0>         0.0649
     36 H13        -9.8036   -5.5081   -1.4802 H         1 <0>         0.0649
     37 H14        -7.5690   -5.6791   -0.5682 H         1 <0>         0.0816
     38 H15        -8.2375   -4.1134   -0.0577 H         1 <0>         0.0818
@<TRIPOS>BOND
     1    1    6 ar
     2    1    2 ar
     3    1   24 1
     4    2    3 ar
     5    2   25 1
     6    3    4 ar
     7    3   23 1
     8    4    5 ar
     9    4   26 1
    10    5    6 ar
    11    5   27 1
    12    6    7 1
    13    7    8 1
    14    7   28 1
    15    7   29 1
    16    8    9 1
    17    8   30 1
    18    9   18 2
    19    9   10 1
    20   10   11 2
    21   11   17 1
    22   11   12 1
    23   12   13 2
    24   13   22 1
    25   13   14 1
    26   14   15 2
    27   14   19 1
    28   15   16 1
    29   15   17 1
    30   17   18 1
    31   19   20 1
    32   19   31 1
    33   19   32 1
    34   20   21 1
    35   20   33 1
    36   20   34 1
    37   21   22 1
    38   21   35 1
    39   21   36 1
    40   22   37 1
    41   22   38 1
@<TRIPOS>MOLECULE
ZINC39679730
   47    49     0     0     0
SMALL
USER_CHARGES

@<TRIPOS>ATOM
      1 C1          0.7444    2.1703    0.5412 C.3       1 <0>        -0.1449
      2 C2          1.1636    0.7631    0.9712 C.3       1 <0>        -0.0257
      3 C3          1.9950    0.8479    2.2528 C.3       1 <0>        -0.1364
      4 C4         -0.0840   -0.0847    1.2278 C.3       1 <0>        -0.1386
      5 C5          1.9989    0.1188   -0.1369 C.3       1 <0>         0.1538
      6 H1          2.2919   -0.8895    0.1555 H         1 <0>         0.1323
      7 N1          1.2304    0.0760   -1.3837 N.2       1 <0>        -0.4446
      8 C6          1.8578    0.7641   -2.2923 C.2       1 <0>         0.1291
      9 C7          1.5294    1.0438   -3.7053 C.2       1 <0>        -0.0469
     10 C8          2.3655    1.7986   -4.4393 C.2       1 <0>        -0.1095
     11 C9          3.5921    2.3406   -3.8463 C.2       1 <0>         0.2807
     12 C10         3.9204    2.0842   -2.5020 C.2       1 <0>        -0.2628
     13 C11         3.1036    1.3257   -1.7228 C.2       1 <0>         0.1808
     14 N2          3.1927    0.9318   -0.4038 N.2       1 <0>        -0.5043
     15 N3          4.4094    3.0876   -4.5924 N.am      1 <0>        -0.6526
     16 C12         4.0595    3.4217   -5.8321 C.2       1 <0>         0.5728
     17 O1          3.0105    4.0026   -6.0319 O.2       1 <0>        -0.4701
     18 C13         4.9636    3.0798   -6.9883 C.3       1 <0>        -0.0944
     19 H2          5.9105    2.6936   -6.6111 H         1 <0>         0.0868
     20 C14         4.2930    2.0252   -7.8712 C.3       1 <0>        -0.0757
     21 C15         5.0518    1.8687   -9.1564 C.2       1 <0>        -0.1690
     22 C16         5.9083    2.7307   -9.6025 C.2       1 <0>        -0.1415
     23 C17         6.2695    4.0021   -8.8919 C.3       1 <0>        -0.0687
     24 C18         5.2182    4.3351   -7.8324 C.3       1 <0>        -0.1427
     25 H3          4.2938    4.6407   -8.3225 H         1 <0>         0.0776
     26 C19         5.7191    5.4474   -6.9477 C.2       1 <0>         0.4942
     27 O2          6.5743    6.2139   -7.3572 O.co2     1 <0>        -0.6850
     28 O3          5.2693    5.5809   -5.8224 O.co2     1 <0>        -0.6867
     29 H4          1.6331    2.7742    0.3584 H         1 <0>         0.0606
     30 H5          0.1520    2.1099   -0.3718 H         1 <0>         0.0546
     31 H6          0.1493    2.6293    1.3307 H         1 <0>         0.0576
     32 H7          1.3999    1.3069    3.0423 H         1 <0>         0.0560
     33 H8          2.2936   -0.1547    2.5591 H         1 <0>         0.0528
     34 H9          2.8838    1.4518    2.0700 H         1 <0>         0.0688
     35 H10        -0.6763   -0.1451    0.3148 H         1 <0>         0.0655
     36 H11         0.2146   -1.0872    1.5342 H         1 <0>         0.0535
     37 H12        -0.6791    0.3743    2.0173 H         1 <0>         0.0566
     38 H13         0.6264    0.6460   -4.1443 H         1 <0>         0.1480
     39 H14         2.1322    2.0069   -5.4730 H         1 <0>         0.1492
     40 H15         4.8289    2.4934   -2.0855 H         1 <0>         0.1350
     41 H16         5.2583    3.3869   -4.2308 H         1 <0>         0.4299
     42 H17         4.2746    1.0713   -7.3441 H         1 <0>         0.0708
     43 H18         3.2710    2.3343   -8.0905 H         1 <0>         0.0795
     44 H19         4.8719    0.9819   -9.7460 H         1 <0>         0.1023
     45 H20         6.3928    2.5220  -10.5449 H         1 <0>         0.1001
     46 H21         7.2391    3.8829   -8.4084 H         1 <0>         0.0743
     47 H22         6.3261    4.8163   -9.6144 H         1 <0>         0.0768
@<TRIPOS>BOND
     1    1    2 1
     2    1   29 1
     3    1   30 1
     4    1   31 1
     5    2    3 1
     6    2    4 1
     7    2    5 1
     8    3   32 1
     9    3   33 1
    10    3   34 1
    11    4   35 1
    12    4   36 1
    13    4   37 1
    14    5    6 1
    15    5   14 1
    16    5    7 1
    17    7    8 2
    18    8   13 1
    19    8    9 1
    20    9   10 2
    21    9   38 1
    22   10   11 1
    23   10   39 1
    24   11   12 1
    25   11   15 2
    26   12   13 2
    27   12   40 1
    28   13   14 1
    29   15   16 am
    30   15   41 1
    31   16   17 2
    32   16   18 1
    33   18   19 1
    34   18   24 1
    35   18   20 1
    36   20   21 1
    37   20   42 1
    38   20   43 1
    39   21   22 2
    40   21   44 1
    41   22   23 1
    42   22   45 1
    43   23   24 1
    44   23   46 1
    45   23   47 1
    46   24   25 1
    47   24   26 1
    48   26   27 2
    49   26   28 1
@<TRIPOS>MOLECULE
ZINC50684399
   50    52     0     0     0
SMALL
USER_CHARGES

@<TRIPOS>ATOM
      1 C1         -1.1008    2.6636    0.8156 C.3       1 <0>        -0.1057
      2 C2         -1.7430    1.3310    0.5277 C.ar      1 <0>        -0.0767
      3 C3         -2.5968    1.1933   -0.5495 C.ar      1 <0>        -0.1114
      4 C4         -3.1868   -0.0288   -0.8140 C.ar      1 <0>        -0.1231
      5 C5         -2.9244   -1.1169   -0.0016 C.ar      1 <0>        -0.1124
      6 C6         -2.0718   -0.9856    1.0767 C.ar      1 <0>        -0.1158
      7 C7         -1.4728    0.2391    1.3414 C.ar      1 <0>         0.1638
      8 N1         -0.6026    0.3741    2.4314 N.pl3     1 <0>        -0.3241
      9 C8         -0.8405   -0.0537    3.6846 C.2       1 <0>         0.1249
     10 C9          0.2657    0.2739    4.4490 C.2       1 <0>        -0.1860
     11 C10         1.1862    0.9230    3.5918 C.2       1 <0>         0.0870
     12 N2          0.6624    0.9711    2.3983 N.2       1 <0>        -0.3059
     13 C11         0.4496    0.0001    5.8804 C.2       1 <0>         0.4299
     14 O1          0.5216    1.0214    6.7586 O.3       1 <0>        -0.6457
     15 C12         0.5497   -1.3133    6.3305 C.2       1 <0>        -0.4227
     16 C13         0.5761   -1.5886    7.7355 C.1       1 <0>         0.3196
     17 N3          0.5971   -1.8070    8.8501 N.1       1 <0>        -0.5458
     18 C14         0.6280   -2.4139    5.3668 C.2       1 <0>         0.5965
     19 O2          0.7170   -2.1755    4.1764 O.2       1 <0>        -0.5695
     20 N4          0.6015   -3.6905    5.7981 N.am      1 <0>        -0.7471
     21 C15         0.6798   -4.7911    4.8345 C.3       1 <0>         0.1543
     22 C16        -0.7191   -5.0982    4.2962 C.3       1 <0>        -0.1269
     23 C17        -0.6373   -6.2477    3.2898 C.3       1 <0>        -0.1157
     24 C18        -0.0722   -7.4907    3.9800 C.3       1 <0>        -0.1195
     25 C19         1.3267   -7.1836    4.5183 C.3       1 <0>        -0.1141
     26 C20         1.2449   -6.0341    5.5247 C.3       1 <0>        -0.1276
     27 C21        -2.0822   -0.7584    4.1668 C.3       1 <0>        -0.0849
     28 H1         -0.1101    2.6949    0.3622 H         1 <0>         0.0774
     29 H2         -1.7163    3.4610    0.3993 H         1 <0>         0.0600
     30 H3         -1.0116    2.7985    1.8935 H         1 <0>         0.0682
     31 H4         -2.8040    2.0413   -1.1855 H         1 <0>         0.1263
     32 H5         -3.8542   -0.1338   -1.6566 H         1 <0>         0.1236
     33 H6         -3.3870   -2.0701   -0.2106 H         1 <0>         0.1273
     34 H7         -1.8678   -1.8354    1.7111 H         1 <0>         0.1317
     35 H8          2.1549    1.3072    3.8754 H         1 <0>         0.1806
     36 H9          0.5306   -3.8805    6.7467 H         1 <0>         0.3893
     37 H10         1.3321   -4.5057    4.0091 H         1 <0>         0.0813
     38 H11        -1.3713   -5.3837    5.1216 H         1 <0>         0.0579
     39 H12        -1.1216   -4.2127    3.8045 H         1 <0>         0.0668
     40 H13        -1.6339   -6.4665    2.9063 H         1 <0>         0.0586
     41 H14         0.0150   -5.9623    2.4644 H         1 <0>         0.0616
     42 H15        -0.7244   -7.7762    4.8054 H         1 <0>         0.0600
     43 H16        -0.0139   -8.3096    3.2630 H         1 <0>         0.0579
     44 H17         1.7293   -8.0692    5.0100 H         1 <0>         0.0608
     45 H18         1.9790   -6.8982    3.6929 H         1 <0>         0.0628
     46 H19         2.2415   -5.8154    5.9082 H         1 <0>         0.0655
     47 H20         0.5927   -6.3196    6.3500 H         1 <0>         0.0630
     48 H21        -1.9280   -1.8366    4.1234 H         1 <0>         0.0810
     49 H22        -2.2919   -0.4625    5.1947 H         1 <0>         0.0827
     50 H23        -2.9247   -0.4860    3.5312 H         1 <0>         0.0602
@<TRIPOS>BOND
     1    1    2 1
     2    1   28 1
     3    1   29 1
     4    1   30 1
     5    2    7 ar
     6    2    3 ar
     7    3    4 ar
     8    3   31 1
     9    4    5 ar
    10    4   32 1
    11    5    6 ar
    12    5   33 1
    13    6    7 ar
    14    6   34 1
    15    7    8 1
    16    8   12 1
    17    8    9 1
    18    9   10 2
    19    9   27 1
    20   10   11 1
    21   10   13 1
    22   11   12 2
    23   11   35 1
    24   13   14 1
    25   13   15 2
    26   15   16 1
    27   15   18 1
    28   16   17 3
    29   18   19 2
    30   18   20 am
    31   20   21 1
    32   20   36 1
    33   21   26 1
    34   21   22 1
    35   21   37 1
    36   22   23 1
    37   22   38 1
    38   22   39 1
    39   23   24 1
    40   23   40 1
    41   23   41 1
    42   24   25 1
    43   24   42 1
    44   24   43 1
    45   25   26 1
    46   25   44 1
    47   25   45 1
    48   26   46 1
    49   26   47 1
    50   27   48 1
    51   27   49 1
    52   27   50 1
@<TRIPOS>MOLECULE
ZINC13682445
   45    48     0     0     0
SMALL
USER_CHARGES

@<TRIPOS>ATOM
      1 C1         -1.9883    0.6167    0.5459 C.3       1 <0>        -0.1100
      2 C2         -0.9416   -0.4287    0.2587 C.ar      1 <0>        -0.0647
      3 C3         -1.0085   -1.1733   -0.9029 C.ar      1 <0>        -0.1051
      4 C4         -0.0485   -2.1326   -1.1671 C.ar      1 <0>        -0.1129
      5 C5          0.9813   -2.3498   -0.2699 C.ar      1 <0>        -0.1063
      6 C6          1.0537   -1.6087    0.8930 C.ar      1 <0>        -0.1291
      7 C7          0.0942   -0.6405    1.1585 C.ar      1 <0>         0.1446
      8 N1          0.1679    0.1170    2.3353 N.pl3     1 <0>        -0.3268
      9 C8          0.3764   -0.3622    3.5786 C.2       1 <0>         0.3140
     10 C9          0.3902    0.7061    4.4366 C.2       1 <0>        -0.2501
     11 C10         0.1731    1.8561    3.6923 C.2       1 <0>         0.1346
     12 N2          0.0438    1.5128    2.4318 N.2       1 <0>        -0.2826
     13 C11         0.1035    3.2597    4.2365 C.3       1 <0>        -0.0930
     14 C12         0.6209    0.5470    5.9181 C.3       1 <0>         0.0450
     15 H1          1.6856    0.6319    6.1353 H         1 <0>         0.0900
     16 C13         0.1170   -0.8378    6.3375 C.3       1 <0>        -0.1330
     17 C14         0.5475   -1.8930    5.3581 C.2       1 <0>         0.5394
     18 O1          0.8839   -2.9808    5.7763 O.2       1 <0>        -0.5187
     19 N3          0.5716   -1.6679    4.0272 N.am      1 <0>        -0.6468
     20 C15        -0.1369    1.6126    6.6674 C.ar      1 <0>        -0.0878
     21 C16        -1.5143    1.6856    6.5556 C.ar      1 <0>        -0.1256
     22 C17        -2.2143    2.6584    7.2381 C.ar      1 <0>        -0.0832
     23 C18        -1.5295    3.5712    8.0442 C.ar      1 <0>        -0.1281
     24 C19        -0.1388    3.4912    8.1526 C.ar      1 <0>        -0.0836
     25 C20         0.5475    2.5098    7.4684 C.ar      1 <0>        -0.1289
     26 C21        -2.2712    4.6150    8.7770 C.2       1 <0>         0.5175
     27 O2         -3.4884    4.6827    8.6797 O.co2     1 <0>        -0.6876
     28 O3         -1.6689    5.4125    9.4818 O.co2     1 <0>        -0.6873
     29 H2         -1.6310    1.5903    0.2105 H         1 <0>         0.0822
     30 H3         -2.9077    0.3651    0.0172 H         1 <0>         0.0659
     31 H4         -2.1833    0.6507    1.6178 H         1 <0>         0.0685
     32 H5         -1.8118   -1.0062   -1.6052 H         1 <0>         0.1330
     33 H6         -0.1032   -2.7138   -2.0758 H         1 <0>         0.1301
     34 H7          1.7295   -3.1001   -0.4789 H         1 <0>         0.1327
     35 H8          1.8579   -1.7790    1.5934 H         1 <0>         0.1259
     36 H9          1.1001    3.7012    4.2313 H         1 <0>         0.0792
     37 H10        -0.5621    3.8581    3.6144 H         1 <0>         0.0733
     38 H11        -0.2777    3.2352    5.2574 H         1 <0>         0.1025
     39 H12         0.5165   -1.0801    7.3222 H         1 <0>         0.1151
     40 H13        -0.9717   -0.8212    6.3890 H         1 <0>         0.1109
     41 H14         0.7200   -2.3936    3.4010 H         1 <0>         0.4101
     42 H15        -2.0423    0.9793    5.9321 H         1 <0>         0.1095
     43 H16        -3.2892    2.7146    7.1493 H         1 <0>         0.1249
     44 H17         0.3970    4.1935    8.7740 H         1 <0>         0.1266
     45 H18         1.6220    2.4440    7.5547 H         1 <0>         0.1156
@<TRIPOS>BOND
     1    1    2 1
     2    1   29 1
     3    1   30 1
     4    1   31 1
     5    2    7 ar
     6    2    3 ar
     7    3    4 ar
     8    3   32 1
     9    4    5 ar
    10    4   33 1
    11    5    6 ar
    12    5   34 1
    13    6    7 ar
    14    6   35 1
    15    7    8 1
    16    8   12 1
    17    8    9 1
    18    9   19 1
    19    9   10 2
    20   10   11 1
    21   10   14 1
    22   11   12 2
    23   11   13 1
    24   13   36 1
    25   13   37 1
    26   13   38 1
    27   14   15 1
    28   14   16 1
    29   14   20 1
    30   16   17 1
    31   16   39 1
    32   16   40 1
    33   17   18 2
    34   17   19 am
    35   19   41 1
    36   20   25 ar
    37   20   21 ar
    38   21   22 ar
    39   21   42 1
    40   22   23 ar
    41   22   43 1
    42   23   24 ar
    43   23   26 1
    44   24   25 ar
    45   24   44 1
    46   25   45 1
    47   26   27 2
    48   26   28 1
@<TRIPOS>MOLECULE
ZINC66587734
   40    42     0     0     0
SMALL
USER_CHARGES

@<TRIPOS>ATOM
      1 C1         -0.1992    1.5156    0.0462 C.3       1 <0>        -0.1197
      2 C2         -0.1307    0.0103    0.0255 C.ar      1 <0>        -0.0422
      3 C3         -0.1270   -0.6663   -1.1808 C.ar      1 <0>        -0.1481
      4 C4         -0.0665   -2.0460   -1.2025 C.ar      1 <0>        -0.0612
      5 C5         -0.0083   -2.7618   -0.0181 C.ar      1 <0>        -0.1269
      6 C6         -0.0085   -2.0843    1.1911 C.ar      1 <0>         0.1924
      7 C7         -0.0658   -0.6948    1.2103 C.ar      1 <0>        -0.1704
      8 N1          0.0584   -2.7801    2.4031 N.pl3     1 <0>        -0.9385
      9 C8         -0.1742   -4.2308    2.4031 C.3       1 <0>         0.1047
     10 C9          0.6087   -4.8311    1.2281 C.3       1 <0>        -0.1304
     11 C10         0.0508   -4.2654   -0.0777 C.3       1 <0>        -0.0719
     12 S1          0.3949   -1.9817    3.8144 S.o2      1 <0>         2.7144
     13 O1          0.7758   -2.9716    4.7601 O.2       1 <0>        -0.9649
     14 O2          1.2381   -0.8903    3.4725 O.2       1 <0>        -0.9493
     15 C11        -1.1175   -1.2875    4.3936 C.2       1 <0>        -0.7571
     16 C12        -1.6162   -0.0223    4.0757 C.2       1 <0>        -0.0853
     17 C13        -2.8200    0.1149    4.7407 C.2       1 <0>        -0.0259
     18 N2         -3.0376   -1.0496    5.4449 N.pl3     1 <0>        -0.5056
     19 H1         -3.8074   -1.2360    6.0048 H         1 <0>         0.4228
     20 C14        -2.0062   -1.8891    5.2222 C.2       1 <0>         0.0953
     21 C15        -3.7003    1.2809    4.7041 C.2       1 <0>         0.5468
     22 O3         -4.7463    1.2789    5.3415 O.co2     1 <0>        -0.6926
     23 O4         -3.3920    2.2603    4.0362 O.co2     1 <0>        -0.6667
     24 C16        -0.0644   -2.7760   -2.5208 C.3       1 <0>        -0.1118
     25 H2          0.8105    1.9256    0.0230 H         1 <0>         0.0723
     26 H3         -0.7537    1.8660   -0.8243 H         1 <0>         0.0665
     27 H4         -0.7039    1.8439    0.9548 H         1 <0>         0.0770
     28 H5         -0.1718   -0.1144   -2.1080 H         1 <0>         0.1205
     29 H6         -0.0640   -0.1675    2.1528 H         1 <0>         0.1448
     30 H7          0.1787   -4.6613    3.3403 H         1 <0>         0.1041
     31 H8         -1.2380   -4.4341    2.2802 H         1 <0>         0.0766
     32 H9          1.6626   -4.5683    1.3192 H         1 <0>         0.0725
     33 H10         0.4993   -5.9156    1.2324 H         1 <0>         0.0827
     34 H11        -0.9526   -4.6587   -0.2405 H         1 <0>         0.0740
     35 H12         0.6937   -4.5676   -0.9044 H         1 <0>         0.0775
     36 H13        -1.1500    0.7095    3.4327 H         1 <0>         0.1500
     37 H14        -1.9031   -2.8801    5.6391 H         1 <0>         0.1743
     38 H15         0.9625   -2.9067   -2.8621 H         1 <0>         0.0685
     39 H16        -0.5329   -3.7523   -2.3963 H         1 <0>         0.0659
     40 H17        -0.6213   -2.1971   -3.2576 H         1 <0>         0.0652
@<TRIPOS>BOND
     1    1    2 1
     2    1   25 1
     3    1   26 1
     4    1   27 1
     5    2    7 ar
     6    2    3 ar
     7    3    4 ar
     8    3   28 1
     9    4    5 ar
    10    4   24 1
    11    5   11 1
    12    5    6 ar
    13    6    7 ar
    14    6    8 1
    15    7   29 1
    16    8    9 1
    17    8   12 1
    18    9   10 1
    19    9   30 1
    20    9   31 1
    21   10   11 1
    22   10   32 1
    23   10   33 1
    24   11   34 1
    25   11   35 1
    26   12   13 2
    27   12   14 2
    28   12   15 1
    29   15   20 2
    30   15   16 1
    31   16   17 2
    32   16   36 1
    33   17   18 1
    34   17   21 1
    35   18   19 1
    36   18   20 1
    37   20   37 1
    38   21   22 2
    39   21   23 1
    40   24   38 1
    41   24   39 1
    42   24   40 1
@<TRIPOS>MOLECULE
ZINC28716248
   36    39     0     0     0
SMALL
USER_CHARGES
N-[4-(2-naphthyl)thiazol-2-yl]-6-oxo-1H-pyridazine-3-carboxamide
@<TRIPOS>ATOM
      1 C1          2.3085    5.2618    0.0073 C.ar      1 <0>        -0.1177
      2 C2          1.0931    5.9435    0.0223 C.ar      1 <0>        -0.1228
      3 C3         -0.0883    5.2682    0.0304 C.ar      1 <0>        -0.0987
      4 C4         -0.0861    3.8618    0.0237 C.ar      1 <0>        -0.0537
      5 C5         -1.2862    3.1342    0.0312 C.ar      1 <0>        -0.0702
      6 C6         -1.2437    1.7523    0.0175 C.ar      1 <0>        -0.0175
      7 C7         -0.0126    1.0758    0.0080 C.ar      1 <0>        -0.0965
      8 C8          1.1592    1.7618    0.0005 C.ar      1 <0>        -0.1115
      9 C9          1.1505    3.1684    0.0081 C.ar      1 <0>        -0.0507
     10 C10         2.3493    3.9011    0.0000 C.ar      1 <0>        -0.1095
     11 C11        -2.5080    0.9779    0.0188 C.2       1 <0>         0.1211
     12 C12        -2.4820   -0.3861    0.1137 C.2       1 <0>        -0.2627
     13 S1         -4.2310   -0.7549    0.0671 S.3       1 <0>         0.0969
     14 C13        -4.8108    0.9301   -0.0726 C.2       1 <0>         0.3548
     15 N1         -3.6739    1.6010   -0.0664 N.2       1 <0>        -0.5508
     16 N2         -6.1117    1.4071   -0.1589 N.am      1 <0>        -0.6152
     17 C14        -7.1479    0.5454   -0.1418 C.2       1 <0>         0.6053
     18 O1         -6.9434   -0.6494   -0.0508 O.2       1 <0>        -0.5276
     19 C15        -8.5332    1.0533   -0.2337 C.ar      1 <0>        -0.1610
     20 C16        -9.6202    0.1460   -0.2155 C.ar      1 <0>        -0.0290
     21 C17       -10.8834    0.6511   -0.3022 C.ar      1 <0>        -0.2830
     22 C18       -11.0302    2.0524   -0.4052 C.ar      1 <0>         0.4384
     23 O2        -12.1414    2.5491   -0.4855 O.3       1 <0>        -0.5900
     24 N3         -9.9356    2.8358   -0.4145 N.ar      1 <0>        -0.3925
     25 N4         -8.7522    2.3458   -0.3266 N.ar      1 <0>        -0.1491
     26 H1          3.2322    5.8215    0.0011 H         1 <0>         0.1204
     27 H2          1.0888    7.0235    0.0279 H         1 <0>         0.1217
     28 H3         -1.0228    5.8094    0.0424 H         1 <0>         0.1286
     29 H4         -2.2352    3.6496    0.0434 H         1 <0>         0.1404
     30 H5          0.0021   -0.0041    0.0020 H         1 <0>         0.1261
     31 H6          2.0977    1.2276   -0.0117 H         1 <0>         0.1280
     32 H7          3.2990    3.3871   -0.0123 H         1 <0>         0.1247
     33 H8         -1.6383   -1.0555    0.1947 H         1 <0>         0.1922
     34 H9         -6.2967    2.4883   -0.2412 H         1 <0>         0.4662
     35 H10        -9.4529   -0.9179   -0.1354 H         1 <0>         0.1225
     36 H11       -11.7452    0.0003   -0.2922 H         1 <0>         0.1222
@<TRIPOS>BOND
     1    1   10 ar
     2    1    2 ar
     3    1   26 1
     4    2    3 ar
     5    2   27 1
     6    3    4 ar
     7    3   28 1
     8    4    9 ar
     9    4    5 ar
    10    5    6 ar
    11    5   29 1
    12    6    7 ar
    13    6   11 1
    14    7    8 ar
    15    7   30 1
    16    8    9 ar
    17    8   31 1
    18    9   10 ar
    19   10   32 1
    20   11   15 1
    21   11   12 2
    22   12   13 1
    23   12   33 1
    24   13   14 1
    25   14   15 2
    26   14   16 1
    27   16   17 am
    28   16   34 1
    29   17   18 2
    30   17   19 1
    31   19   25 ar
    32   19   20 ar
    33   20   21 ar
    34   20   35 1
    35   21   22 ar
    36   21   36 1
    37   22   23 1
    38   22   24 ar
    39   24   25 ar
@<TRIPOS>MOLECULE
ZINC06786188
   38    41     0     0     0
SMALL
USER_CHARGES

@<TRIPOS>ATOM
      1 C1         -0.0167    1.3795    0.0096 C.ar      1 <0>        -0.0967
      2 C2          1.1682    2.0941    0.0022 C.ar      1 <0>        -0.1278
      3 C3          2.3774    1.4308   -0.0130 C.ar      1 <0>        -0.0782
      4 C4          2.4040    0.0342   -0.0208 C.ar      1 <0>        -0.0698
      5 C5          1.2039   -0.6807   -0.0131 C.ar      1 <0>        -0.0657
      6 C6          0.0021   -0.0041    0.0020 C.ar      1 <0>        -0.1274
      7 C7          3.6931   -0.6822   -0.0374 C.2       1 <0>         0.1711
      8 N1          3.7142   -1.9795   -0.0446 N.2       1 <0>        -0.2323
      9 N2          4.9388   -2.6601   -0.0604 N.pl3     1 <0>        -0.3674
     10 C8          5.6598   -3.0545   -1.1682 C.2       1 <0>         0.1571
     11 N3          6.7420   -3.6580   -0.7277 N.2       1 <0>        -0.2362
     12 N4          6.7478   -3.6682    0.5572 N.2       1 <0>        -0.3238
     13 C9          5.6737   -3.0678    1.0205 C.2       1 <0>         0.3886
     14 S1          5.2559   -2.8351    2.7164 S.3       1 <0>        -0.7743
     15 C10         5.2879   -2.8408   -2.5773 C.2       1 <0>         0.1924
     16 C11         5.8356   -3.4736   -3.6712 C.2       1 <0>        -0.2158
     17 C12         5.1930   -2.9748   -4.8157 C.2       1 <0>         0.1121
     18 N5          4.3002   -2.0843   -4.4372 N.2       1 <0>        -0.2751
     19 N6          4.3317   -1.9825   -3.0410 N.pl3     1 <0>        -0.4691
     20 H1          3.7741   -1.4030   -2.4987 H         1 <0>         0.4343
     21 C13         5.4733   -3.3820   -6.2154 C.ar      1 <0>        -0.0078
     22 C14         6.4452   -4.3437   -6.4824 C.ar      1 <0>        -0.0937
     23 C15         6.7019   -4.7186   -7.7857 C.ar      1 <0>        -0.1210
     24 C16         5.9962   -4.1412   -8.8258 C.ar      1 <0>        -0.1170
     25 C17         5.0302   -3.1858   -8.5664 C.ar      1 <0>        -0.1243
     26 C18         4.7615   -2.8078   -7.2664 C.ar      1 <0>        -0.0937
     27 H2         -0.9606    1.9041    0.0260 H         1 <0>         0.1253
     28 H3          1.1461    3.1739    0.0078 H         1 <0>         0.1285
     29 H4          3.3014    1.9898   -0.0192 H         1 <0>         0.1303
     30 H5          1.2171   -1.7606   -0.0191 H         1 <0>         0.1365
     31 H6         -0.9265   -0.5555    0.0079 H         1 <0>         0.1281
     32 H7          4.6194   -0.1270   -0.0436 H         1 <0>         0.1226
     33 H8          6.6177   -4.2182   -3.6521 H         1 <0>         0.1607
     34 H9          6.9970   -4.7949   -5.6710 H         1 <0>         0.1314
     35 H10         7.4554   -5.4638   -7.9938 H         1 <0>         0.1257
     36 H11         6.2005   -4.4371   -9.8442 H         1 <0>         0.1210
     37 H12         4.4821   -2.7381   -9.3822 H         1 <0>         0.1229
     38 H13         4.0037   -2.0652   -7.0645 H         1 <0>         0.1283
@<TRIPOS>BOND
     1    1    6 ar
     2    1    2 ar
     3    1   27 1
     4    2    3 ar
     5    2   28 1
     6    3    4 ar
     7    3   29 1
     8    4    5 ar
     9    4    7 1
    10    5    6 ar
    11    5   30 1
    12    6   31 1
    13    7    8 2
    14    7   32 1
    15    8    9 1
    16    9   13 1
    17    9   10 1
    18   10   11 2
    19   10   15 1
    20   11   12 1
    21   12   13 2
    22   13   14 1
    23   15   19 1
    24   15   16 2
    25   16   17 1
    26   16   33 1
    27   17   18 2
    28   17   21 1
    29   18   19 1
    30   19   20 1
    31   21   26 ar
    32   21   22 ar
    33   22   23 ar
    34   22   34 1
    35   23   24 ar
    36   23   35 1
    37   24   25 ar
    38   24   36 1
    39   25   26 ar
    40   25   37 1
    41   26   38 1
@<TRIPOS>MOLECULE
ZINC44320088
   44    45     0     0     0
SMALL
USER_CHARGES

@<TRIPOS>ATOM
      1 C1         -0.0187    1.5258    0.0104 C.3       1 <0>        -0.1844
      2 C2          0.0021   -0.0041    0.0020 C.3       1 <0>         0.1364
      3 C3          0.7421   -0.5109    1.2415 C.3       1 <0>        -0.1827
      4 C4         -1.4333   -0.5336    0.0129 C.3       1 <0>        -0.1370
      5 O1          0.6709   -0.4649   -1.1737 O.3       1 <0>        -0.3661
      6 C5          1.9522   -0.0848   -1.3367 C.2       1 <0>         0.6561
      7 O2          2.4879    0.6189   -0.5034 O.2       1 <0>        -0.5749
      8 N1          2.6407   -0.4850   -2.4240 N.am      1 <0>        -0.6704
      9 C6          4.0349   -0.0714   -2.6014 C.3       1 <0>         0.1008
     10 H1          4.5261   -0.0235   -1.6295 H         1 <0>         0.0841
     11 C7          4.7587   -1.0856   -3.4893 C.3       1 <0>        -0.0404
     12 C8          4.8240   -2.4152   -2.7829 C.2       1 <0>        -0.1426
     13 C9          5.8398   -2.8724   -2.0343 C.2       1 <0>         0.0463
     14 N2          5.5413   -4.1192   -1.5541 N.pl3     1 <0>        -0.4870
     15 C10         4.2944   -4.5037   -1.9935 C.ar      1 <0>         0.1208
     16 C11         3.7879   -3.4513   -2.7779 C.ar      1 <0>        -0.1046
     17 C12         2.5230   -3.5604   -3.3581 C.ar      1 <0>        -0.0339
     18 C13         1.7796   -4.6895   -3.1589 C.ar      1 <0>        -0.1799
     19 C14         2.2729   -5.7310   -2.3821 C.ar      1 <0>         0.1135
     20 C15         3.5240   -5.6464   -1.8061 C.ar      1 <0>        -0.1696
     21 F1          1.5236   -6.8396   -2.1952 F         1 <0>        -0.1433
     22 C16         6.4183   -4.9245   -0.7005 C.3       1 <0>         0.0808
     23 C17         4.0770    1.2868   -3.2529 C.2       1 <0>         0.4895
     24 O3          3.0386    1.8566   -3.5423 O.co2     1 <0>        -0.6814
     25 O4          5.1494    1.8160   -3.4906 O.co2     1 <0>        -0.6967
     26 H2          1.0039    1.9031    0.0027 H         1 <0>         0.0920
     27 H3         -0.5459    1.8868   -0.8726 H         1 <0>         0.0585
     28 H4         -0.5289    1.8773    0.9072 H         1 <0>         0.0603
     29 H5          0.2319   -0.1594    2.1383 H         1 <0>         0.0620
     30 H6          0.7568   -1.6008    1.2356 H         1 <0>         0.0535
     31 H7          1.7647   -0.1336    1.2338 H         1 <0>         0.0889
     32 H8         -1.9605   -0.1726   -0.8702 H         1 <0>         0.0646
     33 H9         -1.4185   -1.6235    0.0069 H         1 <0>         0.0622
     34 H10        -1.9435   -0.1821    0.9097 H         1 <0>         0.0736
     35 H11         2.2131   -1.0467   -3.0892 H         1 <0>         0.3914
     36 H12         4.2163   -1.1991   -4.4279 H         1 <0>         0.0718
     37 H13         5.7696   -0.7330   -3.6941 H         1 <0>         0.0966
     38 H14         6.7570   -2.3363   -1.8399 H         1 <0>         0.1719
     39 H15         2.1329   -2.7547   -3.9624 H         1 <0>         0.1305
     40 H16         0.8010   -4.7730   -3.6082 H         1 <0>         0.1339
     41 H17         3.8991   -6.4601   -1.2031 H         1 <0>         0.1265
     42 H18         6.2115   -4.7014    0.3461 H         1 <0>         0.0675
     43 H19         6.2372   -5.9827   -0.8892 H         1 <0>         0.0773
     44 H20         7.4589   -4.6886   -0.9235 H         1 <0>         0.0834
@<TRIPOS>BOND
     1    1    2 1
     2    1   26 1
     3    1   27 1
     4    1   28 1
     5    2    3 1
     6    2    4 1
     7    2    5 1
     8    3   29 1
     9    3   30 1
    10    3   31 1
    11    4   32 1
    12    4   33 1
    13    4   34 1
    14    5    6 1
    15    6    7 2
    16    6    8 am
    17    8    9 1
    18    8   35 1
    19    9   10 1
    20    9   11 1
    21    9   23 1
    22   11   12 1
    23   11   36 1
    24   11   37 1
    25   12   16 1
    26   12   13 2
    27   13   14 1
    28   13   38 1
    29   14   15 1
    30   14   22 1
    31   15   20 ar
    32   15   16 ar
    33   16   17 ar
    34   17   18 ar
    35   17   39 1
    36   18   19 ar
    37   18   40 1
    38   19   20 ar
    39   19   21 1
    40   20   41 1
    41   22   42 1
    42   22   43 1
    43   22   44 1
    44   23   24 2
    45   23   25 1
@<TRIPOS>MOLECULE
ZINC61593179
   43    44     0     0     0
SMALL
USER_CHARGES

@<TRIPOS>ATOM
      1 C1          0.2182    1.4312   -0.6885 C.3       1 <0>        -0.1731
      2 C2         -0.2022    0.0258   -0.2540 C.3       1 <0>        -0.0600
      3 C3          0.4671   -0.3177    1.0782 C.3       1 <0>        -0.1662
      4 C4         -1.7225   -0.0236   -0.0887 C.3       1 <0>        -0.1377
      5 C5          0.2283   -0.9869   -1.3171 C.3       1 <0>        -0.0415
      6 H1         -0.2075   -0.7126   -2.2778 H         1 <0>         0.0894
      7 C6         -0.2551   -2.3824   -0.9176 C.3       1 <0>        -0.1258
      8 C7          0.1755   -3.3950   -1.9806 C.3       1 <0>        -0.1133
      9 C8          1.7012   -3.3971   -2.0947 C.3       1 <0>        -0.1244
     10 C9          2.1847   -2.0015   -2.4943 C.3       1 <0>        -0.1030
     11 C10         1.7541   -0.9889   -1.4312 C.3       1 <0>        -0.0975
     12 C11         2.2302    0.3857   -1.8247 C.2       1 <0>         0.5298
     13 O1          3.0231    0.9822   -1.1162 O.co2     1 <0>        -0.6670
     14 O2          1.8225    0.9013   -2.8516 O.co2     1 <0>        -0.6828
     15 S1          2.4794   -1.4453    0.1676 S.3       1 <0>         0.0284
     16 C12         4.2165   -1.4029   -0.1247 C.2       1 <0>         0.2538
     17 N1          4.7893   -1.0986   -1.2534 N.2       1 <0>        -0.2543
     18 N2          6.1767   -1.1814   -1.0721 N.am      1 <0>        -0.5530
     19 H2          6.8549   -1.0078   -1.7435 H         1 <0>         0.4478
     20 C13         6.3954   -1.5464    0.2081 C.2       1 <0>         0.6477
     21 O3          7.4818   -1.7186    0.7318 O.2       1 <0>        -0.5811
     22 N3          5.1939   -1.6803    0.8041 N.am      1 <0>        -0.5435
     23 C14         4.9669   -2.0601    2.2007 C.3       1 <0>         0.1014
     24 H3          1.2796    1.5723   -0.4848 H         1 <0>         0.1030
     25 H4          0.0340    1.5518   -1.7561 H         1 <0>         0.0685
     26 H5         -0.3596    2.1709   -0.1343 H         1 <0>         0.0297
     27 H6         -0.1358    0.0715    1.8987 H         1 <0>         0.0563
     28 H7          0.5538   -1.4001    1.1728 H         1 <0>         0.0593
     29 H8          1.4599    0.1307    1.1123 H         1 <0>         0.1007
     30 H9         -2.1993    0.2211   -1.0379 H         1 <0>         0.0505
     31 H10        -2.0220   -1.0249    0.2208 H         1 <0>         0.0514
     32 H11        -2.0292    0.6978    0.6686 H         1 <0>         0.0494
     33 H12         0.1808   -2.6567    0.0431 H         1 <0>         0.0674
     34 H13        -1.3420   -2.3810   -0.8363 H         1 <0>         0.0642
     35 H14        -0.1689   -4.3893   -1.6960 H         1 <0>         0.0554
     36 H15        -0.2603   -3.1208   -2.9413 H         1 <0>         0.0587
     37 H16         2.1371   -3.6713   -1.1340 H         1 <0>         0.0676
     38 H17         2.0080   -4.1185   -2.8521 H         1 <0>         0.0548
     39 H18         3.2716   -2.0030   -2.5755 H         1 <0>         0.0753
     40 H19         1.7488   -1.7272   -3.4550 H         1 <0>         0.0730
     41 H20         4.8888   -3.1448    2.2741 H         1 <0>         0.0688
     42 H21         5.8005   -1.7136    2.8115 H         1 <0>         0.0847
     43 H22         4.0424   -1.6044    2.5555 H         1 <0>         0.0870
@<TRIPOS>BOND
     1    1    2 1
     2    1   24 1
     3    1   25 1
     4    1   26 1
     5    2    3 1
     6    2    4 1
     7    2    5 1
     8    3   27 1
     9    3   28 1
    10    3   29 1
    11    4   30 1
    12    4   31 1
    13    4   32 1
    14    5    6 1
    15    5   11 1
    16    5    7 1
    17    7    8 1
    18    7   33 1
    19    7   34 1
    20    8    9 1
    21    8   35 1
    22    8   36 1
    23    9   10 1
    24    9   37 1
    25    9   38 1
    26   10   11 1
    27   10   39 1
    28   10   40 1
    29   11   12 1
    30   11   15 1
    31   12   13 2
    32   12   14 1
    33   15   16 1
    34   16   22 1
    35   16   17 2
    36   17   18 1
    37   18   19 1
    38   18   20 am
    39   20   21 2
    40   20   22 am
    41   22   23 1
    42   23   41 1
    43   23   42 1
    44   23   43 1
@<TRIPOS>MOLECULE
ZINC14609180
   47    50     0     0     0
SMALL
USER_CHARGES

@<TRIPOS>ATOM
      1 C1         -0.0184    1.5028    0.0103 C.3       1 <0>        -0.1100
      2 C2          0.0021   -0.0041    0.0020 C.ar      1 <0>        -0.0981
      3 C3          0.0058   -0.6879   -1.2013 C.ar      1 <0>        -0.1162
      4 C4          0.0245   -2.0712   -1.2183 C.ar      1 <0>        -0.1240
      5 C5          0.0401   -2.7787   -0.0342 C.ar      1 <0>        -0.0908
      6 C6          0.0369   -2.0952    1.1838 C.ar      1 <0>         0.0091
      7 C7          0.0228   -0.6983    1.1934 C.ar      1 <0>        -0.0780
      8 C8          0.0535   -2.8455    2.4553 C.2       1 <0>         0.2727
      9 N1          0.0782   -4.2101    2.5752 N.2       1 <0>        -0.3588
     10 N2          0.0871   -4.4865    3.9493 N.am      1 <0>        -0.3797
     11 C9          0.1096   -5.6319    4.6561 C.2       1 <0>         0.5438
     12 O1          0.1276   -6.7124    4.0898 O.2       1 <0>        -0.5745
     13 C10         0.1123   -5.5578    6.0612 C.2       1 <0>        -0.3895
     14 C11         0.0921   -4.3284    6.6564 C.2       1 <0>         0.2102
     15 N3          0.0699   -3.2243    5.9185 N.2       1 <0>        -0.5706
     16 C12         0.0674   -3.2781    4.5932 C.2       1 <0>         0.4872
     17 N4          0.0528   -2.3126    3.6590 N.2       1 <0>        -0.5584
     18 C13         0.0946   -4.2242    8.1597 C.3       1 <0>         0.1885
     19 N5          1.3365   -3.5859    8.6030 N.pl3     1 <0>        -0.7305
     20 C14         1.5681   -3.3793    9.9648 C.ar      1 <0>         0.2279
     21 C15         0.6243   -3.7837   10.9007 C.ar      1 <0>        -0.2038
     22 C16         0.8567   -3.5784   12.2463 C.ar      1 <0>        -0.0670
     23 C17         2.0271   -2.9705   12.6627 C.ar      1 <0>        -0.1602
     24 C18         2.9683   -2.5664   11.7339 C.ar      1 <0>        -0.0395
     25 C19         2.7450   -2.7743   10.3867 C.ar      1 <0>        -0.1975
     26 C20         4.2417   -1.9035   12.1922 C.3       1 <0>        -0.1167
     27 C21         2.2770   -2.7476   14.1320 C.3       1 <0>        -0.1041
     28 H1          1.0042    1.8801    0.0026 H         1 <0>         0.0678
     29 H2         -0.5455    1.8639   -0.8728 H         1 <0>         0.0631
     30 H3         -0.5286    1.8543    0.9071 H         1 <0>         0.0668
     31 H4         -0.0064   -0.1390   -2.1314 H         1 <0>         0.1192
     32 H5          0.0265   -2.5984   -2.1609 H         1 <0>         0.1232
     33 H6          0.0543   -3.8585   -0.0489 H         1 <0>         0.1306
     34 H7          0.0241   -0.1634    2.1316 H         1 <0>         0.1353
     35 H8          0.1297   -6.4572    6.6588 H         1 <0>         0.1380
     36 H9         -0.7571   -3.6262    8.4839 H         1 <0>         0.0748
     37 H10         0.0240   -5.2219    8.5932 H         1 <0>         0.0750
     38 H11         1.9980   -3.3068    7.9507 H         1 <0>         0.4042
     39 H12        -0.2902   -4.2578   10.5762 H         1 <0>         0.1204
     40 H13         0.1235   -3.8925   12.9744 H         1 <0>         0.1160
     41 H14         3.4827   -2.4628    9.6621 H         1 <0>         0.1172
     42 H15         5.0046   -2.6626   12.3649 H         1 <0>         0.0677
     43 H16         4.5865   -1.2097   11.4255 H         1 <0>         0.0629
     44 H17         4.0550   -1.3588   13.1177 H         1 <0>         0.0681
     45 H18         2.7926   -3.6130   14.5483 H         1 <0>         0.0590
     46 H19         2.8937   -1.8587   14.2649 H         1 <0>         0.0621
     47 H20         1.3255   -2.6098   14.6456 H         1 <0>         0.0570
@<TRIPOS>BOND
     1    1    2 1
     2    1   28 1
     3    1   29 1
     4    1   30 1
     5    2    7 ar
     6    2    3 ar
     7    3    4 ar
     8    3   31 1
     9    4    5 ar
    10    4   32 1
    11    5    6 ar
    12    5   33 1
    13    6    7 ar
    14    6    8 1
    15    7   34 1
    16    8   17 2
    17    8    9 1
    18    9   10 1
    19   10   16 1
    20   10   11 am
    21   11   12 2
    22   11   13 1
    23   13   14 2
    24   13   35 1
    25   14   15 1
    26   14   18 1
    27   15   16 2
    28   16   17 1
    29   18   19 1
    30   18   36 1
    31   18   37 1
    32   19   20 1
    33   19   38 1
    34   20   25 ar
    35   20   21 ar
    36   21   22 ar
    37   21   39 1
    38   22   23 ar
    39   22   40 1
    40   23   24 ar
    41   23   27 1
    42   24   25 ar
    43   24   26 1
    44   25   41 1
    45   26   42 1
    46   26   43 1
    47   26   44 1
    48   27   45 1
    49   27   46 1
    50   27   47 1
@<TRIPOS>MOLECULE
ZINC12463192
   38    40     0     0     0
SMALL
USER_CHARGES
(2S)-2-methyl-N-(4-methyl-2-pyridyl)-3-oxo-4H-1,4-benzoxazine-6-sulfonamide
@<TRIPOS>ATOM
      1 C1          4.9066    1.0077   -0.0398 C.3       1 <0>        -0.1211
      2 C2          3.5744    1.7120   -0.0233 C.ar      1 <0>        -0.0064
      3 C3          3.5046    3.0991   -0.0152 C.ar      1 <0>        -0.2029
      4 C4          2.2690    3.7138    0.0003 C.ar      1 <0>         0.1511
      5 N1          1.1584    3.0009    0.0071 N.ar      1 <0>        -0.5301
      6 C5          1.1831    1.6772   -0.0002 C.ar      1 <0>         0.3824
      7 C6          2.3939    0.9917   -0.0097 C.ar      1 <0>        -0.2008
      8 N2         -0.0111    0.9658    0.0074 N.pl3     1 <0>        -1.0343
      9 S1         -1.4563    1.7742    0.0186 S.o2      1 <0>         2.6972
     10 O1         -2.4755    0.7845   -0.0090 O.2       1 <0>        -0.9506
     11 O2         -1.3685    2.7488    1.0490 O.2       1 <0>        -0.9214
     12 C7         -1.5709    2.6577   -1.5016 C.ar      1 <0>        -0.6683
     13 C8         -1.0881    3.9507   -1.5855 C.ar      1 <0>         0.0194
     14 C9         -1.1698    4.6493   -2.7765 C.ar      1 <0>        -0.1353
     15 C10        -1.7458    4.0554   -3.8859 C.ar      1 <0>         0.1416
     16 C11        -2.2380    2.7541   -3.7996 C.ar      1 <0>         0.0671
     17 C12        -2.1486    2.0579   -2.6057 C.ar      1 <0>        -0.0253
     18 N3         -2.8214    2.1652   -4.9305 N.am      1 <0>        -0.6587
     19 C13        -2.6167    2.7286   -6.1411 C.2       1 <0>         0.4955
     20 O3         -3.1361    2.2542   -7.1292 O.2       1 <0>        -0.5014
     21 C14        -1.7396    3.9490   -6.2590 C.3       1 <0>         0.0774
     22 H1         -2.0641    4.5476   -7.1101 H         1 <0>         0.1573
     23 O4         -1.8375    4.7284   -5.0640 O.3       1 <0>        -0.2938
     24 C15        -0.2873    3.5145   -6.4661 C.3       1 <0>        -0.1782
     25 H2          5.2376    0.8324    0.9838 H         1 <0>         0.0817
     26 H3          4.8069    0.0539   -0.5579 H         1 <0>         0.0733
     27 H4          5.6389    1.6274   -0.5574 H         1 <0>         0.0756
     28 H5          4.4082    3.6907   -0.0207 H         1 <0>         0.1398
     29 H6          2.2101    4.7921    0.0067 H         1 <0>         0.1673
     30 H7          2.4116   -0.0882   -0.0109 H         1 <0>         0.1387
     31 H8          0.0021   -0.0041    0.0020 H         1 <0>         0.4357
     32 H9         -0.6420    4.4156   -0.7188 H         1 <0>         0.1648
     33 H10        -0.7883    5.6577   -2.8395 H         1 <0>         0.1514
     34 H11        -2.5292    1.0495   -2.5369 H         1 <0>         0.1493
     35 H12        -3.3635    1.3653   -4.8449 H         1 <0>         0.4197
     36 H13         0.0381    2.9169   -5.6146 H         1 <0>         0.0654
     37 H14        -0.2122    2.9204   -7.3769 H         1 <0>         0.0871
     38 H15         0.3468    4.3966   -6.5544 H         1 <0>         0.0899
@<TRIPOS>BOND
     1    1    2 1
     2    1   25 1
     3    1   26 1
     4    1   27 1
     5    2    7 ar
     6    2    3 ar
     7    3    4 ar
     8    3   28 1
     9    4    5 ar
    10    4   29 1
    11    5    6 ar
    12    6    7 ar
    13    6    8 1
    14    7   30 1
    15    8    9 1
    16    8   31 1
    17    9   10 2
    18    9   11 2
    19    9   12 1
    20   12   17 ar
    21   12   13 ar
    22   13   14 ar
    23   13   32 1
    24   14   15 ar
    25   14   33 1
    26   15   23 1
    27   15   16 ar
    28   16   17 ar
    29   16   18 1
    30   17   34 1
    31   18   19 am
    32   18   35 1
    33   19   20 2
    34   19   21 1
    35   21   22 1
    36   21   23 1
    37   21   24 1
    38   24   36 1
    39   24   37 1
    40   24   38 1
@<TRIPOS>MOLECULE
ZINC38011943
   34    36     0     0     0
SMALL
USER_CHARGES

@<TRIPOS>ATOM
      1 C1         -0.0184    1.5028    0.0103 C.3       1 <0>        -0.0789
      2 C2          0.0021   -0.0041    0.0020 C.2       1 <0>         0.0964
      3 C3          0.0080   -0.8179   -1.1355 C.2       1 <0>        -0.2692
      4 C4          0.0279   -2.1072   -0.7249 C.2       1 <0>         0.0919
      5 N1          0.0343   -2.1090    0.6245 N.pl3     1 <0>        -0.4717
      6 H1          0.0479   -2.8941    1.1941 H         1 <0>         0.4443
      7 N2          0.0231   -0.7768    1.0576 N.2       1 <0>        -0.2902
      8 C5         -0.0061   -0.3430   -2.5656 C.3       1 <0>         0.2034
      9 N3          1.3465    0.0581   -2.9603 N.pl3     1 <0>        -0.7032
     10 C6          1.5827    0.5332   -4.2416 C.ar      1 <0>         0.4508
     11 C7          0.5138    0.6283   -5.1447 C.ar      1 <0>        -0.2158
     12 C8          0.7309    1.0931   -6.4065 C.ar      1 <0>        -0.0014
     13 C9          2.0424    1.4676   -6.7644 C.ar      1 <0>        -0.1679
     14 C10         2.3360    1.9549   -8.0473 C.ar      1 <0>         0.0137
     15 C11         3.6145    2.3075   -8.3577 C.ar      1 <0>        -0.0744
     16 C12         4.6359    2.1902   -7.4179 C.ar      1 <0>        -0.0483
     17 C13         4.3859    1.7208   -6.1647 C.ar      1 <0>        -0.1035
     18 C14         3.0790    1.3480   -5.8071 C.ar      1 <0>         0.2245
     19 N4          2.8046    0.8895   -4.5803 N.ar      1 <0>        -0.5559
     20 N5          3.9226    2.8213   -9.7112 N.pl3     1 <0>         0.0371
     21 O1          3.0420    2.9259  -10.5330 O.2       1 <0>        -0.1673
     22 O2          5.0547    3.1365   -9.9950 O.3       1 <0>        -0.1587
     23 H2          1.0042    1.8801    0.0026 H         1 <0>         0.0801
     24 H3         -0.5455    1.8639   -0.8728 H         1 <0>         0.0786
     25 H4         -0.5286    1.8543    0.9071 H         1 <0>         0.0768
     26 H5          0.0366   -2.9785   -1.3629 H         1 <0>         0.1810
     27 H6         -0.3493   -1.1499   -3.2131 H         1 <0>         0.0754
     28 H7         -0.6795    0.5090   -2.6589 H         1 <0>         0.0776
     29 H8          2.0769   -0.0086   -2.3255 H         1 <0>         0.4107
     30 H9         -0.4795    0.3331   -4.8403 H         1 <0>         0.1454
     31 H10        -0.0806    1.1726   -7.1147 H         1 <0>         0.1505
     32 H11         1.5525    2.0496   -8.7845 H         1 <0>         0.1579
     33 H12         5.6419    2.4758   -7.6877 H         1 <0>         0.1557
     34 H13         5.1892    1.6353   -5.4478 H         1 <0>         0.1544
@<TRIPOS>BOND
     1    1    2 1
     2    1   23 1
     3    1   24 1
     4    1   25 1
     5    2    7 2
     6    2    3 1
     7    3    4 2
     8    3    8 1
     9    4    5 1
    10    4   26 1
    11    5    6 1
    12    5    7 1
    13    8    9 1
    14    8   27 1
    15    8   28 1
    16    9   10 1
    17    9   29 1
    18   10   19 ar
    19   10   11 ar
    20   11   12 ar
    21   11   30 1
    22   12   13 ar
    23   12   31 1
    24   13   18 ar
    25   13   14 ar
    26   14   15 ar
    27   14   32 1
    28   15   16 ar
    29   15   20 1
    30   16   17 ar
    31   16   33 1
    32   17   18 ar
    33   17   34 1
    34   18   19 ar
    35   20   21 2
    36   20   22 1
@<TRIPOS>MOLECULE
ZINC45631596
   43    45     0     0     0
SMALL
USER_CHARGES

@<TRIPOS>ATOM
      1 C1         -0.0273    1.5233    0.0118 C.3       1 <0>        -0.1560
      2 C2         -0.0060   -0.0066    0.0038 C.3       1 <0>        -0.0831
      3 H1          0.5033   -0.3578   -0.8936 H         1 <0>         0.0938
      4 C3         -1.4421   -0.5365    0.0154 C.3       1 <0>        -0.1233
      5 C4         -1.4198   -2.0663    0.0283 C.3       1 <0>        -0.1183
      6 C5         -0.6955   -2.5561    1.2839 C.3       1 <0>        -0.1274
      7 C6          0.7437   -2.0346    1.2774 C.3       1 <0>        -0.1135
      8 C7          0.7343   -0.5105    1.2378 C.3       1 <0>         0.1312
      9 C8          0.1065    0.0469    2.4944 C.2       1 <0>         0.5428
     10 O1         -1.0276   -0.1255    2.8869 O.2       1 <0>        -0.4533
     11 N1          1.0738    0.7768    3.0876 N.am      1 <0>        -0.5642
     12 C9          2.2112    0.7538    2.3821 C.2       1 <0>         0.7103
     13 O2          3.2245    1.3368    2.7144 O.2       1 <0>        -0.5390
     14 N2          2.1066    0.0122    1.2629 N.am      1 <0>        -0.7161
     15 C10         0.9007    1.5045    4.3472 C.3       1 <0>         0.1007
     16 C11         1.2652    0.6059    5.5007 C.2       1 <0>         0.4913
     17 O3          1.6333   -0.5305    5.2913 O.2       1 <0>        -0.4553
     18 N3          1.1821    1.0651    6.7651 N.am      1 <0>        -0.6592
     19 C12         1.4164    0.2042    7.8362 C.ar      1 <0>         0.3587
     20 C13         1.2261    0.6558    9.1373 C.ar      1 <0>        -0.2052
     21 C14         1.4624   -0.2090   10.1912 C.ar      1 <0>        -0.0473
     22 C15         1.8825   -1.5012    9.9061 C.ar      1 <0>        -0.2026
     23 C16         2.0510   -1.8823    8.5897 C.ar      1 <0>         0.1322
     24 N4          1.8128   -1.0372    7.6050 N.ar      1 <0>        -0.4785
     25 H2          0.9951    1.9010    0.0027 H         1 <0>         0.0608
     26 H3         -0.5558    1.8839   -0.8707 H         1 <0>         0.0704
     27 H4         -0.5365    1.8748    0.9091 H         1 <0>         0.0519
     28 H5         -1.9564   -0.1730    0.9050 H         1 <0>         0.0807
     29 H6         -1.9653   -0.1881   -0.8750 H         1 <0>         0.0732
     30 H7         -2.4421   -2.4445    0.0278 H         1 <0>         0.0691
     31 H8         -0.8979   -2.4295   -0.8571 H         1 <0>         0.0637
     32 H9         -1.2122   -2.1859    2.1694 H         1 <0>         0.0798
     33 H10        -0.6871   -3.6460    1.2969 H         1 <0>         0.0729
     34 H11         1.2558   -2.3711    2.1788 H         1 <0>         0.0774
     35 H12         1.2646   -2.4176    0.3999 H         1 <0>         0.0861
     36 H13         2.8006   -0.1460    0.6039 H         1 <0>         0.4412
     37 H14         1.5474    2.3819    4.3517 H         1 <0>         0.1313
     38 H15        -0.1384    1.8186    4.4455 H         1 <0>         0.1296
     39 H16         0.9592    1.9947    6.9298 H         1 <0>         0.4196
     40 H17         0.8987    1.6681    9.3229 H         1 <0>         0.1374
     41 H18         1.3234    0.1139   11.2123 H         1 <0>         0.1395
     42 H19         2.0760   -2.2010   10.7057 H         1 <0>         0.1372
     43 H20         2.3781   -2.8864    8.3631 H         1 <0>         0.1593
@<TRIPOS>BOND
     1    1    2 1
     2    1   25 1
     3    1   26 1
     4    1   27 1
     5    2    3 1
     6    2    8 1
     7    2    4 1
     8    4    5 1
     9    4   28 1
    10    4   29 1
    11    5    6 1
    12    5   30 1
    13    5   31 1
    14    6    7 1
    15    6   32 1
    16    6   33 1
    17    7    8 1
    18    7   34 1
    19    7   35 1
    20    8   14 1
    21    8    9 1
    22    9   10 2
    23    9   11 am
    24   11   12 am
    25   11   15 1
    26   12   13 2
    27   12   14 am
    28   14   36 1
    29   15   16 1
    30   15   37 1
    31   15   38 1
    32   16   17 2
    33   16   18 am
    34   18   19 1
    35   18   39 1
    36   19   24 ar
    37   19   20 ar
    38   20   21 ar
    39   20   40 1
    40   21   22 ar
    41   21   41 1
    42   22   23 ar
    43   22   42 1
    44   23   24 ar
    45   23   43 1
@<TRIPOS>MOLECULE
ZINC37789415
   36    38     0     0     0
SMALL
USER_CHARGES

@<TRIPOS>ATOM
      1 C1         -0.0184    1.5028    0.0103 C.3       1 <0>        -0.0798
      2 C2          0.0021   -0.0041    0.0020 C.2       1 <0>         0.2878
      3 N1          0.0078   -0.7860   -1.0926 N.pl3     1 <0>        -0.4821
      4 H1         -0.0009   -0.4908   -2.0166 H         1 <0>         0.4421
      5 N2          0.0287   -2.1135   -0.6349 N.2       1 <0>        -0.3053
      6 C3          0.0344   -2.0604    0.6789 C.2       1 <0>         0.2721
      7 N3          0.0230   -0.7751    1.0569 N.2       1 <0>        -0.5296
      8 C4          0.0546   -3.2303    1.5919 C.ar      1 <0>         0.0249
      9 C5          0.0524   -3.0393    2.9726 C.ar      1 <0>        -0.1209
     10 C6          0.0712   -4.1284    3.8207 C.ar      1 <0>        -0.0782
     11 C7          0.0923   -5.4106    3.3053 C.ar      1 <0>        -0.1620
     12 C8          0.0946   -5.6105    1.9301 C.ar      1 <0>         0.2017
     13 C9          0.0700   -4.5212    1.0714 C.ar      1 <0>        -0.1482
     14 N4          0.1169   -6.9079    1.4127 N.pl3     1 <0>        -0.7291
     15 C10         0.1377   -8.0581    2.3198 C.3       1 <0>         0.1254
     16 H2          0.7096   -7.8263    3.2183 H         1 <0>         0.1344
     17 C11         0.7195   -9.2980    1.6108 C.3       1 <0>        -0.1627
     18 C12        -0.4215  -10.2915    1.6406 C.2       1 <0>         0.5285
     19 O1         -0.3877  -11.4135    1.1827 O.2       1 <0>        -0.4761
     20 N5         -1.4740   -9.7352    2.2530 N.am      1 <0>        -0.5771
     21 C13        -1.2708   -8.4787    2.6788 C.2       1 <0>         0.5057
     22 O2         -2.0835   -7.7897    3.2572 O.2       1 <0>        -0.4560
     23 C14        -2.7435  -10.4407    2.4450 C.3       1 <0>         0.0644
     24 H3          1.0042    1.8801    0.0026 H         1 <0>         0.0944
     25 H4         -0.5455    1.8639   -0.8728 H         1 <0>         0.0848
     26 H5         -0.5286    1.8543    0.9071 H         1 <0>         0.1006
     27 H6          0.0363   -2.0388    3.3791 H         1 <0>         0.1341
     28 H7          0.0698   -3.9780    4.8902 H         1 <0>         0.1303
     29 H8          0.1073   -6.2593    3.9730 H         1 <0>         0.1235
     30 H9          0.0673   -4.6742    0.0023 H         1 <0>         0.1297
     31 H10         0.1185   -7.0472    0.4527 H         1 <0>         0.4076
     32 H11         0.9934   -9.0591    0.5832 H         1 <0>         0.1289
     33 H12         1.5792   -9.6847    2.1581 H         1 <0>         0.1350
     34 H13        -2.6705  -11.4420    2.0206 H         1 <0>         0.0946
     35 H14        -2.9616  -10.5126    3.5105 H         1 <0>         0.0790
     36 H15        -3.5429   -9.8922    1.9467 H         1 <0>         0.0774
@<TRIPOS>BOND
     1    1    2 1
     2    1   24 1
     3    1   25 1
     4    1   26 1
     5    2    7 2
     6    2    3 1
     7    3    4 1
     8    3    5 1
     9    5    6 2
    10    6    7 1
    11    6    8 1
    12    8   13 ar
    13    8    9 ar
    14    9   10 ar
    15    9   27 1
    16   10   11 ar
    17   10   28 1
    18   11   12 ar
    19   11   29 1
    20   12   13 ar
    21   12   14 1
    22   13   30 1
    23   14   15 1
    24   14   31 1
    25   15   16 1
    26   15   21 1
    27   15   17 1
    28   17   18 1
    29   17   32 1
    30   17   33 1
    31   18   19 2
    32   18   20 am
    33   20   21 am
    34   20   23 1
    35   21   22 2
    36   23   34 1
    37   23   35 1
    38   23   36 1
@<TRIPOS>MOLECULE
ZINC58322953
   35    38     0     0     0
SMALL
USER_CHARGES

@<TRIPOS>ATOM
      1 C1         -0.0167    1.3791    0.0096 C.ar      1 <0>        -0.0709
      2 C2          1.1939    2.0588    0.0017 C.ar      1 <0>        -0.1593
      3 C3          2.3755    1.3408   -0.0134 C.ar      1 <0>         0.1076
      4 N1          2.3671    0.0235   -0.0209 N.ar      1 <0>        -0.4800
      5 C4          1.2311   -0.6651   -0.0137 C.ar      1 <0>         0.1927
      6 C5          0.0021   -0.0041    0.0020 C.ar      1 <0>        -0.1225
      7 C6          1.2692   -2.1426   -0.0225 C.2       1 <0>         0.2245
      8 N2          2.3949   -2.9307   -0.0380 N.pl3     1 <0>        -0.5560
      9 C7          1.9449   -4.2176   -0.0401 C.2       1 <0>         0.4138
     10 N3          0.6319   -4.1721   -0.0266 N.2       1 <0>        -0.2976
     11 N4          0.2335   -2.9503   -0.0113 N.2       1 <0>        -0.2442
     12 N5          2.7282   -5.3629   -0.0543 N.am      1 <0>        -0.6166
     13 C8          4.0719   -5.2601   -0.0678 C.2       1 <0>         0.5574
     14 O1          4.5965   -4.1667   -0.0675 O.2       1 <0>        -0.5214
     15 C9          4.9226   -6.5040   -0.0833 C.3       1 <0>        -0.1799
     16 H1          4.5242   -7.3529    0.4722 H         1 <0>         0.1408
     17 C10         5.7142   -6.8026   -1.3581 C.3       1 <0>        -0.1299
     18 C11         6.4415   -6.3209   -0.1003 C.3       1 <0>        -0.0353
     19 H2          6.8255   -5.3007   -0.1002 H         1 <0>         0.1509
     20 C12         7.2723   -7.3284    0.6519 C.2       1 <0>         0.0033
     21 C13         8.1002   -7.0572    1.6768 C.2       1 <0>        -0.1901
     22 C14         8.6715   -8.2866    2.0782 C.2       1 <0>        -0.2136
     23 C15         8.1585   -9.2355    1.2746 C.2       1 <0>        -0.0334
     24 O2          7.3072   -8.6502    0.4165 O.3       1 <0>        -0.1752
     25 H3         -0.9523    1.9183    0.0259 H         1 <0>         0.1458
     26 H4          1.2125    3.1386    0.0070 H         1 <0>         0.1428
     27 H5          3.3185    1.8673   -0.0196 H         1 <0>         0.1646
     28 H6         -0.9212   -0.5644    0.0078 H         1 <0>         0.1519
     29 H7          2.3086   -6.2374   -0.0546 H         1 <0>         0.4398
     30 H8          5.8370   -7.8481   -1.6410 H         1 <0>         0.1205
     31 H9          5.6197   -6.0994   -2.1855 H         1 <0>         0.1141
     32 H10         8.2922   -6.0865    2.1096 H         1 <0>         0.1504
     33 H11         9.3834   -8.4352    2.8766 H         1 <0>         0.1513
     34 H12         8.3890  -10.2898    1.3153 H         1 <0>         0.2061
     35 H13         3.3181   -2.6331   -0.0460 H         1 <0>         0.4477
@<TRIPOS>BOND
     1    1    6 ar
     2    1    2 ar
     3    1   25 1
     4    2    3 ar
     5    2   26 1
     6    3    4 ar
     7    3   27 1
     8    4    5 ar
     9    5    6 ar
    10    5    7 1
    11    6   28 1
    12    7    8 1
    13    7   11 2
    14    8    9 1
    15    8   35 1
    16    9   12 1
    17    9   10 2
    18   10   11 1
    19   12   13 am
    20   12   29 1
    21   13   14 2
    22   13   15 1
    23   15   16 1
    24   15   18 1
    25   15   17 1
    26   17   18 1
    27   17   30 1
    28   17   31 1
    29   18   19 1
    30   18   20 1
    31   20   24 1
    32   20   21 2
    33   21   22 1
    34   21   32 1
    35   22   23 2
    36   22   33 1
    37   23   24 1
    38   23   34 1
@<TRIPOS>MOLECULE
ZINC19204529
   28    29     0     0     0
SMALL
USER_CHARGES
7-ethyl-1-hydroxy-3-oxo-2,5,6,8-tetrahydro-2,7-naphthyridine-4-carbonitrile
@<TRIPOS>ATOM
      1 C1          1.2845   -2.4013    1.1123 C.3       1 <0>        -0.1951
      2 C2          1.3792   -1.9617   -0.3501 C.3       1 <0>         0.0505
      3 N1          1.3157   -0.4960   -0.4259 N.3       1 <0>        -0.5339
      4 C3          2.3807    0.1204    0.3810 C.3       1 <0>         0.0562
      5 C4          2.5046    1.5912   -0.0197 C.3       1 <0>        -0.0868
      6 C5          1.1483    2.2442    0.0031 C.2       1 <0>         0.1276
      7 C6         -0.0183    1.5018    0.0103 C.2       1 <0>        -0.3279
      8 C7         -1.2413    2.1508    0.0313 C.2       1 <0>         0.5062
      9 N2         -1.3174    3.5061    0.0367 N.am      1 <0>        -0.6471
     10 H1         -2.2994    4.0018    0.0435 H         1 <0>         0.4239
     11 C8         -0.2034    4.2621    0.0339 C.2       1 <0>         0.5662
     12 O1         -0.2901    5.4782    0.0461 O.2       1 <0>        -0.5916
     13 C9          1.0684    3.6418    0.0162 C.2       1 <0>        -0.3399
     14 C10         2.2606    4.4350    0.0121 C.1       1 <0>         0.3200
     15 N3          3.2064    5.0643    0.0088 N.1       1 <0>        -0.5096
     16 O2         -2.3781    1.4228    0.0407 O.3       1 <0>        -0.6668
     17 C11         0.0021   -0.0041    0.0020 C.3       1 <0>         0.1485
     18 H2          1.3320   -3.4988    1.1691 H         1 <0>         0.0555
     19 H3          0.3323   -2.0530    1.5389 H         1 <0>         0.0610
     20 H4          2.1210   -1.9682    1.6803 H         1 <0>         0.0554
     21 H5          2.3314   -2.3100   -0.7767 H         1 <0>         0.0712
     22 H6          0.5427   -2.3948   -0.9181 H         1 <0>         0.0742
     23 H7          2.1241    0.0426    1.4478 H         1 <0>         0.0395
     24 H8          3.3311   -0.4008    0.1935 H         1 <0>         0.0719
     25 H9          3.1687    2.1093    0.6878 H         1 <0>         0.0770
     26 H10         2.9239    1.6608   -1.0343 H         1 <0>         0.0882
     27 H11        -0.7697   -0.3687   -0.6918 H         1 <0>         0.0774
     28 H12        -0.2141   -0.3706    1.0164 H         1 <0>         0.0284
@<TRIPOS>BOND
     1    1    2 1
     2    1   18 1
     3    1   19 1
     4    1   20 1
     5    2    3 1
     6    2   21 1
     7    2   22 1
     8    3   17 1
     9    3    4 1
    10    4    5 1
    11    4   23 1
    12    4   24 1
    13    5    6 1
    14    5   25 1
    15    5   26 1
    16    6   13 2
    17    6    7 1
    18    7    8 2
    19    7   17 1
    20    8    9 1
    21    8   16 1
    22    9   10 1
    23    9   11 am
    24   11   12 2
    25   11   13 1
    26   13   14 1
    27   14   15 3
    28   17   27 1
    29   17   28 1
@<TRIPOS>MOLECULE
ZINC36724275
   33    34     0     0     0
SMALL
USER_CHARGES

@<TRIPOS>ATOM
      1 C1         -0.0207    1.5293    0.0078 C.3       1 <0>        -0.1354
      2 C2          1.4162    2.0560   -0.0034 C.3       1 <0>        -0.0933
      3 C3          2.1226    1.5888   -1.2781 C.3       1 <0>        -0.1678
      4 H1          1.5759    1.9487   -2.1498 H         1 <0>         0.0661
      5 C4          2.1686    0.0577   -1.2998 C.3       1 <0>         0.1385
      6 N1          0.8020   -0.4587   -1.1433 N.am      1 <0>        -0.6267
      7 C5          0.0011   -0.0024    0.0008 C.3       1 <0>         0.1309
      8 C6          0.2928   -1.3341   -2.0326 C.2       1 <0>         0.7086
      9 O1         -0.8037   -1.8243   -1.8435 O.2       1 <0>        -0.6074
     10 N2          0.9989   -1.6661   -3.1315 N.am      1 <0>        -0.7476
     11 C7          0.4014   -2.5299   -4.1528 C.3       1 <0>         0.1719
     12 C8          1.4058   -2.7498   -5.2859 C.3       1 <0>        -0.1700
     13 C9          1.0349   -2.2182   -6.6718 C.3       1 <0>        -0.1764
     14 C10         1.0131   -3.7235   -6.3988 C.3       1 <0>        -0.1713
     15 C11         3.5267    2.1353   -1.3042 C.2       1 <0>         0.4991
     16 O2          4.4129    1.5127   -1.8641 O.co2     1 <0>        -0.6993
     17 O3          3.7766    3.2001   -0.7654 O.co2     1 <0>        -0.6928
     18 H2         -0.5304    1.8818    0.9045 H         1 <0>         0.0685
     19 H3         -0.5472    1.8898   -0.8759 H         1 <0>         0.0602
     20 H4          1.4039    3.1455    0.0264 H         1 <0>         0.0698
     21 H5          1.9494    1.6751    0.8676 H         1 <0>         0.0555
     22 H6          2.5811   -0.2821   -2.2497 H         1 <0>         0.0777
     23 H7          2.7908   -0.3007   -0.4797 H         1 <0>         0.0652
     24 H8          0.4465   -0.3658    0.9269 H         1 <0>         0.0609
     25 H9         -1.0166   -0.3819   -0.0911 H         1 <0>         0.0861
     26 H10         1.9027   -1.3331   -3.2461 H         1 <0>         0.4019
     27 H11         0.1390   -3.4900   -3.7085 H         1 <0>         0.0673
     28 H12        -0.4962   -2.0558   -4.5499 H         1 <0>         0.0631
     29 H13         2.4561   -2.7130   -4.9968 H         1 <0>         0.1121
     30 H14         0.0754   -1.7117   -6.7763 H         1 <0>         0.0960
     31 H15         1.8413   -1.8313   -7.2947 H         1 <0>         0.0960
     32 H16         1.8052   -4.3269   -6.8423 H         1 <0>         0.0963
     33 H17         0.0393   -4.2073   -6.3239 H         1 <0>         0.0960
@<TRIPOS>BOND
     1    1    7 1
     2    1    2 1
     3    1   18 1
     4    1   19 1
     5    2    3 1
     6    2   20 1
     7    2   21 1
     8    3    4 1
     9    3    5 1
    10    3   15 1
    11    5    6 1
    12    5   22 1
    13    5   23 1
    14    6    7 1
    15    6    8 am
    16    7   24 1
    17    7   25 1
    18    8    9 2
    19    8   10 am
    20   10   11 1
    21   10   26 1
    22   11   12 1
    23   11   27 1
    24   11   28 1
    25   12   14 1
    26   12   13 1
    27   12   29 1
    28   13   14 1
    29   13   30 1
    30   13   31 1
    31   14   32 1
    32   14   33 1
    33   15   16 2
    34   15   17 1
@<TRIPOS>MOLECULE
ZINC40604461
   35    35     0     0     0
SMALL
USER_CHARGES

@<TRIPOS>ATOM
      1 C1         -1.5061   -0.1584   -0.1835 C.3       1 <0>        -0.1446
      2 C2          0.0043   -0.0052    0.0067 C.3       1 <0>        -0.1401
      3 C3          0.7335   -0.6078   -1.1958 C.3       1 <0>         0.1605
      4 H1          0.3470   -0.1751   -2.1185 H         1 <0>         0.0677
      5 C4          0.5408   -2.1389   -1.2131 C.3       1 <0>        -0.1269
      6 C5          1.9259   -2.6582   -1.6814 C.3       1 <0>        -0.1312
      7 C6          2.8826   -1.6428   -1.0081 C.3       1 <0>         0.1012
      8 N1          2.1764   -0.3475   -1.0874 N.am      1 <0>        -0.6393
      9 C7          2.7554    0.8694   -1.0645 C.2       1 <0>         0.7316
     10 O1          2.0658    1.8706   -1.0473 O.2       1 <0>        -0.5963
     11 N2          4.0989    0.9764   -1.0605 N.am      1 <0>        -0.7102
     12 C8          4.7284    2.2990   -1.0356 C.3       1 <0>         0.1807
     13 H2          4.1234    2.9780   -0.4346 H         1 <0>         0.0863
     14 C9          4.8361    2.8396   -2.4629 C.3       1 <0>        -0.1602
     15 C10         6.1271    2.1868   -0.4259 C.3       1 <0>        -0.1965
     16 C11         6.0137    1.7719    1.0185 C.2       1 <0>         0.4876
     17 O2          4.9158    1.5835    1.5142 O.co2     1 <0>        -0.6837
     18 O3          7.0198    1.6247    1.6913 O.co2     1 <0>        -0.7098
     19 H3         -1.8255    0.4299   -1.0438 H         1 <0>         0.0520
     20 H4         -1.7465   -1.2082   -0.3518 H         1 <0>         0.0509
     21 H5         -2.0224    0.1940    0.7094 H         1 <0>         0.0528
     22 H6          0.2545    1.0524    0.0907 H         1 <0>         0.0839
     23 H7          0.3106   -0.5243    0.9149 H         1 <0>         0.0606
     24 H8          0.3073   -2.5095   -0.2150 H         1 <0>         0.0769
     25 H9         -0.2371   -2.4217   -1.9223 H         1 <0>         0.0777
     26 H10         2.1083   -3.6687   -1.3157 H         1 <0>         0.0807
     27 H11         2.0123   -2.6158   -2.7672 H         1 <0>         0.0731
     28 H12         3.0570   -1.9181    0.0320 H         1 <0>         0.0677
     29 H13         3.8262   -1.5928   -1.5516 H         1 <0>         0.0686
     30 H14         4.6491    0.1776   -1.0743 H         1 <0>         0.3878
     31 H15         5.4410    2.1606   -3.0638 H         1 <0>         0.0474
     32 H16         3.8396    2.9195   -2.8972 H         1 <0>         0.0532
     33 H17         5.3044    3.8237   -2.4443 H         1 <0>         0.0589
     34 H18         6.7036    1.4414   -0.9738 H         1 <0>         0.0591
     35 H19         6.6292    3.1522   -0.4882 H         1 <0>         0.0721
@<TRIPOS>BOND
     1    1    2 1
     2    1   19 1
     3    1   20 1
     4    1   21 1
     5    2    3 1
     6    2   22 1
     7    2   23 1
     8    3    4 1
     9    3    8 1
    10    3    5 1
    11    5    6 1
    12    5   24 1
    13    5   25 1
    14    6    7 1
    15    6   26 1
    16    6   27 1
    17    7    8 1
    18    7   28 1
    19    7   29 1
    20    8    9 am
    21    9   10 2
    22    9   11 am
    23   11   12 1
    24   11   30 1
    25   12   13 1
    26   12   14 1
    27   12   15 1
    28   14   31 1
    29   14   32 1
    30   14   33 1
    31   15   16 1
    32   15   34 1
    33   15   35 1
    34   16   17 2
    35   16   18 1
@<TRIPOS>MOLECULE
ZINC44344130
   30    31     0     0     0
SMALL
USER_CHARGES

@<TRIPOS>ATOM
      1 C1         -0.0187    1.5258    0.0104 C.3       1 <0>        -0.1472
      2 C2          0.0021   -0.0041    0.0020 C.3       1 <0>         0.2585
      3 H1          0.5123   -0.3556   -0.8948 H         1 <0>         0.0921
      4 C3          0.7309   -0.5033    1.2229 C.2       1 <0>         0.0419
      5 N1          1.9548   -1.0099    1.2604 N.2       1 <0>        -0.3779
      6 N2          2.2123   -1.3166    2.4860 N.2       1 <0>        -0.1939
      7 N3          1.1936   -1.0199    3.2154 N.2       1 <0>        -0.1945
      8 N4          0.2736   -0.5148    2.4665 N.2       1 <0>        -0.3818
      9 N5         -1.3723   -0.5112    0.0124 N.am      1 <0>        -0.7123
     10 C4         -2.0508   -0.6427   -1.1446 C.2       1 <0>         0.5105
     11 O1         -1.5236   -0.3413   -2.1944 O.2       1 <0>        -0.5488
     12 C5         -3.4646   -1.1643   -1.1339 C.3       1 <0>        -0.1330
     13 C6         -4.0003   -1.2152   -2.5662 C.3       1 <0>        -0.0539
     14 H2         -3.3280   -1.7911   -3.2020 H         1 <0>         0.0901
     15 C7         -5.4199   -1.8279   -2.5889 C.3       1 <0>        -0.1229
     16 C8         -6.0969   -0.9903   -3.6985 C.3       1 <0>        -0.0971
     17 C9         -5.3199    0.3053   -3.7298 C.2       1 <0>        -0.1900
     18 C10        -4.1737    0.1826   -3.1133 C.2       1 <0>        -0.1335
     19 H3          1.0039    1.9031    0.0027 H         1 <0>         0.0616
     20 H4         -0.5459    1.8868   -0.8726 H         1 <0>         0.0564
     21 H5         -0.5289    1.8773    0.9072 H         1 <0>         0.0576
     22 H6         -1.7940   -0.7522    0.8520 H         1 <0>         0.4051
     23 H7         -3.4790   -2.1662   -0.7048 H         1 <0>         0.0928
     24 H8         -4.0912   -0.5035   -0.5349 H         1 <0>         0.0930
     25 H9         -5.3864   -2.8830   -2.8606 H         1 <0>         0.0720
     26 H10        -5.9219   -1.6878   -1.6316 H         1 <0>         0.0724
     27 H11        -6.0224   -1.5009   -4.6586 H         1 <0>         0.0709
     28 H12        -7.1407   -0.8011   -3.4481 H         1 <0>         0.0659
     29 H13        -5.6651    1.2135   -4.2015 H         1 <0>         0.1197
     30 H14        -3.4474    0.9747   -3.0069 H         1 <0>         0.1263
@<TRIPOS>BOND
     1    1    2 1
     2    1   19 1
     3    1   20 1
     4    1   21 1
     5    2    3 1
     6    2    4 1
     7    2    9 1
     8    4    5 1
     9    4    8 2
    10    5    6 1
    11    6    7 2
    12    7    8 1
    13    9   10 am
    14    9   22 1
    15   10   11 2
    16   10   12 1
    17   12   13 1
    18   12   23 1
    19   12   24 1
    20   13   14 1
    21   13   18 1
    22   13   15 1
    23   15   16 1
    24   15   25 1
    25   15   26 1
    26   16   17 1
    27   16   27 1
    28   16   28 1
    29   17   18 2
    30   17   29 1
    31   18   30 1
@<TRIPOS>MOLECULE
ZINC58836868
   31    31     0     0     0
SMALL
USER_CHARGES

@<TRIPOS>ATOM
      1 C1         -0.0173    1.4248    0.0099 C.3       1 <0>         0.0552
      2 O1          0.0021   -0.0041    0.0020 O.3       1 <0>        -0.3718
      3 C2         -1.1891   -0.6316    0.0100 C.2       1 <0>         0.6414
      4 O2         -2.2170    0.0163    0.0233 O.2       1 <0>        -0.5687
      5 N1         -1.2414   -1.9783    0.0033 N.am      1 <0>        -0.7018
      6 C3         -2.5375   -2.6611    0.0120 C.3       1 <0>         0.1316
      7 C4         -2.3165   -4.1750    0.0018 C.3       1 <0>        -0.0939
      8 C5         -1.6521   -4.5845   -1.3142 C.3       1 <0>        -0.1151
      9 C6         -2.5557   -4.1931   -2.4852 C.3       1 <0>        -0.0980
     10 C7         -3.9027   -4.9061   -2.3504 C.3       1 <0>        -0.1518
     11 C8         -4.5671   -4.4966   -1.0344 C.3       1 <0>        -0.1021
     12 C9         -3.6635   -4.8880    0.1365 C.3       1 <0>        -0.1071
     13 C10        -4.7928   -4.5206   -3.5038 C.2       1 <0>         0.4946
     14 O3         -5.4987   -5.3600   -4.0362 O.co2     1 <0>        -0.7061
     15 O4         -4.8069   -3.3692   -3.9045 O.co2     1 <0>        -0.6974
     16 H1          1.0053    1.8021    0.0021 H         1 <0>         0.0997
     17 H2         -0.5445    1.7859   -0.8732 H         1 <0>         0.0608
     18 H3         -0.5275    1.7763    0.9067 H         1 <0>         0.0582
     19 H4         -0.4208   -2.4955   -0.0073 H         1 <0>         0.4042
     20 H5         -3.0899   -2.3806    0.9088 H         1 <0>         0.0673
     21 H6         -3.1069   -2.3711   -0.8710 H         1 <0>         0.0905
     22 H7         -1.6727   -4.4539    0.8360 H         1 <0>         0.0710
     23 H8         -0.6925   -4.0766   -1.4102 H         1 <0>         0.0536
     24 H9         -1.4946   -5.6631   -1.3215 H         1 <0>         0.0617
     25 H10        -2.7132   -3.1146   -2.4779 H         1 <0>         0.0690
     26 H11        -2.0824   -4.4849   -3.4227 H         1 <0>         0.0514
     27 H12        -3.7453   -5.9846   -2.3577 H         1 <0>         0.0580
     28 H13        -4.7246   -3.4180   -1.0272 H         1 <0>         0.0633
     29 H14        -5.5267   -5.0045   -0.9384 H         1 <0>         0.0574
     30 H15        -3.5060   -5.9665    0.1292 H         1 <0>         0.0657
     31 H16        -4.1368   -4.5962    1.0740 H         1 <0>         0.0591
@<TRIPOS>BOND
     1    1    2 1
     2    1   16 1
     3    1   17 1
     4    1   18 1
     5    2    3 1
     6    3    4 2
     7    3    5 am
     8    5    6 1
     9    5   19 1
    10    6    7 1
    11    6   20 1
    12    6   21 1
    13    7   12 1
    14    7    8 1
    15    7   22 1
    16    8    9 1
    17    8   23 1
    18    8   24 1
    19    9   10 1
    20    9   25 1
    21    9   26 1
    22   10   11 1
    23   10   13 1
    24   10   27 1
    25   11   12 1
    26   11   28 1
    27   11   29 1
    28   12   30 1
    29   12   31 1
    30   13   14 2
    31   13   15 1
@<TRIPOS>MOLECULE
ZINC29020250
   32    33     0     0     0
SMALL
USER_CHARGES
(2R)-N-(2,4-dioxoimidazolidin-1-yl)-2-(3-fluorophenoxy)propanamide
@<TRIPOS>ATOM
      1 C1          2.7238   -0.0293   -1.1778 C.3       1 <0>        -0.1806
      2 C2          2.4587    0.9228   -0.0098 C.3       1 <0>         0.0823
      3 H1          2.4212    0.3878    0.9506 H         1 <0>         0.1115
      4 C3          1.1692    1.6649   -0.2493 C.2       1 <0>         0.5220
      5 O1          1.1824    2.8665   -0.4129 O.2       1 <0>        -0.4871
      6 N1          0.0012    0.9932   -0.2818 N.am      1 <0>        -0.4914
      7 N2         -1.1971    1.6823   -0.5102 N.am      1 <0>        -0.4289
      8 C4         -2.2328    2.0014    0.4875 C.3       1 <0>         0.0601
      9 C5         -3.2821    2.7461   -0.3139 C.2       1 <0>         0.5347
     10 O2         -4.3250    3.2086    0.0962 O.2       1 <0>        -0.4621
     11 N3         -2.8163    2.7835   -1.5780 N.am      1 <0>        -0.6855
     12 C6         -1.6288    2.1765   -1.6846 C.2       1 <0>         0.7167
     13 O3         -1.0094    2.0820   -2.7259 O.2       1 <0>        -0.5251
     14 O4          3.5340    1.8581    0.0957 O.3       1 <0>        -0.2853
     15 C7          4.6289    1.4628    0.7969 C.ar      1 <0>         0.1597
     16 C8          4.7123    0.1652    1.2817 C.ar      1 <0>        -0.2247
     17 C9          5.8276   -0.2368    1.9906 C.ar      1 <0>        -0.0476
     18 C10         6.8574    0.6550    2.2264 C.ar      1 <0>        -0.1892
     19 C11         6.7753    1.9521    1.7487 C.ar      1 <0>         0.1432
     20 C12         5.6617    2.3572    1.0339 C.ar      1 <0>        -0.1855
     21 F1          7.7823    2.8224    1.9808 F         1 <0>        -0.1308
     22 H2          3.6651   -0.5710   -1.0029 H         1 <0>         0.0848
     23 H3          2.8008    0.5478   -2.1111 H         1 <0>         0.0834
     24 H4          1.8961   -0.7492   -1.2591 H         1 <0>         0.0846
     25 H5         -0.0113   -0.0961   -0.1290 H         1 <0>         0.4493
     26 H6         -2.6227    1.0692    0.9222 H         1 <0>         0.1308
     27 H7         -1.7962    2.6226    1.2834 H         1 <0>         0.1267
     28 H8         -3.4052    3.2743   -2.3669 H         1 <0>         0.4709
     29 H9          3.9069   -0.5315    1.1015 H         1 <0>         0.1381
     30 H10         5.8937   -1.2480    2.3641 H         1 <0>         0.1391
     31 H11         7.7268    0.3397    2.7841 H         1 <0>         0.1395
     32 H12         5.5970    3.3689    0.6614 H         1 <0>         0.1463
@<TRIPOS>BOND
     1    1    2 1
     2    1   22 1
     3    1   23 1
     4    1   24 1
     5    2    3 1
     6    2    4 1
     7    2   14 1
     8    4    5 2
     9    4    6 am
    10    6    7 1
    11    6   25 1
    12    7   12 am
    13    7    8 1
    14    8    9 1
    15    8   26 1
    16    8   27 1
    17    9   10 2
    18    9   11 am
    19   11   12 am
    20   11   28 1
    21   12   13 2
    22   14   15 1
    23   15   20 ar
    24   15   16 ar
    25   16   17 ar
    26   16   29 1
    27   17   18 ar
    28   17   30 1
    29   18   19 ar
    30   18   31 1
    31   19   20 ar
    32   19   21 1
    33   20   32 1
@<TRIPOS>MOLECULE
ZINC40659857
   28    29     0     0     0
SMALL
USER_CHARGES

@<TRIPOS>ATOM
      1 C1         -0.0647    1.4349   -0.0028 C.ar      1 <0>        -0.0649
      2 C2          1.1163    2.1526   -0.0090 C.ar      1 <0>        -0.1547
      3 C3          2.3304    1.4870   -0.0058 C.ar      1 <0>         0.1158
      4 C4          2.3597    0.1027    0.0036 C.ar      1 <0>        -0.1548
      5 C5          1.1774   -0.6129    0.0098 C.ar      1 <0>        -0.0647
      6 C6         -0.0342    0.0528    0.0066 C.ar      1 <0>        -0.1342
      7 C7         -1.3227   -0.7287    0.0134 C.3       1 <0>         0.1547
      8 N1         -1.7418   -0.9914   -1.3656 N.pl3     1 <0>        -0.6558
      9 C8         -2.9020   -1.6966   -1.6116 C.2       1 <0>         0.5286
     10 C9         -3.3588   -1.8568   -2.9093 C.2       1 <0>        -0.3330
     11 C10        -4.5413   -2.5805   -3.1160 C.2       1 <0>         0.5609
     12 N2         -5.1853   -3.0906   -2.0455 N.am      1 <0>        -0.6386
     13 C11        -4.6947   -2.9036   -0.8040 C.2       1 <0>         0.4593
     14 N3         -3.5928   -2.2369   -0.5954 N.2       1 <0>        -0.5664
     15 O1         -4.9804   -2.7459   -4.2430 O.2       1 <0>        -0.4834
     16 N4         -2.6160   -1.2771   -4.0509 N.pl3     1 <0>         0.0881
     17 O2         -1.5458   -0.7450   -3.8682 O.2       1 <0>        -0.2343
     18 O3         -3.0794   -1.3356   -5.1660 O.3       1 <0>        -0.1284
     19 F1          3.4855    2.1876   -0.0123 F         1 <0>        -0.1344
     20 H1         -1.0118    1.9539   -0.0008 H         1 <0>         0.1358
     21 H2          1.0922    3.2323   -0.0167 H         1 <0>         0.1409
     22 H3          3.3061   -0.4176    0.0058 H         1 <0>         0.1410
     23 H4          1.2000   -1.6926    0.0168 H         1 <0>         0.1363
     24 H5         -1.1712   -1.6745    0.5336 H         1 <0>         0.0948
     25 H6         -2.0943   -0.1526    0.5242 H         1 <0>         0.0919
     26 H7         -1.2036   -0.6695   -2.1057 H         1 <0>         0.4345
     27 H8         -5.2254   -3.3197    0.0396 H         1 <0>         0.2312
     28 H9         -6.0052   -3.5938   -2.1699 H         1 <0>         0.4339
@<TRIPOS>BOND
     1    1    6 ar
     2    1    2 ar
     3    1   20 1
     4    2    3 ar
     5    2   21 1
     6    3    4 ar
     7    3   19 1
     8    4    5 ar
     9    4   22 1
    10    5    6 ar
    11    5   23 1
    12    6    7 1
    13    7    8 1
    14    7   24 1
    15    7   25 1
    16    8    9 1
    17    8   26 1
    18    9   14 1
    19    9   10 2
    20   10   11 1
    21   10   16 1
    22   11   12 am
    23   11   15 2
    24   12   13 1
    25   12   28 1
    26   13   14 2
    27   13   27 1
    28   16   17 2
    29   16   18 1
@<TRIPOS>MOLECULE
ZINC48133022
   36    38     0     0     0
SMALL
USER_CHARGES

@<TRIPOS>ATOM
      1 C1         -0.0143    1.5175    0.0167 C.3       1 <0>        -0.1690
      2 C2          0.0052   -0.0123    0.0009 C.3       1 <0>         0.1907
      3 H1          0.5133   -0.3599   -0.8985 H         1 <0>         0.0949
      4 C3          0.7471   -0.5257    1.2366 C.3       1 <0>        -0.1721
      5 C4          1.1267    0.4978    2.3086 C.3       1 <0>        -0.1812
      6 C5          2.2079   -0.1046    1.4091 C.3       1 <0>        -0.1669
      7 N1         -1.3696   -0.5183    0.0115 N.am      1 <0>        -0.7308
      8 C6         -2.0505   -0.6437   -1.1448 C.2       1 <0>         0.7056
      9 O1         -1.5237   -0.3369   -2.1969 O.2       1 <0>        -0.5702
     10 N2         -3.3153   -1.1092   -1.1351 N.am      1 <0>        -0.6802
     11 C7         -4.0566   -1.1476   -2.3228 C.ar      1 <0>         0.1124
     12 C8         -3.4317   -1.4309   -3.5358 C.ar      1 <0>        -0.0543
     13 C9         -4.2035   -1.4581   -4.6835 C.ar      1 <0>        -0.1320
     14 C10        -5.5663   -1.2040   -4.5897 C.ar      1 <0>         0.3407
     15 N3         -6.1265   -0.9385   -3.4212 N.ar      1 <0>        -0.4802
     16 C11        -5.4235   -0.9096   -2.3060 C.ar      1 <0>         0.1110
     17 N4         -6.3555   -1.2288   -5.7451 N.pl3     1 <0>        -0.3317
     18 C12        -7.6814   -1.0000   -5.8233 C.2       1 <0>         0.2898
     19 N5         -8.0391   -1.1163   -7.0764 N.2       1 <0>        -0.5396
     20 C13        -6.9774   -1.4165   -7.8240 C.2       1 <0>         0.2153
     21 N6         -5.9226   -1.4910   -7.0553 N.2       1 <0>        -0.3103
     22 H2          1.0086    1.8940    0.0089 H         1 <0>         0.0692
     23 H3         -0.5429    1.8833   -0.8635 H         1 <0>         0.0633
     24 H4         -0.5225    1.8651    0.9162 H         1 <0>         0.0624
     25 H5          0.4687   -1.5252    1.5706 H         1 <0>         0.1103
     26 H6          0.8478    1.5368    2.1337 H         1 <0>         0.1043
     27 H7          1.0978    0.1717    3.3483 H         1 <0>         0.0953
     28 H8          2.8903   -0.8269    1.8571 H         1 <0>         0.0986
     29 H9          2.6403    0.5383    0.6424 H         1 <0>         0.0988
     30 H10        -1.7899   -0.7630    0.8508 H         1 <0>         0.3998
     31 H11        -3.7121   -1.4177   -0.3055 H         1 <0>         0.4122
     32 H12        -2.3700   -1.6242   -3.5789 H         1 <0>         0.1630
     33 H13        -3.7523   -1.6739   -5.6407 H         1 <0>         0.1535
     34 H14        -5.9165   -0.6941   -1.3695 H         1 <0>         0.1722
     35 H15        -8.3343   -0.7626   -4.9964 H         1 <0>         0.2276
     36 H16        -6.9863   -1.5694   -8.8931 H         1 <0>         0.2273
@<TRIPOS>BOND
     1    1    2 1
     2    1   22 1
     3    1   23 1
     4    1   24 1
     5    2    3 1
     6    2    4 1
     7    2    7 1
     8    4    6 1
     9    4    5 1
    10    4   25 1
    11    5    6 1
    12    5   26 1
    13    5   27 1
    14    6   28 1
    15    6   29 1
    16    7    8 am
    17    7   30 1
    18    8    9 2
    19    8   10 am
    20   10   11 1
    21   10   31 1
    22   11   16 ar
    23   11   12 ar
    24   12   13 ar
    25   12   32 1
    26   13   14 ar
    27   13   33 1
    28   14   15 ar
    29   14   17 1
    30   15   16 ar
    31   16   34 1
    32   17   21 1
    33   17   18 1
    34   18   19 2
    35   18   35 1
    36   19   20 1
    37   20   21 2
    38   20   36 1
@<TRIPOS>MOLECULE
ZINC51358905
   38    40     0     0     0
SMALL
USER_CHARGES

@<TRIPOS>ATOM
      1 C1         -0.0166    1.3745    0.0096 C.2       1 <0>        -0.1136
      2 C2          1.3142    1.8035   -0.0008 C.2       1 <0>        -0.1829
      3 C3          2.1052    0.7039   -0.0143 C.2       1 <0>         0.0385
      4 N1          1.3201   -0.4008   -0.0127 N.2       1 <0>        -0.4975
      5 C4          0.0021   -0.0041    0.0020 C.2       1 <0>        -0.1128
      6 C5         -1.1691   -0.8871    0.0089 C.2       1 <0>         0.6272
      7 O1         -2.2894   -0.4118    0.0225 O.2       1 <0>        -0.5540
      8 N2         -1.0046   -2.2247    0.0001 N.am      1 <0>        -0.6048
      9 C6          0.2892   -2.9312   -0.0101 C.3       1 <0>         0.1049
     10 C7         -0.0207   -4.3174   -0.6283 C.3       1 <0>        -0.1338
     11 C8         -1.4245   -4.6148   -0.0382 C.3       1 <0>        -0.1482
     12 C9         -2.0858   -3.2210    0.0055 C.3       1 <0>         0.1272
     13 H1         -2.7190   -3.0856   -0.8713 H         1 <0>         0.0918
     14 C10        -2.9195   -3.0773    1.2803 C.3       1 <0>         0.0105
     15 H2         -2.2879   -3.1932    2.1610 H         1 <0>         0.1389
     16 C11        -3.6333   -1.7027    1.3057 C.3       1 <0>        -0.1170
     17 C12        -4.8349   -1.9909    2.2438 C.3       1 <0>        -0.1540
     18 C13        -5.2073   -3.4471    1.8943 C.3       1 <0>        -0.0063
     19 N3         -4.0121   -4.0732    1.2958 N.4       1 <0>        -0.5092
     20 N4          1.7766    3.2095    0.0019 N.pl3     1 <0>         0.0819
     21 O2          0.9709    4.1108    0.0140 O.2       1 <0>        -0.2213
     22 O3          2.9600    3.4567   -0.0080 O.3       1 <0>        -0.2167
     23 H3         -0.8938    2.0043    0.0253 H         1 <0>         0.1243
     24 H4          3.1851    0.7071   -0.0249 H         1 <0>         0.1522
     25 H5          1.0101   -2.3937   -0.6261 H         1 <0>         0.1190
     26 H6          0.6674   -3.0450    1.0059 H         1 <0>         0.0676
     27 H7         -0.0583   -4.2604   -1.7162 H         1 <0>         0.0808
     28 H8          0.7058   -5.0618   -0.3025 H         1 <0>         0.0901
     29 H9         -1.9817   -5.2884   -0.6892 H         1 <0>         0.0880
     30 H10        -1.3406   -5.0294    0.9664 H         1 <0>         0.0786
     31 H11        -2.9852   -0.9339    1.7263 H         1 <0>         0.1267
     32 H12        -3.9745   -1.4214    0.3094 H         1 <0>         0.1142
     33 H13        -4.5360   -1.9098    3.2889 H         1 <0>         0.0919
     34 H14        -5.6642   -1.3181    2.0256 H         1 <0>         0.1088
     35 H15        -5.4917   -3.9845    2.7990 H         1 <0>         0.1285
     36 H16        -6.0303   -3.4581    1.1797 H         1 <0>         0.1295
     37 H17        -4.2187   -4.3653    0.3523 H         1 <0>         0.4248
     38 H18        -3.7346   -4.8731    1.8446 H         1 <0>         0.4261
@<TRIPOS>BOND
     1    1    5 2
     2    1    2 1
     3    1   23 1
     4    2    3 2
     5    2   20 1
     6    3    4 1
     7    3   24 1
     8    4    5 1
     9    5    6 1
    10    6    7 2
    11    6    8 am
    12    8   12 1
    13    8    9 1
    14    9   10 1
    15    9   25 1
    16    9   26 1
    17   10   11 1
    18   10   27 1
    19   10   28 1
    20   11   12 1
    21   11   29 1
    22   11   30 1
    23   12   13 1
    24   12   14 1
    25   14   15 1
    26   14   19 1
    27   14   16 1
    28   16   17 1
    29   16   31 1
    30   16   32 1
    31   17   18 1
    32   17   33 1
    33   17   34 1
    34   18   19 1
    35   18   35 1
    36   18   36 1
    37   19   37 1
    38   19   38 1
    39   20   21 2
    40   20   22 1
@<TRIPOS>MOLECULE
ZINC63050426
   31    32     0     0     0
SMALL
USER_CHARGES

@<TRIPOS>ATOM
      1 C1         -0.0313    1.6528    0.2432 C.3       1 <0>        -0.0940
      2 C2          0.0277    0.1502    0.1443 C.2       1 <0>        -0.2516
      3 C3          0.0928   -0.4759   -1.1041 C.2       1 <0>         0.2536
      4 N1          0.1444   -1.7905   -1.1761 N.2       1 <0>        -0.5366
      5 C4          0.1355   -2.5371   -0.0692 C.2       1 <0>         0.6240
      6 O1          0.1841   -3.7520   -0.1633 O.2       1 <0>        -0.5185
      7 N2          0.0740   -1.9681    1.1493 N.am      1 <0>        -0.5119
      8 C5          0.0241   -0.6155    1.2685 C.2       1 <0>         0.1702
      9 C6          0.0654   -2.8086    2.3491 C.3       1 <0>         0.1448
     10 C7          1.4812   -3.1653    2.7226 C.ar      1 <0>        -0.2002
     11 C8          2.0070   -4.3876    2.3519 C.ar      1 <0>         0.0300
     12 C9          3.3058   -4.7156    2.6941 C.ar      1 <0>        -0.1085
     13 C10         4.0828   -3.8219    3.4085 C.ar      1 <0>         0.0047
     14 C11         3.5634   -2.5983    3.7823 C.ar      1 <0>        -0.1956
     15 C12         2.2606   -2.2631    3.4351 C.ar      1 <0>         0.2806
     16 N3          1.7339   -1.0240    3.8066 N.pl3     1 <0>        -0.8592
     17 N4          3.8658   -6.0264    2.2956 N.pl3     1 <0>         0.0421
     18 O2          3.1876   -6.8089    1.6715 O.2       1 <0>        -0.1620
     19 O3          5.0013   -6.3147    2.5942 O.3       1 <0>        -0.1685
     20 H1          0.9810    2.0534    0.2965 H         1 <0>         0.0723
     21 H2         -0.5356    2.0552   -0.6354 H         1 <0>         0.0767
     22 H3         -0.5820    1.9365    1.1400 H         1 <0>         0.0684
     23 H4          0.1003    0.1165   -2.0071 H         1 <0>         0.1770
     24 H5         -0.0210   -0.1541    2.2440 H         1 <0>         0.1638
     25 H6         -0.4010   -2.2647    3.1705 H         1 <0>         0.1027
     26 H7         -0.4985   -3.7200    2.1503 H         1 <0>         0.1203
     27 H8          1.4028   -5.0879    1.7943 H         1 <0>         0.1611
     28 H9          5.0969   -4.0814    3.6746 H         1 <0>         0.1566
     29 H10         4.1706   -1.9010    4.3405 H         1 <0>         0.1493
     30 H11         0.7986   -0.8257    3.6427 H         1 <0>         0.3972
     31 H12         2.3034   -0.3617    4.2285 H         1 <0>         0.4114
@<TRIPOS>BOND
     1    1    2 1
     2    1   20 1
     3    1   21 1
     4    1   22 1
     5    2    8 2
     6    2    3 1
     7    3    4 2
     8    3   23 1
     9    4    5 1
    10    5    6 2
    11    5    7 am
    12    7    8 1
    13    7    9 1
    14    8   24 1
    15    9   10 1
    16    9   25 1
    17    9   26 1
    18   10   15 ar
    19   10   11 ar
    20   11   12 ar
    21   11   27 1
    22   12   13 ar
    23   12   17 1
    24   13   14 ar
    25   13   28 1
    26   14   15 ar
    27   14   29 1
    28   15   16 1
    29   16   30 1
    30   16   31 1
    31   17   18 2
    32   17   19 1
@<TRIPOS>MOLECULE
ZINC37655477
   30    31     0     0     0
SMALL
USER_CHARGES

@<TRIPOS>ATOM
      1 C1         -0.0164    1.3600    0.0095 C.2       1 <0>         0.0662
      2 C2          1.1263    2.0462    0.0023 C.2       1 <0>        -0.2244
      3 S1          2.3469    0.7429   -0.0164 S.3       1 <0>         0.0983
      4 C3          1.2221   -0.6449   -0.0131 C.2       1 <0>         0.4774
      5 N1          0.0021   -0.0041    0.0020 N.pl3     1 <0>        -0.6656
      6 N2          1.4862   -1.9282   -0.0229 N.2       1 <0>        -0.9578
      7 S2          0.2485   -3.0284   -0.0175 S.o2      1 <0>         2.7296
      8 O1         -0.4092   -2.8936    1.2348 O.2       1 <0>        -0.9860
      9 O2         -0.4327   -2.8794   -1.2557 O.2       1 <0>        -0.9996
     10 N3          0.9335   -4.5360   -0.0326 N.pl3     1 <0>        -0.9745
     11 C4          1.2368   -5.2078   -1.3036 C.3       1 <0>         0.1227
     12 C5          0.5845   -6.5939   -1.2966 C.3       1 <0>        -0.1326
     13 C6          1.0420   -7.3623   -0.0547 C.3       1 <0>        -0.0895
     14 C7          0.5974   -6.6130    1.2034 C.3       1 <0>        -0.1642
     15 H1         -0.4871   -6.5045    1.1981 H         1 <0>         0.0661
     16 C8          1.2550   -5.2247    1.2248 C.3       1 <0>         0.1444
     17 C9          1.0195   -7.3872    2.4255 C.2       1 <0>         0.4994
     18 O3          1.6203   -8.4409    2.3022 O.co2     1 <0>        -0.6926
     19 O4          0.7601   -6.9599    3.5375 O.co2     1 <0>        -0.6967
     20 H2         -0.9598    1.8854    0.0259 H         1 <0>         0.1836
     21 H3          1.2756    3.1158    0.0061 H         1 <0>         0.2104
     22 H4          0.8387   -4.6207   -2.1312 H         1 <0>         0.0830
     23 H5          2.3162   -5.3124   -1.4130 H         1 <0>         0.0693
     24 H6         -0.4999   -6.4856   -1.2784 H         1 <0>         0.0607
     25 H7          0.8811   -7.1400   -2.1921 H         1 <0>         0.0702
     26 H8          0.5987   -8.3581   -0.0601 H         1 <0>         0.0644
     27 H9          2.1286   -7.4488   -0.0610 H         1 <0>         0.0630
     28 H10         2.3359   -5.3308    1.3173 H         1 <0>         0.0669
     29 H11         0.8689   -4.6489    2.0659 H         1 <0>         0.0931
     30 H12        -0.8247   -0.5114    0.0075 H         1 <0>         0.4148
@<TRIPOS>BOND
     1    1    5 1
     2    1    2 2
     3    1   20 1
     4    2    3 1
     5    2   21 1
     6    3    4 1
     7    4    5 1
     8    4    6 2
     9    5   30 1
    10    6    7 1
    11    7    8 2
    12    7    9 2
    13    7   10 1
    14   10   16 1
    15   10   11 1
    16   11   12 1
    17   11   22 1
    18   11   23 1
    19   12   13 1
    20   12   24 1
    21   12   25 1
    22   13   14 1
    23   13   26 1
    24   13   27 1
    25   14   15 1
    26   14   16 1
    27   14   17 1
    28   16   28 1
    29   16   29 1
    30   17   18 2
    31   17   19 1
@<TRIPOS>MOLECULE
ZINC43414060
   44    44     0     0     0
SMALL
USER_CHARGES

@<TRIPOS>ATOM
      1 C1          3.6971   -2.8413   -4.0945 C.3       1 <0>         0.0823
      2 N1          2.8698   -3.0133   -2.8978 N.am      1 <0>        -0.6249
      3 C2          3.2084   -4.0460   -1.9154 C.3       1 <0>         0.1491
      4 C3          4.1401   -3.4691   -0.8809 C.2       1 <0>         0.4356
      5 O1          4.4858   -2.3138   -0.9565 O.2       1 <0>        -0.4873
      6 O2          4.5859   -4.2386    0.1245 O.3       1 <0>        -0.3595
      7 C4          5.4662   -3.6263    1.0690 C.3       1 <0>         0.0348
      8 C5          1.7972   -2.2214   -2.7005 C.2       1 <0>         0.7078
      9 O3          1.1627   -2.3036   -1.6666 O.2       1 <0>        -0.5840
     10 N2          1.4279   -1.3384   -3.6494 N.am      1 <0>        -0.7274
     11 C6          0.3301   -0.4030   -3.3921 C.3       1 <0>         0.1337
     12 C7          0.1988    0.5655   -4.5693 C.3       1 <0>        -0.0385
     13 C8          1.5380    1.2670   -4.8044 C.3       1 <0>        -0.1143
     14 C9          1.4066    2.2354   -5.9816 C.3       1 <0>        -0.1206
     15 C10         1.0099    1.4591   -7.2389 C.3       1 <0>        -0.1149
     16 C11        -0.3292    0.7575   -7.0038 C.3       1 <0>        -0.1193
     17 C12        -0.1979   -0.2109   -5.8266 C.3       1 <0>        -0.1102
     18 C13        -0.8750    1.6087   -4.2541 C.3       1 <0>        -0.1751
     19 C14        -0.4972    2.3557   -3.0010 C.2       1 <0>         0.4913
     20 O4          0.5616    2.1177   -2.4452 O.co2     1 <0>        -0.6810
     21 O5         -1.2503    3.1981   -2.5429 O.co2     1 <0>        -0.7058
     22 H1          3.3600   -3.5279   -4.8710 H         1 <0>         0.0582
     23 H2          3.6088   -1.8157   -4.4529 H         1 <0>         0.0734
     24 H3          4.7382   -3.0523   -3.8499 H         1 <0>         0.0691
     25 H4          2.2983   -4.3972   -1.4291 H         1 <0>         0.1263
     26 H5          3.6965   -4.8804   -2.4190 H         1 <0>         0.1186
     27 H6          5.7505   -4.3562    1.8269 H         1 <0>         0.0994
     28 H7          6.3588   -3.2694    0.5554 H         1 <0>         0.0574
     29 H8          4.9606   -2.7862    1.5452 H         1 <0>         0.0607
     30 H9          1.8889   -1.3222   -4.5027 H         1 <0>         0.3897
     31 H10        -0.6001   -0.9584   -3.2730 H         1 <0>         0.0458
     32 H11         0.5372    0.1585   -2.4811 H         1 <0>         0.1157
     33 H12         1.8206    1.8201   -3.9087 H         1 <0>         0.1096
     34 H13         2.3030    0.5238   -5.0290 H         1 <0>         0.0359
     35 H14         0.6416    2.9787   -5.7571 H         1 <0>         0.0648
     36 H15         2.3607    2.7352   -6.1491 H         1 <0>         0.0517
     37 H16         0.9164    2.1490   -8.0776 H         1 <0>         0.0519
     38 H17         1.7750    0.7158   -7.4635 H         1 <0>         0.0534
     39 H18        -1.0943    1.5008   -6.7792 H         1 <0>         0.0659
     40 H19        -0.6119    0.2044   -7.8995 H         1 <0>         0.0516
     41 H20         0.5671   -0.9542   -6.0511 H         1 <0>         0.0501
     42 H21        -1.1520   -0.7107   -5.6591 H         1 <0>         0.0564
     43 H22        -0.9554    2.3099   -5.0848 H         1 <0>         0.0679
     44 H23        -1.8330    1.1105   -4.1052 H         1 <0>         0.0550
@<TRIPOS>BOND
     1    1    2 1
     2    1   22 1
     3    1   23 1
     4    1   24 1
     5    2    3 1
     6    2    8 am
     7    3    4 1
     8    3   25 1
     9    3   26 1
    10    4    5 2
    11    4    6 1
    12    6    7 1
    13    7   27 1
    14    7   28 1
    15    7   29 1
    16    8    9 2
    17    8   10 am
    18   10   11 1
    19   10   30 1
    20   11   12 1
    21   11   31 1
    22   11   32 1
    23   12   17 1
    24   12   13 1
    25   12   18 1
    26   13   14 1
    27   13   33 1
    28   13   34 1
    29   14   15 1
    30   14   35 1
    31   14   36 1
    32   15   16 1
    33   15   37 1
    34   15   38 1
    35   16   17 1
    36   16   39 1
    37   16   40 1
    38   17   41 1
    39   17   42 1
    40   18   19 1
    41   18   43 1
    42   18   44 1
    43   19   20 2
    44   19   21 1
@<TRIPOS>MOLECULE
ZINC45045890
   38    39     0     0     0
SMALL
USER_CHARGES

@<TRIPOS>ATOM
      1 C1         -0.2786    1.4816    0.5655 C.3       1 <0>        -0.1814
      2 C2         -0.2908   -0.0477    0.5227 C.3       1 <0>         0.1858
      3 C3          0.5647   -0.5319   -0.6497 C.3       1 <0>        -0.1508
      4 C4          0.5525   -2.0613   -0.6925 C.3       1 <0>        -0.1080
      5 C5          1.1219   -2.6127    0.6162 C.3       1 <0>        -0.1221
      6 C6          0.2664   -2.1285    1.7886 C.3       1 <0>        -0.1201
      7 C7          0.2785   -0.5991    1.8314 C.3       1 <0>        -0.1128
      8 N1         -1.6668   -0.5205    0.3512 N.pl3     1 <0>        -1.1087
      9 S1         -2.4735   -0.2247   -1.0644 S.o2      1 <0>         2.7291
     10 O1         -1.6162   -0.6463   -2.1162 O.2       1 <0>        -0.9656
     11 O2         -3.7870   -0.7411   -0.8988 O.2       1 <0>        -0.9719
     12 C8         -2.6352    1.5233   -1.2164 C.2       1 <0>        -0.8242
     13 C9         -3.6013    2.3179   -0.5908 C.2       1 <0>         0.1032
     14 N2         -3.3996    3.5612   -0.9447 N.2       1 <0>        -0.2450
     15 N3         -2.2971    3.5971   -1.8081 N.pl3     1 <0>        -0.3030
     16 C10        -1.8429    2.3348   -1.9545 C.2       1 <0>         0.1585
     17 C11        -1.7332    4.7943   -2.4366 C.3       1 <0>         0.0415
     18 C12        -2.8140    5.5194   -3.1963 C.2       1 <0>         0.4886
     19 O3         -3.9501    5.0770   -3.2113 O.co2     1 <0>        -0.6606
     20 O4         -2.5524    6.5482   -3.7958 O.co2     1 <0>        -0.6884
     21 H1          0.7064    1.8285    0.8776 H         1 <0>         0.0667
     22 H2         -0.5050    1.8746   -0.4256 H         1 <0>         0.0688
     23 H3         -1.0286    1.8312    1.2751 H         1 <0>         0.0669
     24 H4          0.1591   -0.1391   -1.5821 H         1 <0>         0.1006
     25 H5          1.5885   -0.1802   -0.5221 H         1 <0>         0.0705
     26 H6         -0.4712   -2.4131   -0.8201 H         1 <0>         0.0634
     27 H7          1.1620   -2.4063   -1.5278 H         1 <0>         0.0616
     28 H8          1.1132   -3.7022    0.5857 H         1 <0>         0.0582
     29 H9          2.1456   -2.2609    0.7438 H         1 <0>         0.0593
     30 H10        -0.7574   -2.4803    1.6610 H         1 <0>         0.0639
     31 H11         0.6720   -2.5213    2.7209 H         1 <0>         0.0603
     32 H12         1.3023   -0.2474    1.9590 H         1 <0>         0.0745
     33 H13        -0.3309   -0.2542    2.6667 H         1 <0>         0.0685
     34 H14        -2.1052   -1.0069    1.0668 H         1 <0>         0.4136
     35 H15        -4.3794    1.9659    0.0704 H         1 <0>         0.1858
     36 H16        -0.9997    2.0272   -2.5552 H         1 <0>         0.1821
     37 H17        -1.3266    5.4511   -1.6675 H         1 <0>         0.0919
     38 H18        -0.9385    4.5039   -3.1237 H         1 <0>         0.0991
@<TRIPOS>BOND
     1    1    2 1
     2    1   21 1
     3    1   22 1
     4    1   23 1
     5    2    7 1
     6    2    3 1
     7    2    8 1
     8    3    4 1
     9    3   24 1
    10    3   25 1
    11    4    5 1
    12    4   26 1
    13    4   27 1
    14    5    6 1
    15    5   28 1
    16    5   29 1
    17    6    7 1
    18    6   30 1
    19    6   31 1
    20    7   32 1
    21    7   33 1
    22    8    9 1
    23    8   34 1
    24    9   10 2
    25    9   11 2
    26    9   12 1
    27   12   16 2
    28   12   13 1
    29   13   14 2
    30   13   35 1
    31   14   15 1
    32   15   16 1
    33   15   17 1
    34   16   36 1
    35   17   18 1
    36   17   37 1
    37   17   38 1
    38   18   19 2
    39   18   20 1
@<TRIPOS>MOLECULE
ZINC16524366
   29    31     0     0     0
SMALL
USER_CHARGES

@<TRIPOS>ATOM
      1 C1         -0.0167    1.3819    0.0096 C.ar      1 <0>        -0.1082
      2 C2          1.1651    2.0988    0.0022 C.ar      1 <0>        -0.0945
      3 C3          2.3854    1.4416   -0.0134 C.ar      1 <0>        -0.0523
      4 C4          2.4197    0.0564   -0.0211 C.ar      1 <0>        -0.1175
      5 C5          1.2146   -0.6746   -0.0131 C.ar      1 <0>        -0.1449
      6 C6          0.0021   -0.0041    0.0020 C.ar      1 <0>        -0.0480
      7 C7          1.6061   -2.0999   -0.0250 C.2       1 <0>         0.5785
      8 O1          0.8430   -3.0446   -0.0230 O.2       1 <0>        -0.4769
      9 N1          2.9491   -2.1754   -0.0390 N.am      1 <0>        -0.5695
     10 C8          3.5027   -0.9494   -0.0377 C.2       1 <0>         0.5171
     11 O2          4.6932   -0.7091   -0.0487 O.2       1 <0>        -0.3337
     12 C9          3.7088   -3.4280   -0.0532 C.3       1 <0>         0.1473
     13 S1          4.0051   -3.9360   -1.7692 S.3       1 <0>        -0.0595
     14 C10         5.2688   -2.8414   -2.3257 C.2       1 <0>         0.3498
     15 N2          5.7440   -1.9309   -1.5002 N.2       1 <0>        -0.5281
     16 C11         6.7020   -1.0823   -1.8831 C.2       1 <0>         0.4582
     17 O3          7.1742   -0.1560   -1.0167 O.3       1 <0>        -0.6629
     18 C12         7.2110   -1.1535   -3.1691 C.2       1 <0>        -0.4871
     19 C13         6.7027   -2.1227   -4.0420 C.2       1 <0>         0.5252
     20 O4          7.1276   -2.2151   -5.1827 O.2       1 <0>        -0.6111
     21 N3          5.7390   -2.9570   -3.5987 N.am      1 <0>        -0.6332
     22 H1         -0.9613    1.9053    0.0260 H         1 <0>         0.1377
     23 H2          1.1375    3.1784    0.0082 H         1 <0>         0.1386
     24 H3          3.3057    2.0069   -0.0199 H         1 <0>         0.1427
     25 H4         -0.9244   -0.5590    0.0082 H         1 <0>         0.1383
     26 H5          4.6634   -3.2797    0.4518 H         1 <0>         0.1364
     27 H6          3.1415   -4.2029    0.4623 H         1 <0>         0.1423
     28 H7          7.9854   -0.4738   -3.4926 H         1 <0>         0.1197
     29 H8          5.3781   -3.6372   -4.1886 H         1 <0>         0.3957
@<TRIPOS>BOND
     1    1    6 ar
     2    1    2 ar
     3    1   22 1
     4    2    3 ar
     5    2   23 1
     6    3    4 ar
     7    3   24 1
     8    4   10 1
     9    4    5 ar
    10    5    6 ar
    11    5    7 1
    12    6   25 1
    13    7    8 2
    14    7    9 am
    15    9   10 am
    16    9   12 1
    17   10   11 2
    18   12   26 1
    19   12   27 1
    20   12   13 1
    21   13   14 1
    22   14   15 2
    23   14   21 1
    24   15   16 1
    25   16   18 2
    26   16   17 1
    27   18   19 1
    28   18   28 1
    29   19   20 2
    30   19   21 am
    31   21   29 1
@<TRIPOS>MOLECULE
ZINC62873781
   45    45     0     0     0
SMALL
USER_CHARGES

@<TRIPOS>ATOM
      1 C1         -0.6264    2.3177   -1.9469 C.3       1 <0>        -0.1462
      2 C2         -0.1533    0.9903   -1.3508 C.3       1 <0>        -0.1337
      3 C3          0.6206    0.2027   -2.4099 C.3       1 <0>        -0.0830
      4 C4          1.0008   -1.1690   -1.8487 C.3       1 <0>        -0.1395
      5 C5          1.7140   -1.9835   -2.9304 C.3       1 <0>        -0.0864
      6 C6          0.7961   -2.1352   -4.1456 C.3       1 <0>        -0.1374
      7 C7         -0.4726   -2.8874   -3.7315 C.3       1 <0>         0.1319
      8 N1         -1.0871   -2.1883   -2.5946 N.am      1 <0>        -0.6164
      9 C8         -0.2656   -1.9102   -1.4086 C.3       1 <0>         0.0938
     10 C9         -2.3796   -1.8089   -2.6391 C.2       1 <0>         0.7201
     11 O1         -2.9882   -1.8461   -3.6910 O.2       1 <0>        -0.5972
     12 N2         -2.9974   -1.3884   -1.5175 N.am      1 <0>        -0.6174
     13 C10        -2.4099   -1.6748   -0.2063 C.3       1 <0>         0.0726
     14 C11        -4.2563   -0.6449   -1.6095 C.3       1 <0>         0.1222
     15 C12        -5.4130   -1.6105   -1.5828 C.2       1 <0>         0.4949
     16 O2         -5.2062   -2.8023   -1.4955 O.2       1 <0>        -0.5219
     17 N3         -6.6774   -1.1495   -1.6560 N.am      1 <0>        -0.7415
     18 C13        -7.8019   -2.0882   -1.6300 C.3       1 <0>         0.0901
     19 C14         1.9169   -0.9920   -0.6653 C.2       1 <0>         0.5069
     20 O3          1.5373   -0.3693    0.3117 O.co2     1 <0>        -0.6896
     21 O4          3.0377   -1.4715   -0.6850 O.co2     1 <0>        -0.6932
     22 H1          0.2370    2.8980   -2.2724 H         1 <0>         0.0459
     23 H2         -1.2754    2.1219   -2.8005 H         1 <0>         0.0400
     24 H3         -1.1777    2.8788   -1.1924 H         1 <0>         0.0447
     25 H4          0.4956    1.1861   -0.4973 H         1 <0>         0.0977
     26 H5         -1.0167    0.4100   -1.0253 H         1 <0>         0.0525
     27 H6         -0.0031    0.0733   -3.2944 H         1 <0>         0.0477
     28 H7          1.5249    0.7482   -2.6796 H         1 <0>         0.0475
     29 H8          2.6284   -1.4703   -3.2278 H         1 <0>         0.0608
     30 H9          1.9625   -2.9695   -2.5377 H         1 <0>         0.0581
     31 H10         0.5272   -1.1489   -4.5237 H         1 <0>         0.0649
     32 H11         1.3133   -2.6954   -4.9245 H         1 <0>         0.0646
     33 H12        -1.1722   -2.9115   -4.5670 H         1 <0>         0.0844
     34 H13        -0.2148   -3.9051   -3.4386 H         1 <0>         0.0586
     35 H14         0.0091   -2.8483   -0.9263 H         1 <0>         0.0549
     36 H15        -0.8286   -1.2896   -0.7115 H         1 <0>         0.1253
     37 H16        -1.8271   -0.8158    0.1261 H         1 <0>         0.0757
     38 H17        -3.2049   -1.8745    0.5122 H         1 <0>         0.0612
     39 H18        -1.7608   -2.5471   -0.2817 H         1 <0>         0.0853
     40 H19        -4.3359    0.0408   -0.7659 H         1 <0>         0.1061
     41 H20        -4.2768   -0.0790   -2.5409 H         1 <0>         0.1086
     42 H21        -6.8429   -0.1963   -1.7258 H         1 <0>         0.4005
     43 H22        -7.7224   -2.7739   -2.4736 H         1 <0>         0.0569
     44 H23        -7.7814   -2.6541   -0.6986 H         1 <0>         0.0566
     45 H24        -8.7386   -1.5350   -1.6985 H         1 <0>         0.0723
@<TRIPOS>BOND
     1    1    2 1
     2    1   22 1
     3    1   23 1
     4    1   24 1
     5    2    3 1
     6    2   25 1
     7    2   26 1
     8    3    4 1
     9    3   27 1
    10    3   28 1
    11    4    9 1
    12    4    5 1
    13    4   19 1
    14    5    6 1
    15    5   29 1
    16    5   30 1
    17    6    7 1
    18    6   31 1
    19    6   32 1
    20    7    8 1
    21    7   33 1
    22    7   34 1
    23    8    9 1
    24    8   10 am
    25    9   35 1
    26    9   36 1
    27   10   11 2
    28   10   12 am
    29   12   13 1
    30   12   14 1
    31   13   37 1
    32   13   38 1
    33   13   39 1
    34   14   15 1
    35   14   40 1
    36   14   41 1
    37   15   16 2
    38   15   17 am
    39   17   18 1
    40   17   42 1
    41   18   43 1
    42   18   44 1
    43   18   45 1
    44   19   20 2
    45   19   21 1
@<TRIPOS>MOLECULE
ZINC36733862
   39    41     0     0     0
SMALL
USER_CHARGES

@<TRIPOS>ATOM
      1 C1          2.0512    0.5704   -0.2462 C.3       1 <0>        -0.0898
      2 C2          0.9024   -0.3962   -0.1160 C.2       1 <0>         0.0973
      3 C3         -0.0116   -0.6899   -1.0759 C.2       1 <0>        -0.0112
      4 C4         -0.9041   -1.6327   -0.5453 C.2       1 <0>         0.0938
      5 N1         -0.5420   -1.8959    0.6841 N.2       1 <0>        -0.2870
      6 N2          0.5967   -1.1362    0.9810 N.pl3     1 <0>        -0.4730
      7 H1          1.0800   -1.1368    1.8221 H         1 <0>         0.4431
      8 C5         -2.0794   -2.2391   -1.2678 C.3       1 <0>        -0.0710
      9 N3         -0.0559   -0.1447   -2.3729 N.am      1 <0>        -0.6508
     10 C6          0.3532   -0.8785   -3.4267 C.2       1 <0>         0.5163
     11 O1          0.6703   -2.0390   -3.2711 O.2       1 <0>        -0.5089
     12 C7          0.4167   -0.2574   -4.7983 C.3       1 <0>         0.1405
     13 H2          0.8101    0.7567   -4.7279 H         1 <0>         0.0986
     14 C8         -0.9918   -0.2315   -5.4284 C.3       1 <0>        -0.1238
     15 C9         -0.7119   -0.5600   -6.9187 C.3       1 <0>        -0.1321
     16 C10         0.4596   -1.5667   -6.8005 C.3       1 <0>         0.1235
     17 N4          1.2756   -1.0672   -5.6746 N.pl3     1 <0>        -0.5739
     18 C11         2.6222   -1.3182   -5.4762 C.ar      1 <0>         0.5925
     19 N5          3.2257   -0.8066   -4.4135 N.ar      1 <0>        -0.5637
     20 C12         4.5113   -1.0276   -4.1942 C.ar      1 <0>         0.1924
     21 C13         5.2265   -1.8045   -5.0920 C.ar      1 <0>        -0.2944
     22 C14         4.5641   -2.3241   -6.1930 C.ar      1 <0>         0.1926
     23 N6          3.2758   -2.0690   -6.3506 N.ar      1 <0>        -0.5675
     24 H3          2.9283    0.0437   -0.6224 H         1 <0>         0.0835
     25 H4          1.7798    1.3660   -0.9401 H         1 <0>         0.0858
     26 H5          2.2765    1.0005    0.7296 H         1 <0>         0.0731
     27 H6         -1.8015   -3.2194   -1.6550 H         1 <0>         0.0785
     28 H7         -2.9155   -2.3452   -0.5765 H         1 <0>         0.0751
     29 H8         -2.3713   -1.5913   -2.0944 H         1 <0>         0.0723
     30 H9         -0.3809    0.7592   -2.5082 H         1 <0>         0.4028
     31 H10        -1.6295   -0.9926   -4.9788 H         1 <0>         0.0842
     32 H11        -1.4406    0.7569   -5.3290 H         1 <0>         0.0962
     33 H12        -1.5803   -1.0242   -7.3862 H         1 <0>         0.0932
     34 H13        -0.4065    0.3325   -7.4648 H         1 <0>         0.0820
     35 H14         0.0811   -2.5653   -6.5826 H         1 <0>         0.0696
     36 H15         1.0470   -1.5747   -7.7187 H         1 <0>         0.0862
     37 H16         4.9978   -0.6075   -3.3263 H         1 <0>         0.1634
     38 H17         6.2773   -2.0003   -4.9371 H         1 <0>         0.1432
     39 H18         5.0926   -2.9331   -6.9115 H         1 <0>         0.1670
@<TRIPOS>BOND
     1    1    2 1
     2    1   24 1
     3    1   25 1
     4    1   26 1
     5    2    6 1
     6    2    3 2
     7    3    4 1
     8    3    9 1
     9    4    5 2
    10    4    8 1
    11    5    6 1
    12    6    7 1
    13    8   27 1
    14    8   28 1
    15    8   29 1
    16    9   10 am
    17    9   30 1
    18   10   11 2
    19   10   12 1
    20   12   13 1
    21   12   17 1
    22   12   14 1
    23   14   15 1
    24   14   31 1
    25   14   32 1
    26   15   16 1
    27   15   33 1
    28   15   34 1
    29   16   17 1
    30   16   35 1
    31   16   36 1
    32   17   18 1
    33   18   23 ar
    34   18   19 ar
    35   19   20 ar
    36   20   21 ar
    37   20   37 1
    38   21   22 ar
    39   21   38 1
    40   22   23 ar
    41   22   39 1
@<TRIPOS>MOLECULE
ZINC41528147
   31    33     0     0     0
SMALL
USER_CHARGES

@<TRIPOS>ATOM
      1 C1         -0.0184    1.5028    0.0103 C.3       1 <0>        -0.0748
      2 C2          0.0021   -0.0041    0.0020 C.2       1 <0>         0.1056
      3 C3          0.0079   -0.8200   -1.1495 C.ar      1 <0>         0.0919
      4 C4          0.0286   -2.1539   -0.7043 C.ar      1 <0>        -0.0260
      5 C5          0.0376   -3.1763   -1.6635 C.ar      1 <0>         0.4579
      6 N1          0.0262   -2.8404   -2.9486 N.ar      1 <0>        -0.5525
      7 C6          0.0068   -1.5735   -3.3260 C.ar      1 <0>         0.3127
      8 N2         -0.0016   -0.5805   -2.4671 N.ar      1 <0>        -0.4969
      9 N3          0.0583   -4.5060   -1.2800 N.pl3     1 <0>        -0.7009
     10 C7          0.0674   -5.5613   -2.2961 C.3       1 <0>         0.1587
     11 H1         -0.5213   -5.2410   -3.1556 H         1 <0>         0.1196
     12 C8          1.5149   -5.8299   -2.7402 C.3       1 <0>        -0.1456
     13 C9          1.5309   -7.1461   -3.5689 C.3       1 <0>        -0.5679
     14 S1          0.3675   -8.1797   -2.5826 S.o2      1 <0>         2.3785
     15 O1         -0.5212   -8.8479   -3.4674 O.2       1 <0>        -0.9293
     16 O2          1.1098   -8.9349   -1.6349 O.2       1 <0>        -0.9296
     17 C10        -0.5491   -6.8511   -1.7028 C.3       1 <0>        -0.6030
     18 N4          0.0345   -2.1139    0.6637 N.pl3     1 <0>        -0.4810
     19 H2          0.0485   -2.8815    1.2566 H         1 <0>         0.4447
     20 N5          0.0229   -0.7691    1.0572 N.2       1 <0>        -0.2177
     21 H3          1.0042    1.8801    0.0026 H         1 <0>         0.0860
     22 H4         -0.5455    1.8639   -0.8728 H         1 <0>         0.0897
     23 H5         -0.5286    1.8543    0.9071 H         1 <0>         0.0812
     24 H6         -0.0015   -1.3466   -4.3818 H         1 <0>         0.2037
     25 H7          0.0668   -4.7391   -0.3385 H         1 <0>         0.4110
     26 H8          1.8707   -5.0033   -3.3551 H         1 <0>         0.1098
     27 H9          2.1545   -5.9386   -1.8643 H         1 <0>         0.0894
     28 H10         1.1531   -6.9811   -4.5780 H         1 <0>         0.1451
     29 H11         2.5279   -7.5861   -3.5906 H         1 <0>         0.1457
     30 H12        -0.3723   -6.9053   -0.6286 H         1 <0>         0.1436
     31 H13        -1.6151   -6.9068   -1.9235 H         1 <0>         0.1505
@<TRIPOS>BOND
     1    1    2 1
     2    1   21 1
     3    1   22 1
     4    1   23 1
     5    2   20 2
     6    2    3 1
     7    3    8 ar
     8    3    4 ar
     9    4    5 ar
    10    4   18 1
    11    5    6 ar
    12    5    9 1
    13    6    7 ar
    14    7    8 ar
    15    7   24 1
    16    9   10 1
    17    9   25 1
    18   10   11 1
    19   10   17 1
    20   10   12 1
    21   12   13 1
    22   12   26 1
    23   12   27 1
    24   13   14 1
    25   13   28 1
    26   13   29 1
    27   14   15 2
    28   14   16 2
    29   14   17 1
    30   17   30 1
    31   17   31 1
    32   18   19 1
    33   18   20 1
@<TRIPOS>MOLECULE
ZINC50604446
   35    37     0     0     0
SMALL
USER_CHARGES

@<TRIPOS>ATOM
      1 C1          0.4646    1.4435    0.5718 C.ar      1 <0>        -0.1764
      2 C2          1.1158    2.0702   -0.4774 C.ar      1 <0>        -0.0402
      3 C3          1.8068    1.3269   -1.4138 C.ar      1 <0>        -0.1974
      4 C4          1.8522   -0.0564   -1.3076 C.ar      1 <0>         0.2720
      5 C5          1.1945   -0.6932   -0.2464 C.ar      1 <0>        -0.1373
      6 C6          0.5002    0.0700    0.6922 C.ar      1 <0>        -0.0435
      7 C7          1.2354   -2.1659   -0.1232 C.2       1 <0>         0.3074
      8 N1          2.3084   -2.9273   -0.1826 N.2       1 <0>        -0.3306
      9 N2          1.9911   -4.1631   -0.0375 N.2       1 <0>        -0.0357
     10 N3          0.7179   -4.2845    0.1224 N.2       1 <0>        -0.0799
     11 N4          0.1755   -2.9883    0.0784 N.pl3     1 <0>        -0.3769
     12 C8         -1.2323   -2.6076    0.2175 C.3       1 <0>         0.1273
     13 C9         -1.8946   -2.5905   -1.1616 C.3       1 <0>        -0.1076
     14 H1         -1.3231   -1.9460   -1.8294 H         1 <0>         0.1040
     15 C10        -1.9239   -4.0184   -1.7316 C.3       1 <0>        -0.1296
     16 C11        -2.8672   -4.0269   -2.9683 C.3       1 <0>        -0.5728
     17 S1         -4.2326   -2.9507   -2.3583 S.o2      1 <0>         2.3747
     18 O1         -4.5920   -2.0343   -3.3831 O.2       1 <0>        -0.9325
     19 O2         -5.2348   -3.7661   -1.7666 O.2       1 <0>        -0.9289
     20 C12        -3.3375   -2.0458   -1.0319 C.3       1 <0>        -0.5802
     21 N5          2.5480   -0.8082   -2.2516 N.pl3     1 <0>        -0.8607
     22 H2         -0.0699    2.0334    1.3017 H         1 <0>         0.1306
     23 H3          1.0827    3.1462   -0.5640 H         1 <0>         0.1315
     24 H4          2.3121    1.8222   -2.2298 H         1 <0>         0.1326
     25 H5         -0.0090   -0.4141    1.5124 H         1 <0>         0.1244
     26 H6         -1.7422   -3.3285    0.8566 H         1 <0>         0.1189
     27 H7         -1.2980   -1.6156    0.6644 H         1 <0>         0.1177
     28 H8         -0.9193   -4.3152   -2.0327 H         1 <0>         0.0984
     29 H9         -2.3005   -4.7085   -0.9766 H         1 <0>         0.0982
     30 H10        -2.3793   -3.5892   -3.8392 H         1 <0>         0.1391
     31 H11        -3.2251   -5.0336   -3.1841 H         1 <0>         0.1459
     32 H12        -3.7538   -2.2833   -0.0529 H         1 <0>         0.1477
     33 H13        -3.3627   -0.9713   -1.2134 H         1 <0>         0.1504
     34 H14         3.0022   -0.3653   -2.9853 H         1 <0>         0.4049
     35 H15         2.5782   -1.7748   -2.1752 H         1 <0>         0.4045
@<TRIPOS>BOND
     1    1    6 ar
     2    1    2 ar
     3    1   22 1
     4    2    3 ar
     5    2   23 1
     6    3    4 ar
     7    3   24 1
     8    4    5 ar
     9    4   21 1
    10    5    6 ar
    11    5    7 1
    12    6   25 1
    13    7   11 1
    14    7    8 2
    15    8    9 1
    16    9   10 2
    17   10   11 1
    18   11   12 1
    19   12   13 1
    20   12   26 1
    21   12   27 1
    22   13   14 1
    23   13   20 1
    24   13   15 1
    25   15   16 1
    26   15   28 1
    27   15   29 1
    28   16   17 1
    29   16   30 1
    30   16   31 1
    31   17   18 2
    32   17   19 2
    33   17   20 1
    34   20   32 1
    35   20   33 1
    36   21   34 1
    37   21   35 1
@<TRIPOS>MOLECULE
ZINC62136026
   37    38     0     0     0
SMALL
USER_CHARGES

@<TRIPOS>ATOM
      1 C1         -0.0187    1.5258    0.0104 C.3       1 <0>        -0.1664
      2 C2          0.0021   -0.0041    0.0020 C.3       1 <0>         0.1442
      3 H1         -1.0205   -0.3814    0.0098 H         1 <0>         0.1055
      4 C3          0.7421   -0.5109    1.2415 C.3       1 <0>         0.0841
      5 N1          0.6591   -1.9725    1.2962 N.pl3     1 <0>        -0.4039
      6 C4         -0.3202   -2.7082    1.9072 C.2       1 <0>         0.0277
      7 C5         -0.0102   -4.0047    1.7160 C.2       1 <0>         0.0036
      8 N2          1.1273   -4.0592    1.0075 N.pl3     1 <0>        -0.4742
      9 C6          1.5314   -2.8457    0.7481 C.cat     1 <0>         0.2878
     10 N3          0.6878   -0.4765   -1.2033 N.am      1 <0>        -0.7577
     11 C7          0.0062   -0.6081   -2.3585 C.2       1 <0>         0.7176
     12 O1         -1.1778   -0.3348   -2.4004 O.2       1 <0>        -0.5803
     13 N4          0.6370   -1.0428   -3.4674 N.am      1 <0>        -0.6298
     14 C8          2.0572   -1.4129   -3.5559 C.3       1 <0>         0.0996
     15 C9          2.3338   -1.8222   -5.0179 C.3       1 <0>        -0.1050
     16 C10         1.1909   -1.1197   -5.7976 C.3       1 <0>        -0.1665
     17 H2          1.4387   -0.0776   -5.9994 H         1 <0>         0.0791
     18 C11         0.0159   -1.2319   -4.7910 C.3       1 <0>         0.1482
     19 C12         0.8775   -1.8547   -7.0753 C.2       1 <0>         0.5018
     20 O2         -0.2534   -1.8314   -7.5303 O.co2     1 <0>        -0.6886
     21 O3          1.7549   -2.4726   -7.6541 O.co2     1 <0>        -0.6889
     22 H3          1.0039    1.9031    0.0027 H         1 <0>         0.0660
     23 H4         -0.5459    1.8868   -0.8726 H         1 <0>         0.0823
     24 H5         -0.5289    1.8773    0.9072 H         1 <0>         0.0740
     25 H6          1.7879   -0.2080    1.1895 H         1 <0>         0.1264
     26 H7          0.2852   -0.0874    2.1360 H         1 <0>         0.1409
     27 H8         -1.1767   -2.3229    2.4405 H         1 <0>         0.2233
     28 H9         -0.5781   -4.8520    2.0709 H         1 <0>         0.2233
     29 H10         2.4179   -2.5833    0.1899 H         1 <0>         0.2546
     30 H11         1.6324   -0.6946   -1.1699 H         1 <0>         0.3897
     31 H12         2.6800   -0.5603   -3.2854 H         1 <0>         0.0612
     32 H13         2.2638   -2.2514   -2.8908 H         1 <0>         0.0508
     33 H14         3.3063   -1.4537   -5.3441 H         1 <0>         0.0802
     34 H15         2.2714   -2.9042   -5.1339 H         1 <0>         0.0777
     35 H16        -0.4488   -2.2158   -4.8548 H         1 <0>         0.0686
     36 H17        -0.7205   -0.4507   -4.9795 H         1 <0>         0.0780
     37 H18         1.5768   -4.8723    0.7287 H         1 <0>         0.4649
@<TRIPOS>BOND
     1    1    2 1
     2    1   22 1
     3    1   23 1
     4    1   24 1
     5    2    3 1
     6    2    4 1
     7    2   10 1
     8    4    5 1
     9    4   25 1
    10    4   26 1
    11    5    9 1
    12    5    6 1
    13    6    7 2
    14    6   27 1
    15    7    8 1
    16    7   28 1
    17    8    9 2
    18    8   37 1
    19    9   29 1
    20   10   11 am
    21   10   30 1
    22   11   12 2
    23   11   13 am
    24   13   18 1
    25   13   14 1
    26   14   15 1
    27   14   31 1
    28   14   32 1
    29   15   16 1
    30   15   33 1
    31   15   34 1
    32   16   17 1
    33   16   18 1
    34   16   19 1
    35   18   35 1
    36   18   36 1
    37   19   20 2
    38   19   21 1
@<TRIPOS>MOLECULE
ZINC65185138
   28    30     0     0     0
SMALL
USER_CHARGES

@<TRIPOS>ATOM
      1 C1         -0.0206    1.6685    0.0113 C.2       1 <0>        -0.3268
      2 C2          1.3016    2.0107   -0.0052 C.2       1 <0>         0.1049
      3 C3          2.1739    0.9053    0.0661 C.2       1 <0>         0.0030
      4 C4          3.6344    1.1887    0.0532 C.2       1 <0>         0.5918
      5 O1          4.4382    0.2782    0.1118 O.2       1 <0>        -0.4568
      6 N1          4.0550    2.4633   -0.0243 N.am      1 <0>        -0.5273
      7 C5          3.1877    3.4842   -0.0898 C.2       1 <0>         0.7150
      8 O2          3.6225    4.6177   -0.1582 O.2       1 <0>        -0.5257
      9 N2          1.8603    3.3024   -0.0829 N.am      1 <0>        -0.5132
     10 C6          0.9740    4.4665   -0.1578 C.3       1 <0>         0.1003
     11 C7          0.6652    4.9531    1.2347 C.2       1 <0>         0.5011
     12 O3          1.1387    4.3836    2.1950 O.2       1 <0>        -0.5260
     13 N3         -0.1373    6.0212    1.4127 N.am      1 <0>        -0.8492
     14 C8          5.4930    2.7432   -0.0370 C.3       1 <0>         0.0619
     15 C9          6.3587    2.0413    1.0113 C.3       1 <0>        -0.1521
     16 C10         6.0683    3.5383    1.1368 C.3       1 <0>        -0.1578
     17 N4          1.5879   -0.2838    0.1373 N.2       1 <0>        -0.4254
     18 S1          0.0025   -0.0009    0.1143 S.3       1 <0>         0.5379
     19 H1         -0.8792    2.3224   -0.0281 H         1 <0>         0.2027
     20 H2          1.4647    5.2611   -0.7199 H         1 <0>         0.1355
     21 H3          0.0474    4.1860   -0.6585 H         1 <0>         0.1241
     22 H4         -0.5160    6.4767    0.6446 H         1 <0>         0.4044
     23 H5         -0.3361    6.3344    2.3090 H         1 <0>         0.4077
     24 H6          5.9306    2.9110   -1.0211 H         1 <0>         0.1374
     25 H7          5.8583    1.3712    1.7103 H         1 <0>         0.1035
     26 H8          7.3660    1.7470    0.7169 H         1 <0>         0.1152
     27 H9          6.8846    4.2288    0.9251 H         1 <0>         0.1138
     28 H10         5.3769    3.8530    1.9185 H         1 <0>         0.0999
@<TRIPOS>BOND
     1    1   18 1
     2    1    2 2
     3    1   19 1
     4    2    9 1
     5    2    3 1
     6    3    4 1
     7    3   17 2
     8    4    5 2
     9    4    6 am
    10    6    7 am
    11    6   14 1
    12    7    8 2
    13    7    9 am
    14    9   10 1
    15   10   11 1
    16   10   20 1
    17   10   21 1
    18   11   12 2
    19   11   13 am
    20   13   22 1
    21   13   23 1
    22   14   16 1
    23   14   15 1
    24   14   24 1
    25   15   16 1
    26   15   25 1
    27   15   26 1
    28   16   27 1
    29   16   28 1
    30   17   18 1
@<TRIPOS>MOLECULE
ZINC06507742
   46    48     0     0     0
SMALL
USER_CHARGES
4-(benzo[1,3]dioxol-5-ylmethylamino)-N-isopropyl-3-nitro-benzenesulfonamide
@<TRIPOS>ATOM
      1 C1          2.4317    1.4672    0.9672 C.3       1 <0>        -0.1581
      2 C2          1.3433    2.1020    0.0992 C.3       1 <0>         0.1394
      3 C3          1.8032    2.1246   -1.3599 C.3       1 <0>        -0.1785
      4 N1          0.1107    1.3181    0.2106 N.pl3     1 <0>        -1.1109
      5 S1         -1.3603    2.0772    0.1649 S.o2      1 <0>         2.7016
      6 O1         -2.3462    1.0585    0.2615 O.2       1 <0>        -0.9525
      7 O2         -1.2885    3.1576    1.0851 O.2       1 <0>        -0.9499
      8 C4         -1.5287    2.7908   -1.4374 C.ar      1 <0>        -0.7385
      9 C5         -1.0908    4.0824   -1.6669 C.ar      1 <0>         0.0681
     10 C6         -1.2161    4.6426   -2.9228 C.ar      1 <0>        -0.2168
     11 C7         -1.7932    3.9113   -3.9535 C.ar      1 <0>         0.3258
     12 C8         -2.2371    2.6165   -3.7180 C.ar      1 <0>        -0.1427
     13 C9         -2.1035    2.0602   -2.4608 C.ar      1 <0>         0.0997
     14 N2         -2.8521    1.8335   -4.8131 N.pl3     1 <0>         0.0493
     15 O3         -3.1389    0.6628   -4.6381 O.2       1 <0>        -0.1417
     16 O4         -3.0714    2.3599   -5.8894 O.3       1 <0>        -0.1974
     17 N3         -1.9263    4.4768   -5.2237 N.pl3     1 <0>        -0.7033
     18 C10        -1.3454    5.7920   -5.5045 C.3       1 <0>         0.1545
     19 C11        -1.6278    6.1707   -6.9356 C.ar      1 <0>        -0.1096
     20 C12        -0.7321    5.8248   -7.9303 C.ar      1 <0>        -0.0828
     21 C13        -0.9895    6.1651   -9.2452 C.ar      1 <0>        -0.1012
     22 C14        -2.1410    6.8648   -9.5676 C.ar      1 <0>         0.0486
     23 C15        -3.0407    7.2179   -8.5649 C.ar      1 <0>         0.0322
     24 C16        -2.7791    6.8683   -7.2500 C.ar      1 <0>        -0.0777
     25 O5         -4.0827    7.8932   -9.1317 O.3       1 <0>        -0.3059
     26 C17        -3.6134    8.3056  -10.4290 C.3       1 <0>         0.2125
     27 O6         -2.6194    7.3187  -10.7627 O.3       1 <0>        -0.3057
     28 H1          2.6176    0.4478    0.6290 H         1 <0>         0.0638
     29 H2          3.3487    2.0504    0.8843 H         1 <0>         0.0727
     30 H3          2.1040    1.4511    2.0067 H         1 <0>         0.0664
     31 H4          1.1574    3.1214    0.4374 H         1 <0>         0.0936
     32 H5          1.0279    2.5768   -1.9782 H         1 <0>         0.0572
     33 H6          2.7203    2.7078   -1.4427 H         1 <0>         0.0722
     34 H7          1.9892    1.1052   -1.6980 H         1 <0>         0.0656
     35 H8          0.1562    0.3540    0.3071 H         1 <0>         0.4213
     36 H9         -0.6466    4.6521   -0.8641 H         1 <0>         0.1579
     37 H10        -0.8700    5.6497   -3.1025 H         1 <0>         0.1556
     38 H11        -2.4488    1.0535   -2.2770 H         1 <0>         0.1684
     39 H12        -2.4035    3.9987   -5.9199 H         1 <0>         0.4257
     40 H13        -1.7863    6.5337   -4.8386 H         1 <0>         0.0867
     41 H14        -0.2678    5.7549   -5.3444 H         1 <0>         0.0887
     42 H15         0.1685    5.2838   -7.6801 H         1 <0>         0.1412
     43 H16        -0.2901    5.8900  -10.0207 H         1 <0>         0.1416
     44 H17        -3.4749    7.1411   -6.4703 H         1 <0>         0.1383
     45 H18        -3.1654    9.2979  -10.3765 H         1 <0>         0.0884
     46 H19        -4.4274    8.2897  -11.1537 H         1 <0>         0.1359
@<TRIPOS>BOND
     1    1    2 1
     2    1   28 1
     3    1   29 1
     4    1   30 1
     5    2    3 1
     6    2    4 1
     7    2   31 1
     8    3   32 1
     9    3   33 1
    10    3   34 1
    11    4    5 1
    12    4   35 1
    13    5    6 2
    14    5    7 2
    15    5    8 1
    16    8   13 ar
    17    8    9 ar
    18    9   10 ar
    19    9   36 1
    20   10   11 ar
    21   10   37 1
    22   11   12 ar
    23   11   17 1
    24   12   13 ar
    25   12   14 1
    26   13   38 1
    27   14   15 2
    28   14   16 1
    29   17   18 1
    30   17   39 1
    31   18   19 1
    32   18   40 1
    33   18   41 1
    34   19   24 ar
    35   19   20 ar
    36   20   21 ar
    37   20   42 1
    38   21   22 ar
    39   21   43 1
    40   22   27 1
    41   22   23 ar
    42   23   24 ar
    43   23   25 1
    44   24   44 1
    45   25   26 1
    46   26   27 1
    47   26   45 1
    48   26   46 1
@<TRIPOS>MOLECULE
ZINC21038733
   38    40     0     0     0
SMALL
USER_CHARGES
5-[(4-nitrophenyl)methylsulfanyl]-N-(3-pyridylmethyleneamino)-4H-1,2,4-triazol-3-amine
@<TRIPOS>ATOM
      1 C1          8.0794    3.5200   -0.0539 C.ar      1 <0>        -0.1727
      2 C2          7.1023    2.5404   -0.0443 C.ar      1 <0>        -0.0434
      3 C3          5.7600    2.9418   -0.0359 C.ar      1 <0>        -0.1104
      4 C4          5.4648    4.3075   -0.0266 C.ar      1 <0>         0.1383
      5 N1          6.4317    5.2010   -0.0307 N.ar      1 <0>        -0.4859
      6 C5          7.7040    4.8513   -0.0436 C.ar      1 <0>         0.1162
      7 C6          4.6779    1.9405   -0.0309 C.2       1 <0>         0.1266
      8 N2          3.4376    2.3250   -0.0177 N.2       1 <0>        -0.2485
      9 N3          2.4092    1.3736   -0.0129 N.pl3     1 <0>        -0.5563
     10 C7          1.0841    1.7844    0.0013 C.2       1 <0>         0.5412
     11 N4         -0.0111    0.9658    0.0074 N.2       1 <0>        -0.5514
     12 C8         -1.1269    1.7535    0.0163 C.2       1 <0>         0.2197
     13 N5         -0.7387    3.0065    0.0239 N.2       1 <0>        -0.3218
     14 N6          0.6622    3.0256    0.0112 N.pl3     1 <0>        -0.4738
     15 S1         -2.7951    1.1862    0.0202 S.3       1 <0>         0.0532
     16 C9         -3.7773    2.7112    0.0325 C.3       1 <0>        -0.0924
     17 C10        -5.2438    2.3642    0.0367 C.ar      1 <0>        -0.0252
     18 C11        -5.9227    2.2171   -1.1584 C.ar      1 <0>        -0.0982
     19 C12        -7.2669    1.8945   -1.1546 C.ar      1 <0>        -0.0522
     20 C13        -7.9344    1.7284    0.0445 C.ar      1 <0>        -0.0384
     21 C14        -7.2566    1.8803    1.2397 C.ar      1 <0>        -0.0522
     22 C15        -5.9114    2.1986    1.2358 C.ar      1 <0>        -0.0982
     23 N7         -9.3748    1.3876    0.0487 N.pl3     1 <0>         0.0254
     24 O1         -9.9628    1.2409    1.1052 O.2       1 <0>        -0.1556
     25 O2         -9.9720    1.2538   -1.0044 O.3       1 <0>        -0.1557
     26 H1          9.1245    3.2480   -0.0647 H         1 <0>         0.1437
     27 H2          7.3674    1.4935   -0.0475 H         1 <0>         0.1433
     28 H3          4.4350    4.6327   -0.0163 H         1 <0>         0.1615
     29 H4          8.4651    5.6176   -0.0465 H         1 <0>         0.1614
     30 H5          4.9211    0.8678   -0.0384 H         1 <0>         0.1355
     31 H6          2.6523    0.3008   -0.0204 H         1 <0>         0.4402
     32 H7         -3.5362    3.2954    0.9328 H         1 <0>         0.1140
     33 H8         -3.5436    3.3051   -0.8634 H         1 <0>         0.1139
     34 H9         -5.4021    2.3508   -2.0952 H         1 <0>         0.1528
     35 H10        -7.7963    1.7755   -2.0883 H         1 <0>         0.1582
     36 H11        -7.7781    1.7506    2.1765 H         1 <0>         0.1583
     37 H12        -5.3819    2.3176    2.1696 H         1 <0>         0.1529
     38 H13         1.3871    3.8529    0.0086 H         1 <0>         0.4759
@<TRIPOS>BOND
     1    1    6 ar
     2    1    2 ar
     3    1   26 1
     4    2    3 ar
     5    2   27 1
     6    3    4 ar
     7    3    7 1
     8    4    5 ar
     9    4   28 1
    10    5    6 ar
    11    6   29 1
    12    7    8 2
    13    7   30 1
    14    8    9 1
    15    9   10 1
    16    9   31 1
    17   10   14 1
    18   10   11 2
    19   11   12 1
    20   12   13 2
    21   12   15 1
    22   13   14 1
    23   14   38 1
    24   15   16 1
    25   16   17 1
    26   16   32 1
    27   16   33 1
    28   17   22 ar
    29   17   18 ar
    30   18   19 ar
    31   18   34 1
    32   19   20 ar
    33   19   35 1
    34   20   21 ar
    35   20   23 1
    36   21   22 ar
    37   21   36 1
    38   22   37 1
    39   23   24 2
    40   23   25 1
@<TRIPOS>MOLECULE
ZINC40648204
   45    47     0     0     0
SMALL
USER_CHARGES

@<TRIPOS>ATOM
      1 C1          0.0942    1.2246   -1.1600 C.ar      1 <0>        -0.0920
      2 C2          1.1380    2.0248   -0.7327 C.ar      1 <0>        -0.1189
      3 C3          2.2152    1.4662   -0.0699 C.ar      1 <0>        -0.0880
      4 C4          2.2517    0.1052    0.1681 C.ar      1 <0>        -0.0666
      5 C5          1.2038   -0.7014   -0.2599 C.ar      1 <0>         0.1575
      6 C6          0.1239   -0.1362   -0.9256 C.ar      1 <0>        -0.1049
      7 N1          1.2372   -2.0790   -0.0214 N.pl3     1 <0>        -0.6382
      8 C7          0.0527   -2.7923    0.0912 C.ar      1 <0>         0.5135
      9 C8          0.0714   -4.1801    0.1943 C.ar      1 <0>        -0.2721
     10 C9         -1.1437   -4.8490    0.3056 C.ar      1 <0>         0.5214
     11 N2         -2.2726   -4.1421    0.3095 N.ar      1 <0>        -0.5811
     12 C10        -2.2484   -2.8288    0.2099 C.ar      1 <0>         0.4103
     13 N3         -1.1186   -2.1587    0.1079 N.ar      1 <0>        -0.5806
     14 N4         -1.1787   -6.2309    0.4105 N.pl3     1 <0>        -0.6972
     15 C11        -2.4640   -6.9242    0.5272 C.3       1 <0>         0.1289
     16 C12        -2.2229   -8.4318    0.6275 C.3       1 <0>         0.0400
     17 N5         -3.5116   -9.1270    0.7445 N.3       1 <0>        -0.5305
     18 C13        -4.1731   -8.8000    2.0160 C.3       1 <0>         0.0105
     19 C14        -5.5355   -9.4963    2.0702 C.3       1 <0>         0.0633
     20 O1         -5.3525  -10.9047    1.9017 O.3       1 <0>        -0.3842
     21 C15        -4.7114  -11.2590    0.6734 C.3       1 <0>         0.0633
     22 C16        -3.3407  -10.5805    0.6051 C.3       1 <0>         0.0177
     23 N6          1.3504   -4.9252    0.1852 N.pl3     1 <0>         0.0325
     24 O2          1.9256   -5.1513    1.2242 O.2       1 <0>        -0.1357
     25 O3          1.8198   -5.3076   -0.8613 O.3       1 <0>        -0.1322
     26 Cl1         3.6046   -0.5960    0.9997 Cl        1 <0>        -0.0608
     27 H1         -0.7476    1.6650   -1.6738 H         1 <0>         0.1366
     28 H2          1.1118    3.0886   -0.9174 H         1 <0>         0.1366
     29 H3          3.0291    2.0938    0.2619 H         1 <0>         0.1403
     30 H4         -0.6920   -0.7601   -1.2595 H         1 <0>         0.1544
     31 H5          2.0885   -2.5358    0.0652 H         1 <0>         0.4229
     32 H6         -3.1816   -2.2852    0.2161 H         1 <0>         0.2200
     33 H7         -0.3523   -6.7387    0.4066 H         1 <0>         0.4122
     34 H8         -2.9831   -6.5790    1.4213 H         1 <0>         0.0792
     35 H9         -3.0728   -6.7113   -0.3515 H         1 <0>         0.0896
     36 H10        -1.7037   -8.7770   -0.2666 H         1 <0>         0.0862
     37 H11        -1.6141   -8.6447    1.5062 H         1 <0>         0.0454
     38 H12        -3.5558   -9.1430    2.8463 H         1 <0>         0.0466
     39 H13        -4.3127   -7.7213    2.0868 H         1 <0>         0.0907
     40 H14        -6.0049   -9.3031    3.0348 H         1 <0>         0.1008
     41 H15        -6.1717   -9.1139    1.2720 H         1 <0>         0.0626
     42 H16        -4.5848  -12.3407    0.6277 H         1 <0>         0.1014
     43 H17        -5.3237  -10.9279   -0.1654 H         1 <0>         0.0624
     44 H18        -2.8726  -10.8016   -0.3542 H         1 <0>         0.0897
     45 H19        -2.7100  -10.9520    1.4127 H         1 <0>         0.0467
@<TRIPOS>BOND
     1    1    6 ar
     2    1    2 ar
     3    1   27 1
     4    2    3 ar
     5    2   28 1
     6    3    4 ar
     7    3   29 1
     8    4    5 ar
     9    4   26 1
    10    5    6 ar
    11    5    7 1
    12    6   30 1
    13    7    8 1
    14    7   31 1
    15    8   13 ar
    16    8    9 ar
    17    9   10 ar
    18    9   23 1
    19   10   11 ar
    20   10   14 1
    21   11   12 ar
    22   12   13 ar
    23   12   32 1
    24   14   15 1
    25   14   33 1
    26   15   16 1
    27   15   34 1
    28   15   35 1
    29   16   17 1
    30   16   36 1
    31   16   37 1
    32   17   22 1
    33   17   18 1
    34   18   19 1
    35   18   38 1
    36   18   39 1
    37   19   20 1
    38   19   40 1
    39   19   41 1
    40   20   21 1
    41   21   22 1
    42   21   42 1
    43   21   43 1
    44   22   44 1
    45   22   45 1
    46   23   24 2
    47   23   25 1
@<TRIPOS>MOLECULE
ZINC58291451
   44    46     0     0     0
SMALL
USER_CHARGES

@<TRIPOS>ATOM
      1 C1          1.0962   -0.4572    0.7581 C.ar      1 <0>        -0.0421
      2 C2          2.2779    0.2510    0.7419 C.ar      1 <0>        -0.1238
      3 C3          2.3809    1.4175   -0.0077 C.ar      1 <0>         0.1743
      4 C4          1.2925    1.8731   -0.7431 C.ar      1 <0>        -0.1475
      5 C5          0.1081    1.1693   -0.7316 C.ar      1 <0>        -0.0591
      6 C6          0.0014   -0.0026    0.0202 C.ar      1 <0>        -0.0461
      7 C7         -1.2673   -0.7599    0.0349 C.2       1 <0>         0.2157
      8 N1         -1.5057   -1.8672    0.6986 N.2       1 <0>        -0.2782
      9 N2         -2.7157   -2.2433    0.4755 N.2       1 <0>        -0.2868
     10 C8         -3.2929   -1.3986   -0.3322 C.2       1 <0>         0.1466
     11 O1         -2.3977   -0.4393   -0.6261 O.3       1 <0>        -0.2248
     12 N3          3.5806    2.1336   -0.0216 N.am      1 <0>        -0.6754
     13 C9          4.7564    1.4804    0.0650 C.2       1 <0>         0.5140
     14 O2          4.7783    0.2678    0.0584 O.2       1 <0>        -0.5106
     15 C10         6.0437    2.2568    0.1699 C.3       1 <0>        -0.1364
     16 C11         7.2210    1.2833    0.2544 C.3       1 <0>        -0.1193
     17 C12         8.5280    2.0715    0.3609 C.3       1 <0>         0.1150
     18 N4          9.6552    1.1393    0.4418 N.pl3     1 <0>        -0.7289
     19 C13        10.9595    1.6281    0.5461 C.ar      1 <0>         0.2655
     20 C14        11.1891    2.9977    0.5790 C.ar      1 <0>        -0.1998
     21 C15        12.4800    3.4775    0.6826 C.ar      1 <0>        -0.0029
     22 C16        13.5433    2.5963    0.7536 C.ar      1 <0>        -0.1126
     23 C17        13.3182    1.2322    0.7211 C.ar      1 <0>        -0.0038
     24 C18        12.0295    0.7456    0.6229 C.ar      1 <0>        -0.1955
     25 N5         14.9253    3.1141    0.8641 N.pl3     1 <0>         0.0443
     26 O3         15.1237    4.3064    0.8922 O.2       1 <0>        -0.1733
     27 O4         15.8560    2.3449    0.9262 O.3       1 <0>        -0.1727
     28 H1          1.0182   -1.3654    1.3373 H         1 <0>         0.1452
     29 H2          3.1251   -0.1001    1.3124 H         1 <0>         0.1459
     30 H3          1.3755    2.7799   -1.3238 H         1 <0>         0.1380
     31 H4         -0.7371    1.5240   -1.3028 H         1 <0>         0.1382
     32 H5         -4.3082   -1.4563   -0.6960 H         1 <0>         0.2654
     33 H6          3.5673    3.1008   -0.0935 H         1 <0>         0.4159
     34 H7          6.1586    2.8904   -0.7096 H         1 <0>         0.1039
     35 H8          6.0212    2.8783    1.0650 H         1 <0>         0.1053
     36 H9          7.1061    0.6497    1.1338 H         1 <0>         0.0823
     37 H10         7.2434    0.6618   -0.6408 H         1 <0>         0.0821
     38 H11         8.6428    2.7051   -0.5186 H         1 <0>         0.0704
     39 H12         8.5055    2.6930    1.2560 H         1 <0>         0.0705
     40 H13         9.4958    0.1827    0.4229 H         1 <0>         0.4093
     41 H14        10.3592    3.6865    0.5232 H         1 <0>         0.1435
     42 H15        12.6592    4.5422    0.7079 H         1 <0>         0.1518
     43 H16        14.1509    0.5467    0.7764 H         1 <0>         0.1524
     44 H17        11.8541   -0.3199    0.6017 H         1 <0>         0.1443
@<TRIPOS>BOND
     1    1    6 ar
     2    1    2 ar
     3    1   28 1
     4    2    3 ar
     5    2   29 1
     6    3    4 ar
     7    3   12 1
     8    4    5 ar
     9    4   30 1
    10    5    6 ar
    11    5   31 1
    12    6    7 1
    13    7   11 1
    14    7    8 2
    15    8    9 1
    16    9   10 2
    17   10   11 1
    18   10   32 1
    19   12   13 am
    20   12   33 1
    21   13   14 2
    22   13   15 1
    23   15   16 1
    24   15   34 1
    25   15   35 1
    26   16   17 1
    27   16   36 1
    28   16   37 1
    29   17   18 1
    30   17   38 1
    31   17   39 1
    32   18   19 1
    33   18   40 1
    34   19   24 ar
    35   19   20 ar
    36   20   21 ar
    37   20   41 1
    38   21   22 ar
    39   21   42 1
    40   22   23 ar
    41   22   25 1
    42   23   24 ar
    43   23   43 1
    44   24   44 1
    45   25   26 2
    46   25   27 1
@<TRIPOS>MOLECULE
ZINC65778239
   41    43     0     0     0
SMALL
USER_CHARGES

@<TRIPOS>ATOM
      1 C1         -0.0099    1.3885    0.0143 C.ar      1 <0>        -0.0232
      2 C2          1.1659    2.0611   -0.2651 C.ar      1 <0>        -0.1712
      3 C3          2.3683    1.3789   -0.2850 C.ar      1 <0>        -0.0165
      4 C4          2.3990    0.0226   -0.0256 C.ar      1 <0>        -0.1244
      5 C5          1.2201   -0.6559    0.2554 C.ar      1 <0>         0.2787
      6 C6          0.0136    0.0326    0.2745 C.ar      1 <0>        -0.1950
      7 N1          1.2475   -2.0276    0.5177 N.pl3     1 <0>        -0.7324
      8 C7         -0.0064   -2.7663    0.6861 C.3       1 <0>         0.1333
      9 C8          0.3025   -4.2392    0.9618 C.3       1 <0>        -0.1544
     10 C9         -0.9873   -4.9991    1.1350 C.2       1 <0>         0.5317
     11 O1         -2.0491   -4.4196    1.0466 O.2       1 <0>        -0.5256
     12 N2         -0.9610   -6.3226    1.3881 N.am      1 <0>        -0.7277
     13 C10        -2.2148   -7.0613    1.5565 C.3       1 <0>         0.2085
     14 C11        -1.9106   -8.5120    1.8281 C.2       1 <0>         0.2790
     15 N3         -1.7400   -9.0459    3.0032 N.2       1 <0>        -0.5129
     16 C12        -1.4841  -10.3623    2.8789 C.2       1 <0>         0.3410
     17 N4         -1.4921  -10.6709    1.6028 N.2       1 <0>        -0.3143
     18 O2         -1.7760   -9.4696    0.9013 O.3       1 <0>        -0.0879
     19 C13        -1.2361  -11.3017    3.9918 C.2       1 <0>        -0.1361
     20 C14        -0.9652  -12.6436    3.9446 C.2       1 <0>        -0.0860
     21 C15        -0.7662  -13.3208    5.1261 C.2       1 <0>        -0.1707
     22 C16        -0.8441  -12.6410    6.3000 C.2       1 <0>        -0.1504
     23 S1         -1.2036  -10.9817    5.7480 S.3       1 <0>         0.1409
     24 N5          3.6865   -0.7070   -0.0475 N.pl3     1 <0>         0.0432
     25 O3          4.6880   -0.1786    0.3761 O.2       1 <0>        -0.1507
     26 O4          3.7368   -1.8314   -0.4890 O.3       1 <0>        -0.1815
     27 H1         -0.9469    1.9253    0.0334 H         1 <0>         0.1424
     28 H2          1.1447    3.1216   -0.4686 H         1 <0>         0.1435
     29 H3          3.2846    1.9071   -0.5039 H         1 <0>         0.1462
     30 H4         -0.9048   -0.4919    0.4929 H         1 <0>         0.1465
     31 H5          2.0966   -2.4910    0.5884 H         1 <0>         0.4106
     32 H6         -0.5642   -2.3489    1.5244 H         1 <0>         0.0793
     33 H7         -0.6016   -2.6839   -0.2233 H         1 <0>         0.0815
     34 H8          0.8603   -4.6565    0.1235 H         1 <0>         0.1111
     35 H9          0.8977   -4.3215    1.8712 H         1 <0>         0.1074
     36 H10        -0.1118   -6.7860    1.4588 H         1 <0>         0.4095
     37 H11        -2.7726   -6.6439    2.3948 H         1 <0>         0.1239
     38 H12        -2.8100   -6.9789    0.6471 H         1 <0>         0.1154
     39 H13        -0.9091  -13.1606    2.9980 H         1 <0>         0.1437
     40 H14        -0.5513  -14.3792    5.1204 H         1 <0>         0.1465
     41 H15        -0.7174  -13.0089    7.3075 H         1 <0>         0.1973
@<TRIPOS>BOND
     1    1    6 ar
     2    1    2 ar
     3    1   27 1
     4    2    3 ar
     5    2   28 1
     6    3    4 ar
     7    3   29 1
     8    4    5 ar
     9    4   24 1
    10    5    6 ar
    11    5    7 1
    12    6   30 1
    13    7    8 1
    14    7   31 1
    15    8    9 1
    16    8   32 1
    17    8   33 1
    18    9   10 1
    19    9   34 1
    20    9   35 1
    21   10   11 2
    22   10   12 am
    23   12   13 1
    24   12   36 1
    25   13   14 1
    26   13   37 1
    27   13   38 1
    28   14   18 1
    29   14   15 2
    30   15   16 1
    31   16   17 2
    32   16   19 1
    33   17   18 1
    34   19   23 1
    35   19   20 2
    36   20   21 1
    37   20   39 1
    38   21   22 2
    39   21   40 1
    40   22   23 1
    41   22   41 1
    42   24   25 2
    43   24   26 1
@<TRIPOS>MOLECULE
ZINC04391444
   38    41     0     0     0
SMALL
USER_CHARGES
2-[(4R)-4-hydroxy-3-methyl-5-oxo-1-phenyl-pyrazol-4-yl]indane-1,3-dione
@<TRIPOS>ATOM
      1 C1          5.4437   -3.8566   -0.0728 C.3       1 <0>        -0.0671
      2 C2          4.9645   -2.4279   -0.0599 C.2       1 <0>         0.1811
      3 N1          3.7505   -2.0364   -0.0398 N.2       1 <0>        -0.2662
      4 N2          3.6222   -0.6508   -0.0366 N.am      1 <0>        -0.4197
      5 C3          4.8308   -0.0505   -0.0450 C.2       1 <0>         0.4522
      6 O1          5.0641    1.1398   -0.0402 O.2       1 <0>        -0.4867
      7 C4          5.8340   -1.1880   -0.0613 C.3       1 <0>         0.1897
      8 C5          6.7152   -1.1468    1.1887 C.2       1 <0>        -0.5262
      9 C6          5.8648   -1.2706    2.4305 C.2       1 <0>         0.3975
     10 O2          5.1519   -2.2066    2.7227 O.3       1 <0>        -0.4929
     11 C7          6.0621   -0.0427    3.2215 C.ar      1 <0>        -0.1409
     12 C8          5.5150    0.3502    4.4455 C.ar      1 <0>        -0.0874
     13 C9          5.8571    1.5693    4.9980 C.ar      1 <0>        -0.1225
     14 C10         6.7425    2.4101    4.3466 C.ar      1 <0>        -0.1198
     15 C11         7.2951    2.0411    3.1354 C.ar      1 <0>        -0.0859
     16 C12         6.9625    0.8129    2.5586 C.ar      1 <0>        -0.1253
     17 C13         7.4047    0.1925    1.2968 C.2       1 <0>         0.4168
     18 O3          8.1787    0.6690    0.4945 O.2       1 <0>        -0.4983
     19 O4          6.6365   -1.1340   -1.2425 O.3       1 <0>        -0.5561
     20 C14         2.3997    0.0310   -0.0208 C.ar      1 <0>         0.1878
     21 C15         1.2065   -0.6797   -0.0132 C.ar      1 <0>        -0.1391
     22 C16         0.0021   -0.0041    0.0020 C.ar      1 <0>        -0.0989
     23 C17        -0.0167    1.3787    0.0096 C.ar      1 <0>        -0.1534
     24 C18         1.1696    2.0893    0.0021 C.ar      1 <0>        -0.0939
     25 C19         2.3774    1.4197   -0.0131 C.ar      1 <0>        -0.1617
     26 H1          4.5771   -4.5340   -0.0682 H         1 <0>         0.0706
     27 H2          6.0607   -4.0444    0.8183 H         1 <0>         0.1048
     28 H3          6.0431   -4.0341   -0.9779 H         1 <0>         0.0888
     29 H4          4.8238   -0.3003    4.9607 H         1 <0>         0.1213
     30 H5          5.4312    1.8679    5.9445 H         1 <0>         0.1222
     31 H6          7.0035    3.3605    4.7881 H         1 <0>         0.1227
     32 H7          7.9852    2.7031    2.6336 H         1 <0>         0.1233
     33 H8          7.3276   -0.2928   -1.3999 H         1 <0>         0.4142
     34 H9          1.2204   -1.7596   -0.0194 H         1 <0>         0.1337
     35 H10        -0.9261   -0.5562    0.0076 H         1 <0>         0.1240
     36 H11        -0.9599    1.9047    0.0170 H         1 <0>         0.1196
     37 H12         1.1516    3.1692    0.0081 H         1 <0>         0.1237
     38 H13         3.3035    1.9753   -0.0190 H         1 <0>         0.1481
@<TRIPOS>BOND
     1    1    2 1
     2    1   26 1
     3    1   27 1
     4    1   28 1
     5    2    7 1
     6    2    3 2
     7    3    4 1
     8    4    5 am
     9    4   20 1
    10    5    6 2
    11    5    7 1
    12    7    8 1
    13    7   19 1
    14    8   17 1
    15    8    9 2
    16    9   10 1
    17    9   11 1
    18   11   16 ar
    19   11   12 ar
    20   12   13 ar
    21   12   29 1
    22   13   14 ar
    23   13   30 1
    24   14   15 ar
    25   14   31 1
    26   15   16 ar
    27   15   32 1
    28   16   17 1
    29   17   18 2
    30   19   33 1
    31   20   25 ar
    32   20   21 ar
    33   21   22 ar
    34   21   34 1
    35   22   23 ar
    36   22   35 1
    37   23   24 ar
    38   23   36 1
    39   24   25 ar
    40   24   37 1
    41   25   38 1
@<TRIPOS>MOLECULE
ZINC28715056
   29    31     0     0     0
SMALL
USER_CHARGES
N-(4-methyl-1,3-benzothiazol-2-yl)-6-oxo-1H-pyridazine-3-carboxamide
@<TRIPOS>ATOM
      1 C1         -1.2975   -0.7671    0.0104 C.3       1 <0>        -0.1071
      2 C2          0.0021   -0.0041    0.0020 C.ar      1 <0>        -0.0460
      3 C3         -0.0165    1.3665    0.0096 C.ar      1 <0>        -0.1127
      4 C4          1.1561    2.1074    0.0023 C.ar      1 <0>        -0.1153
      5 C5          2.3728    1.4497   -0.0133 C.ar      1 <0>        -0.0624
      6 C6          2.4013    0.0779   -0.0210 C.ar      1 <0>        -0.1899
      7 C7          1.2271   -0.7098   -0.0140 C.ar      1 <0>         0.1151
      8 N1          1.4194   -2.0465   -0.0231 N.2       1 <0>        -0.5612
      9 C8          2.6156   -2.5872   -0.0374 C.2       1 <0>         0.3927
     10 S1          3.6822   -1.1531   -0.0399 S.3       1 <0>         0.0792
     11 N2          2.9626   -3.9272   -0.0484 N.am      1 <0>        -0.6157
     12 C9          4.2614   -4.2869   -0.0637 C.2       1 <0>         0.6061
     13 O1          5.1280   -3.4347   -0.0680 O.2       1 <0>        -0.5239
     14 C10         4.6319   -5.7179   -0.0754 C.ar      1 <0>        -0.1613
     15 C11         5.9972   -6.0933   -0.0916 C.ar      1 <0>        -0.0287
     16 C12         6.3005   -7.4223   -0.1020 C.ar      1 <0>        -0.2827
     17 C13         5.2310   -8.3454   -0.0961 C.ar      1 <0>         0.4387
     18 O2          5.4548   -9.5444   -0.1054 O.3       1 <0>        -0.5892
     19 N3          3.9634   -7.8928   -0.0806 N.ar      1 <0>        -0.3918
     20 N4          3.6932   -6.6377   -0.0654 N.ar      1 <0>        -0.1486
     21 H1         -2.1387   -0.0584    0.0227 H         1 <0>         0.0616
     22 H2         -1.3424   -1.4050    0.9054 H         1 <0>         0.0717
     23 H3         -1.3600   -1.3948   -0.8908 H         1 <0>         0.0717
     24 H4         -0.9659    1.8813    0.0168 H         1 <0>         0.1274
     25 H5          1.1195    3.1867    0.0085 H         1 <0>         0.1318
     26 H6          3.2947    2.0124   -0.0190 H         1 <0>         0.1275
     27 H7          2.1783   -4.6985   -0.0447 H         1 <0>         0.4676
     28 H8          6.7774   -5.3466   -0.0958 H         1 <0>         0.1228
     29 H9          7.3266   -7.7591   -0.1141 H         1 <0>         0.1226
@<TRIPOS>BOND
     1    1    2 1
     2    1   21 1
     3    1   22 1
     4    1   23 1
     5    2    7 ar
     6    2    3 ar
     7    3    4 ar
     8    3   24 1
     9    4    5 ar
    10    4   25 1
    11    5    6 ar
    12    5   26 1
    13    6   10 1
    14    6    7 ar
    15    7    8 1
    16    8    9 2
    17    9   10 1
    18    9   11 1
    19   11   12 am
    20   11   27 1
    21   12   13 2
    22   12   14 1
    23   14   20 ar
    24   14   15 ar
    25   15   16 ar
    26   15   28 1
    27   16   17 ar
    28   16   29 1
    29   17   18 1
    30   17   19 ar
    31   19   20 ar
@<TRIPOS>MOLECULE
ZINC40531499
   34    35     0     0     0
SMALL
USER_CHARGES

@<TRIPOS>ATOM
      1 C1         -0.3033   -2.1501    3.8400 C.3       1 <0>        -0.1442
      2 C2         -1.1015   -1.7342    2.6027 C.3       1 <0>         0.0750
      3 H1         -2.1646   -1.8907    2.7858 H         1 <0>         0.0624
      4 C3         -0.6594   -2.5771    1.4010 C.3       1 <0>         0.0819
      5 N1         -1.3010   -2.0350    0.1928 N.am      1 <0>        -0.6303
      6 C4         -1.1910   -0.5895   -0.0595 C.3       1 <0>         0.0952
      7 C5         -1.6072    0.1565    1.2133 C.3       1 <0>         0.0499
      8 O1         -0.8634   -0.3526    2.3230 O.3       1 <0>        -0.3786
      9 C6         -1.9694   -2.8389   -0.6579 C.2       1 <0>         0.7087
     10 O2         -2.5778   -2.3602   -1.5954 O.2       1 <0>        -0.5883
     11 N2         -1.9632   -4.1734   -0.4694 N.am      1 <0>        -0.6532
     12 C7         -2.5680   -5.0111   -1.4028 C.ar      1 <0>         0.1839
     13 C8         -3.6976   -4.5884   -2.0907 C.ar      1 <0>        -0.1175
     14 C9         -4.2963   -5.4193   -3.0155 C.ar      1 <0>        -0.1389
     15 C10        -3.7764   -6.6816   -3.2666 C.ar      1 <0>         0.0548
     16 C11        -2.6550   -7.1189   -2.5936 C.ar      1 <0>        -0.0982
     17 C12        -2.0350   -6.2850   -1.6568 C.ar      1 <0>        -0.1415
     18 C13        -0.8349   -6.7420   -0.9387 C.2       1 <0>         0.5283
     19 O3         -0.4398   -7.8916   -1.0773 O.co2     1 <0>        -0.6745
     20 O4         -0.2321   -5.9724   -0.2031 O.co2     1 <0>        -0.6846
     21 F1         -4.3721   -7.4858   -4.1742 F         1 <0>        -0.1509
     22 H2         -0.6169   -1.5492    4.6936 H         1 <0>         0.0655
     23 H3         -0.4839   -3.2040    4.0516 H         1 <0>         0.0772
     24 H4          0.7596   -1.9934    3.6562 H         1 <0>         0.0674
     25 H5          0.4242   -2.5260    1.2956 H         1 <0>         0.0813
     26 H6         -0.9662   -3.6129    1.5463 H         1 <0>         0.0954
     27 H7         -0.1608   -0.3383   -0.3120 H         1 <0>         0.0726
     28 H8         -1.8497   -0.3091   -0.8814 H         1 <0>         0.1029
     29 H9         -1.4022    1.2205    1.0952 H         1 <0>         0.1051
     30 H10        -2.6723    0.0076    1.3908 H         1 <0>         0.0545
     31 H11        -1.5375   -4.5502    0.3165 H         1 <0>         0.4218
     32 H12        -4.1086   -3.6078   -1.9014 H         1 <0>         0.1467
     33 H13        -5.1751   -5.0855   -3.5471 H         1 <0>         0.1287
     34 H14        -2.2538   -8.1018   -2.7921 H         1 <0>         0.1414
@<TRIPOS>BOND
     1    1    2 1
     2    1   22 1
     3    1   23 1
     4    1   24 1
     5    2    3 1
     6    2    8 1
     7    2    4 1
     8    4    5 1
     9    4   25 1
    10    4   26 1
    11    5    6 1
    12    5    9 am
    13    6    7 1
    14    6   27 1
    15    6   28 1
    16    7    8 1
    17    7   29 1
    18    7   30 1
    19    9   10 2
    20    9   11 am
    21   11   12 1
    22   11   31 1
    23   12   17 ar
    24   12   13 ar
    25   13   14 ar
    26   13   32 1
    27   14   15 ar
    28   14   33 1
    29   15   16 ar
    30   15   21 1
    31   16   17 ar
    32   16   34 1
    33   17   18 1
    34   18   19 2
    35   18   20 1
@<TRIPOS>MOLECULE
ZINC49513730
   40    41     0     0     0
SMALL
USER_CHARGES

@<TRIPOS>ATOM
      1 C1         -0.0187    1.5258    0.0104 C.3       1 <0>        -0.1407
      2 C2          0.0021   -0.0041    0.0020 C.3       1 <0>        -0.0104
      3 C3          0.7421   -0.5109    1.2415 C.3       1 <0>        -0.1430
      4 C4         -1.4117   -0.5257    0.0127 C.2       1 <0>         0.0621
      5 C5         -2.1967   -0.7201    1.1475 C.2       1 <0>        -0.2141
      6 C6         -3.4183   -1.2065    0.7334 C.2       1 <0>         0.1253
      7 N1         -3.3710   -1.3038   -0.6279 N.pl3     1 <0>        -0.4548
      8 N2         -2.1073   -0.8657   -1.0431 N.2       1 <0>        -0.2978
      9 H1         -4.0858   -1.6166   -1.2042 H         1 <0>         0.4423
     10 C7         -4.5604   -1.5563    1.5974 C.2       1 <0>         0.5420
     11 O1         -5.7048   -2.0254    1.0490 O.3       1 <0>        -0.7104
     12 N3         -4.4678   -1.4136    2.8884 N.2       1 <0>        -1.0487
     13 S1         -5.7508   -1.8065    3.8590 S.o2      1 <0>         2.5764
     14 O2         -6.7777   -0.8969    3.4884 O.2       1 <0>        -0.9979
     15 O3         -5.9240   -3.2058    3.6823 O.2       1 <0>        -1.0027
     16 C8         -5.1838   -1.4553    5.5460 C.3       1 <0>        -0.5673
     17 C9         -4.8182    0.0258    5.6631 C.3       1 <0>        -0.0975
     18 C10        -4.3400    0.3220    7.0860 C.3       1 <0>        -0.1116
     19 C11        -5.4569   -0.0076    8.0784 C.3       1 <0>        -0.1215
     20 C12        -5.8225   -1.4887    7.9612 C.3       1 <0>        -0.1084
     21 C13        -6.3007   -1.7849    6.5384 C.3       1 <0>        -0.1090
     22 H2          1.0039    1.9031    0.0027 H         1 <0>         0.0574
     23 H3         -0.5459    1.8868   -0.8726 H         1 <0>         0.0545
     24 H4         -0.5289    1.8773    0.9072 H         1 <0>         0.0602
     25 H5          0.5123   -0.3556   -0.8948 H         1 <0>         0.0792
     26 H6          0.7568   -1.6008    1.2356 H         1 <0>         0.0570
     27 H7          1.7647   -0.1336    1.2338 H         1 <0>         0.0567
     28 H8          0.2319   -0.1594    2.1383 H         1 <0>         0.0637
     29 H9         -1.9011   -0.5254    2.1678 H         1 <0>         0.1549
     30 H10        -4.3080   -2.0645    5.7692 H         1 <0>         0.1270
     31 H11        -4.0225    0.2606    4.9561 H         1 <0>         0.0877
     32 H12        -5.6940    0.6350    5.4399 H         1 <0>         0.0721
     33 H13        -3.4642   -0.2872    7.3092 H         1 <0>         0.0623
     34 H14        -4.0795    1.3771    7.1695 H         1 <0>         0.0626
     35 H15        -5.1162    0.2034    9.0920 H         1 <0>         0.0590
     36 H16        -6.3327    0.6016    7.8552 H         1 <0>         0.0621
     37 H17        -4.9467   -2.0979    8.1844 H         1 <0>         0.0635
     38 H18        -6.6182   -1.7235    8.6682 H         1 <0>         0.0624
     39 H19        -7.1766   -1.1756    6.3152 H         1 <0>         0.0730
     40 H20        -6.5612   -2.8400    6.4549 H         1 <0>         0.0721
@<TRIPOS>BOND
     1    1    2 1
     2    1   22 1
     3    1   23 1
     4    1   24 1
     5    2    3 1
     6    2    4 1
     7    2   25 1
     8    3   26 1
     9    3   27 1
    10    3   28 1
    11    4    5 1
    12    4    8 2
    13    5   29 1
    14    5    6 2
    15    6   10 1
    16    6    7 1
    17    7    9 1
    18    7    8 1
    19   10   11 1
    20   10   12 2
    21   12   13 1
    22   13   14 2
    23   13   15 2
    24   13   16 1
    25   16   21 1
    26   16   17 1
    27   16   30 1
    28   17   18 1
    29   17   31 1
    30   17   32 1
    31   18   19 1
    32   18   33 1
    33   18   34 1
    34   19   20 1
    35   19   35 1
    36   19   36 1
    37   20   21 1
    38   20   37 1
    39   20   38 1
    40   21   39 1
    41   21   40 1
