@<TRIPOS>MOLECULE
3BWM-DNC
 18 18 0 0 0
SMALL
SF_CHARGES


@<TRIPOS>ATOM
1    C        -4.5400  -12.5550  -16.2070  C.2        1 SUBUNIT      0.1980
2    O        -4.9790  -12.7460  -14.9300  O.3        1 SUBUNIT     -0.4660
3    C        -4.4190  -11.1870  -16.7510  C.2        1 SUBUNIT      0.1786
4    O        -4.7300  -10.1190  -15.9720  O.3        1 SUBUNIT     -0.4697
5    C        -3.9460  -11.0220  -18.1390  C.2        1 SUBUNIT      0.0135
6    N        -3.7970   -9.7460  -18.6960  N.pl3      1 SUBUNIT      0.9398
7    O        -4.3380   -8.7720  -18.2000  O.2        1 SUBUNIT     -0.5791
8    O        -3.1050   -9.5950  -19.6860  O.2        1 SUBUNIT     -0.5791
9    C        -3.6390  -12.1570  -18.8760  C.2        1 SUBUNIT     -0.0784
10   C        -3.7730  -13.4330  -18.3280  C.2        1 SUBUNIT      0.0235
11   N        -3.4310  -14.5410  -19.1120  N.pl3      1 SUBUNIT      0.9350
12   O        -3.0530  -14.3450  -20.2510  O.2        1 SUBUNIT     -0.5869
13   O        -3.4830  -15.6920  -18.6640  O.2        1 SUBUNIT     -0.5869
14   C        -4.2110  -13.6290  -17.0160  C.2        1 SUBUNIT     -0.0909
15   H        -5.3654  -13.6222  -14.8618  H          1 SUBUNIT      0.4248
16   H        -5.5787   -9.7674  -16.2508  H          1 SUBUNIT      0.4244
17   H        -3.2914  -12.0481  -19.8885  H          1 SUBUNIT      0.1497
18   H        -4.2954  -14.6276  -16.6242  H          1 SUBUNIT      0.1498
@<TRIPOS>BOND
     1    1    2 1
     2    1    3 2
     3    1   14 1
     4    3    4 1
     5    3    5 1
     6    5    6 1
     7    5    9 2
     8    6    7 2
     9    6    8 1
    10    9   10 1
    11   10   11 1
    12   10   14 2
    13   11   12 2
    14   11   13 1
    15    2   15 1
    16    4   16 1
    17    9   17 1
    18   14   18 1
