@<TRIPOS>MOLECULE
CHEMBL573015
   45    47     0     0     0
SMALL
USER_CHARGES

@<TRIPOS>ATOM
      1 C1          7.3631   -4.6623    1.4092 C.ar      1 <0>        -0.1331
      2 C2          6.3358   -5.5849    1.3438 C.ar      1 <0>        -0.1230
      3 C3          5.0700   -5.1838    0.9595 C.ar      1 <0>        -0.1197
      4 C4          4.8313   -3.8600    0.6411 C.ar      1 <0>        -0.0700
      5 C5          5.8584   -2.9372    0.7074 C.ar      1 <0>        -0.1035
      6 C6          7.1245   -3.3385    1.0903 C.ar      1 <0>        -0.1226
      7 C7          3.4515   -3.4229    0.2213 C.3       1 <0>        -0.0639
      8 C8          2.6515   -3.0038    1.4562 C.3       1 <0>         0.0229
      9 C9          1.2352   -2.6841    1.0525 C.2       1 <0>         0.4807
     10 O1          0.5132   -3.5631    0.6136 O.co2     1 <0>        -0.6893
     11 O2          0.8113   -1.5465    1.1648 O.co2     1 <0>        -0.6690
     12 O3          3.2521   -1.8476    2.0431 O.3       1 <0>        -0.2881
     13 C10         3.0276   -1.6406    3.3673 C.ar      1 <0>         0.1817
     14 C11         3.6663   -0.6000    4.0260 C.ar      1 <0>        -0.1661
     15 C12         3.4360   -0.3913    5.3720 C.ar      1 <0>        -0.0603
     16 C13         2.5702   -1.2188    6.0629 C.ar      1 <0>        -0.1454
     17 C14         1.9327   -2.2569    5.4088 C.ar      1 <0>        -0.0549
     18 C15         2.1549   -2.4659    4.0615 C.ar      1 <0>        -0.2010
     19 C16         2.3212   -0.9893    7.5313 C.3       1 <0>        -0.0462
     20 S1          0.9201    0.1443    7.7371 S.3       1 <0>        -0.1078
     21 C17         0.7581    0.3092    9.4839 C.ar      1 <0>        -0.0817
     22 C18         1.6275   -0.3676   10.3310 C.ar      1 <0>        -0.1377
     23 C19         1.4976   -0.2360   11.6994 C.ar      1 <0>        -0.1010
     24 C20         0.5038    0.5681   12.2272 C.ar      1 <0>        -0.1333
     25 C21        -0.3635    1.2428   11.3873 C.ar      1 <0>        -0.1016
     26 C22        -0.2357    1.1208   10.0178 C.ar      1 <0>        -0.1040
     27 H1          8.3510   -4.9748    1.7137 H         1 <0>         0.1152
     28 H2          6.5223   -6.6192    1.5926 H         1 <0>         0.1170
     29 H3          4.2675   -5.9048    0.9078 H         1 <0>         0.1213
     30 H4          5.6720   -1.9030    0.4582 H         1 <0>         0.1228
     31 H5          7.9271   -2.6176    1.1417 H         1 <0>         0.1171
     32 H6          3.5306   -2.5790   -0.4641 H         1 <0>         0.0788
     33 H7          2.9445   -4.2493   -0.2769 H         1 <0>         0.0965
     34 H8          2.6477   -3.8185    2.1804 H         1 <0>         0.0669
     35 H9          4.3432    0.0462    3.4870 H         1 <0>         0.1276
     36 H10         3.9330    0.4186    5.8852 H         1 <0>         0.1236
     37 H11         1.2571   -2.9021    5.9507 H         1 <0>         0.1203
     38 H12         1.6533   -3.2742    3.5500 H         1 <0>         0.1298
     39 H13         2.0937   -1.9396    8.0142 H         1 <0>         0.0906
     40 H14         3.2107   -0.5540    7.9870 H         1 <0>         0.0908
     41 H15         2.4036   -0.9959    9.9195 H         1 <0>         0.1227
     42 H16         2.1726   -0.7619   12.3583 H         1 <0>         0.1228
     43 H17         0.4045    0.6691   13.2978 H         1 <0>         0.1217
     44 H18        -1.1386    1.8695   11.8029 H         1 <0>         0.1253
     45 H19        -0.9100    1.6521    9.3624 H         1 <0>         0.1272
@<TRIPOS>BOND
     1    1    6 ar
     2    1    2 ar
     3    1   27 1
     4    2    3 ar
     5    2   28 1
     6    3    4 ar
     7    3   29 1
     8    4    5 ar
     9    4    7 1
    10    5    6 ar
    11    5   30 1
    12    6   31 1
    13    7    8 1
    14    7   32 1
    15    7   33 1
    16    8    9 1
    17    8   12 1
    18    8   34 1
    19    9   10 2
    20    9   11 1
    21   12   13 1
    22   13   18 ar
    23   13   14 ar
    24   14   15 ar
    25   14   35 1
    26   15   16 ar
    27   15   36 1
    28   16   17 ar
    29   16   19 1
    30   17   18 ar
    31   17   37 1
    32   18   38 1
    33   19   20 1
    34   19   39 1
    35   19   40 1
    36   20   21 1
    37   21   26 ar
    38   21   22 ar
    39   22   23 ar
    40   22   41 1
    41   23   24 ar
    42   23   42 1
    43   24   25 ar
    44   24   43 1
    45   25   26 ar
    46   25   44 1
    47   26   45 1
@<TRIPOS>MOLECULE
CHEMBL573015__1
   45    47     0     0     0
SMALL
USER_CHARGES

@<TRIPOS>ATOM
      1 C1          9.0062   -1.2809    0.6393 C.ar      1 <0>        -0.1326
      2 C2          7.7691   -1.8819    0.5003 C.ar      1 <0>        -0.1224
      3 C3          6.6414   -1.1059    0.3081 C.ar      1 <0>        -0.1036
      4 C4          6.7507    0.2711    0.2553 C.ar      1 <0>        -0.0705
      5 C5          7.9876    0.8722    0.3952 C.ar      1 <0>        -0.1196
      6 C6          9.1156    0.0961    0.5860 C.ar      1 <0>        -0.1227
      7 C7          5.5214    1.1171    0.0448 C.3       1 <0>        -0.0636
      8 C8          4.9093    1.4736    1.4009 C.3       1 <0>         0.0229
      9 C9          3.7535    2.4190    1.1974 C.2       1 <0>         0.4811
     10 O1          2.6213    2.0680    1.4825 O.co2     1 <0>        -0.6703
     11 O2          3.9507    3.5350    0.7476 O.co2     1 <0>        -0.6891
     12 O3          4.4442    0.2837    2.0412 O.3       1 <0>        -0.2882
     13 C10         4.3513    0.3086    3.3968 C.ar      1 <0>         0.1822
     14 C11         4.0204   -0.8456    4.0919 C.ar      1 <0>        -0.1665
     15 C12         3.9271   -0.8178    5.4699 C.ar      1 <0>        -0.0600
     16 C13         4.1626    0.3591    6.1563 C.ar      1 <0>        -0.1452
     17 C14         4.4921    1.5108    5.4659 C.ar      1 <0>        -0.0543
     18 C15         4.5928    1.4868    4.0883 C.ar      1 <0>        -0.2013
     19 C16         4.0596    0.3866    7.6596 C.3       1 <0>        -0.0450
     20 S1          5.6761   -0.0047    8.3837 S.3       1 <0>        -0.1152
     21 C17         5.3933    0.0669   10.1214 C.ar      1 <0>        -0.0809
     22 C18         4.1276    0.3691   10.6093 C.ar      1 <0>        -0.1365
     23 C19         3.9098    0.4244   11.9717 C.ar      1 <0>        -0.1003
     24 C20         4.9493    0.1794   12.8504 C.ar      1 <0>        -0.1324
     25 C21         6.2103   -0.1213   12.3685 C.ar      1 <0>        -0.1023
     26 C22         6.4341   -0.1844   11.0074 C.ar      1 <0>        -0.1045
     27 H1          9.8867   -1.8869    0.7940 H         1 <0>         0.1154
     28 H2          7.6837   -2.9577    0.5415 H         1 <0>         0.1172
     29 H3          5.6750   -1.5754    0.1988 H         1 <0>         0.1225
     30 H4          8.0731    1.9480    0.3537 H         1 <0>         0.1212
     31 H5         10.0820    0.5657    0.6950 H         1 <0>         0.1172
     32 H6          5.7953    2.0313   -0.4819 H         1 <0>         0.0964
     33 H7          4.7945    0.5607   -0.5470 H         1 <0>         0.0786
     34 H8          5.6638    1.9514    2.0258 H         1 <0>         0.0672
     35 H9          3.8357   -1.7649    3.5561 H         1 <0>         0.1276
     36 H10         3.6695   -1.7160    6.0114 H         1 <0>         0.1236
     37 H11         4.6753    2.4289    6.0044 H         1 <0>         0.1203
     38 H12         4.8545    2.3856    3.5498 H         1 <0>         0.1298
     39 H13         3.7467    1.3790    7.9842 H         1 <0>         0.0915
     40 H14         3.3267   -0.3507    7.9871 H         1 <0>         0.0915
     41 H15         3.3155    0.5609    9.9237 H         1 <0>         0.1237
     42 H16         2.9265    0.6596   12.3515 H         1 <0>         0.1236
     43 H17         4.7760    0.2233   13.9155 H         1 <0>         0.1221
     44 H18         7.0198   -0.3117   13.0576 H         1 <0>         0.1252
     45 H19         7.4179   -0.4244   10.6318 H         1 <0>         0.1263
@<TRIPOS>BOND
     1    1    6 ar
     2    1    2 ar
     3    1   27 1
     4    2    3 ar
     5    2   28 1
     6    3    4 ar
     7    3   29 1
     8    4    5 ar
     9    4    7 1
    10    5    6 ar
    11    5   30 1
    12    6   31 1
    13    7    8 1
    14    7   32 1
    15    7   33 1
    16    8    9 1
    17    8   12 1
    18    8   34 1
    19    9   10 2
    20    9   11 1
    21   12   13 1
    22   13   18 ar
    23   13   14 ar
    24   14   15 ar
    25   14   35 1
    26   15   16 ar
    27   15   36 1
    28   16   17 ar
    29   16   19 1
    30   17   18 ar
    31   17   37 1
    32   18   38 1
    33   19   20 1
    34   19   39 1
    35   19   40 1
    36   20   21 1
    37   21   26 ar
    38   21   22 ar
    39   22   23 ar
    40   22   41 1
    41   23   24 ar
    42   23   42 1
    43   24   25 ar
    44   24   43 1
    45   25   26 ar
    46   25   44 1
    47   26   45 1
@<TRIPOS>MOLECULE
CHEMBL363018
   73    77     0     0     0
SMALL
USER_CHARGES

@<TRIPOS>ATOM
      1 C1         -4.5303   -5.4178   -3.1682 C.3       1 <0>        -0.0998
      2 C2         -3.3307   -5.0705   -2.3248 C.ar      1 <0>        -0.1455
      3 C3         -2.2986   -4.3264   -2.8659 C.ar      1 <0>        -0.0956
      4 C4         -1.1977   -4.0071   -2.0949 C.ar      1 <0>        -0.1703
      5 C5         -1.1284   -4.4334   -0.7765 C.ar      1 <0>         0.1653
      6 C6         -2.1654   -5.1795   -0.2358 C.ar      1 <0>        -0.1552
      7 C7         -3.2666   -5.4917   -1.0094 C.ar      1 <0>        -0.0952
      8 O1         -0.0462   -4.1209   -0.0162 O.3       1 <0>        -0.2974
      9 C8          0.0171   -4.6970    1.2900 C.3       1 <0>         0.0476
     10 C9          1.2986   -4.2378    1.9884 C.3       1 <0>        -0.1152
     11 C10         0.0176   -6.2227    1.1750 C.3       1 <0>        -0.1073
     12 C11         1.2817   -6.6745    0.4902 C.ar      1 <0>        -0.0926
     13 C12         1.3151   -6.7960   -0.8867 C.ar      1 <0>        -0.0675
     14 C13         2.4725   -7.2104   -1.5168 C.ar      1 <0>        -0.1475
     15 C14         3.6021   -7.5042   -0.7669 C.ar      1 <0>         0.1153
     16 C15         3.5662   -7.3810    0.6145 C.ar      1 <0>        -0.2071
     17 C16         2.4078   -6.9613    1.2394 C.ar      1 <0>        -0.0765
     18 O2          4.7418   -7.9124   -1.3844 O.3       1 <0>        -0.3168
     19 C17         5.8657   -8.1976   -0.5492 C.3       1 <0>         0.0684
     20 C18         7.0465   -8.6390   -1.4164 C.3       1 <0>        -0.0343
     21 C19         8.2318   -8.9397   -0.5356 C.2       1 <0>        -0.0067
     22 C20         9.1771   -8.0620   -0.1523 C.2       1 <0>        -0.0304
     23 O3         10.0520   -8.7302    0.6252 O.3       1 <0>        -0.1930
     24 C21         9.6335  -10.0052    0.7086 C.2       1 <0>         0.2282
     25 N1          8.5289  -10.1284    0.0103 N.2       1 <0>        -0.4580
     26 C22        10.3011  -11.0845    1.4646 C.ar      1 <0>        -0.0154
     27 C23         9.7635  -12.3738    1.4643 C.ar      1 <0>        -0.0654
     28 C24        10.3868  -13.3791    2.1688 C.ar      1 <0>        -0.1119
     29 C25        11.5545  -13.1105    2.8830 C.ar      1 <0>        -0.0261
     30 C26        12.0920  -11.8233    2.8843 C.ar      1 <0>        -0.1121
     31 C27        11.4737  -10.8179    2.1755 C.ar      1 <0>        -0.0851
     32 C28        12.2247  -14.1940    3.6418 C.ar      1 <0>        -0.0512
     33 C29        11.6932  -15.4827    3.6384 C.ar      1 <0>        -0.1069
     34 C30        12.3211  -16.4870    4.3465 C.ar      1 <0>        -0.1180
     35 C31        13.4756  -16.2168    5.0590 C.ar      1 <0>        -0.1162
     36 C32        14.0076  -14.9399    5.0661 C.ar      1 <0>        -0.1187
     37 C33        13.3917  -13.9290    4.3566 C.ar      1 <0>        -0.1077
     38 C34         9.2451   -6.6031   -0.5238 C.3       1 <0>        -0.0732
     39 C35        -1.1789   -4.2541    2.0928 C.2       1 <0>         0.4818
     40 O4         -2.0085   -3.5138    1.5928 O.co2     1 <0>        -0.6665
     41 O5         -1.3168   -4.6362    3.2424 O.co2     1 <0>        -0.6848
     42 H1         -5.2817   -4.6342   -3.0713 H         1 <0>         0.0592
     43 H2         -4.2279   -5.5041   -4.2119 H         1 <0>         0.0564
     44 H3         -4.9488   -6.3662   -2.8316 H         1 <0>         0.0571
     45 H4         -2.3530   -3.9947   -3.8923 H         1 <0>         0.1154
     46 H5         -0.3915   -3.4264   -2.5183 H         1 <0>         0.1183
     47 H6         -2.1138   -5.5126    0.7903 H         1 <0>         0.1379
     48 H7         -4.0762   -6.0688   -0.5876 H         1 <0>         0.1122
     49 H8          1.2518   -3.1630    2.1635 H         1 <0>         0.0548
     50 H9          1.3991   -4.7571    2.9415 H         1 <0>         0.0744
     51 H10         2.1579   -4.4662    1.3578 H         1 <0>         0.0551
     52 H11        -0.0329   -6.6622    2.1712 H         1 <0>         0.0893
     53 H12        -0.8459   -6.5434    0.5922 H         1 <0>         0.0851
     54 H13         0.4355   -6.5671   -1.4700 H         1 <0>         0.1258
     55 H14         2.4979   -7.3058   -2.5923 H         1 <0>         0.1263
     56 H15         4.4442   -7.6092    1.2005 H         1 <0>         0.1211
     57 H16         2.3806   -6.8610    2.3144 H         1 <0>         0.1241
     58 H17         6.1397   -7.3025    0.0093 H         1 <0>         0.0609
     59 H18         5.6079   -8.9956    0.1470 H         1 <0>         0.0644
     60 H19         6.7725   -9.5340   -1.9749 H         1 <0>         0.0942
     61 H20         7.3043   -7.8410   -2.1126 H         1 <0>         0.0927
     62 H21         8.8590  -12.5818    0.9120 H         1 <0>         0.1421
     63 H22         9.9713  -14.3760    2.1687 H         1 <0>         0.1356
     64 H23        12.9959  -11.6163    3.4379 H         1 <0>         0.1338
     65 H24        11.8926   -9.8225    2.1727 H         1 <0>         0.1334
     66 H25        10.7915  -15.6946    3.0830 H         1 <0>         0.1275
     67 H26        11.9103  -17.4858    4.3445 H         1 <0>         0.1255
     68 H27        13.9633  -17.0058    5.6123 H         1 <0>         0.1233
     69 H28        14.9092  -14.7347    5.6241 H         1 <0>         0.1250
     70 H29        13.8104  -12.9335    4.3592 H         1 <0>         0.1265
     71 H30         8.7044   -6.0140    0.2169 H         1 <0>         0.0893
     72 H31        10.2868   -6.2836   -0.5522 H         1 <0>         0.0813
     73 H32         8.7932   -6.4566   -1.5049 H         1 <0>         0.0968
@<TRIPOS>BOND
     1    1    2 1
     2    1   42 1
     3    1   43 1
     4    1   44 1
     5    2    7 ar
     6    2    3 ar
     7    3    4 ar
     8    3   45 1
     9    4    5 ar
    10    4   46 1
    11    5    6 ar
    12    5    8 1
    13    6    7 ar
    14    6   47 1
    15    7   48 1
    16    8    9 1
    17    9   10 1
    18    9   11 1
    19    9   39 1
    20   10   49 1
    21   10   50 1
    22   10   51 1
    23   11   12 1
    24   11   52 1
    25   11   53 1
    26   12   17 ar
    27   12   13 ar
    28   13   14 ar
    29   13   54 1
    30   14   15 ar
    31   14   55 1
    32   15   16 ar
    33   15   18 1
    34   16   17 ar
    35   16   56 1
    36   17   57 1
    37   18   19 1
    38   19   20 1
    39   19   58 1
    40   19   59 1
    41   20   21 1
    42   20   60 1
    43   20   61 1
    44   21   25 1
    45   21   22 2
    46   22   23 1
    47   22   38 1
    48   23   24 1
    49   24   25 2
    50   24   26 1
    51   26   31 ar
    52   26   27 ar
    53   27   28 ar
    54   27   62 1
    55   28   29 ar
    56   28   63 1
    57   29   30 ar
    58   29   32 1
    59   30   31 ar
    60   30   64 1
    61   31   65 1
    62   32   37 ar
    63   32   33 ar
    64   33   34 ar
    65   33   66 1
    66   34   35 ar
    67   34   67 1
    68   35   36 ar
    69   35   68 1
    70   36   37 ar
    71   36   69 1
    72   37   70 1
    73   38   71 1
    74   38   72 1
    75   38   73 1
    76   39   40 2
    77   39   41 1
@<TRIPOS>MOLECULE
CHEMBL363018__1
   73    77     0     0     0
SMALL
USER_CHARGES

@<TRIPOS>ATOM
      1 C1         -0.1094    1.5873    0.6071 C.3       1 <0>        -0.0994
      2 C2         -0.0457    0.0893    0.4558 C.ar      1 <0>        -0.1466
      3 C3         -0.1666   -0.4837   -0.7967 C.ar      1 <0>        -0.0963
      4 C4         -0.1090   -1.8567   -0.9379 C.ar      1 <0>        -0.1695
      5 C5          0.0707   -2.6607    0.1783 C.ar      1 <0>         0.1654
      6 C6          0.1921   -2.0834    1.4339 C.ar      1 <0>        -0.1535
      7 C7          0.1391   -0.7096    1.5691 C.ar      1 <0>        -0.0965
      8 O1          0.1273   -4.0117    0.0420 O.3       1 <0>        -0.2979
      9 C8          0.1825   -4.7832    1.2436 C.3       1 <0>         0.0385
     10 C9         -1.0556   -4.4922    2.0939 C.3       1 <0>        -0.1771
     11 C10         0.2217   -6.2719    0.8924 C.3       1 <0>        -0.0440
     12 C11         1.5020   -6.5818    0.1604 C.ar      1 <0>        -0.1013
     13 C12         1.5493   -6.4863   -1.2181 C.ar      1 <0>        -0.0634
     14 C13         2.7215   -6.7704   -1.8916 C.ar      1 <0>        -0.1574
     15 C14         3.8521   -7.1512   -1.1834 C.ar      1 <0>         0.1180
     16 C15         3.8022   -7.2458    0.1998 C.ar      1 <0>        -0.2066
     17 C16         2.6289   -6.9557    0.8689 C.ar      1 <0>        -0.0519
     18 O2          5.0064   -7.4316   -1.8436 O.3       1 <0>        -0.3183
     19 C17         6.1304   -7.8173   -1.0500 C.3       1 <0>         0.0676
     20 C18         7.3285   -8.0905   -1.9615 C.3       1 <0>        -0.0333
     21 C19         8.5139   -8.4973   -1.1246 C.2       1 <0>        -0.0070
     22 C20         9.4342   -7.6684   -0.5983 C.2       1 <0>        -0.0275
     23 O3         10.3192   -8.4291    0.0759 O.3       1 <0>        -0.1929
     24 C21         9.9318   -9.7108   -0.0451 C.2       1 <0>         0.2242
     25 N1          8.8361   -9.7493   -0.7670 N.2       1 <0>        -0.4568
     26 C22        10.6199  -10.8790    0.5413 C.ar      1 <0>        -0.0123
     27 C23        10.1144  -12.1647    0.3340 C.ar      1 <0>        -0.0663
     28 C24        10.7568  -13.2528    0.8806 C.ar      1 <0>        -0.1116
     29 C25        11.9119  -13.0718    1.6415 C.ar      1 <0>        -0.0285
     30 C26        12.4173  -11.7884    1.8494 C.ar      1 <0>        -0.1116
     31 C27        11.7799  -10.6994    1.2986 C.ar      1 <0>        -0.0858
     32 C28        12.6027  -14.2445    2.2301 C.ar      1 <0>        -0.0495
     33 C29        12.1033  -15.5288    2.0198 C.ar      1 <0>        -0.1074
     34 C30        12.7504  -16.6165    2.5701 C.ar      1 <0>        -0.1182
     35 C31        13.8922  -16.4339    3.3295 C.ar      1 <0>        -0.1172
     36 C32        14.3923  -15.1617    3.5415 C.ar      1 <0>        -0.1186
     37 C33        13.7571  -14.0672    2.9910 C.ar      1 <0>        -0.1081
     38 C34         9.4689   -6.1682   -0.7373 C.3       1 <0>        -0.0744
     39 C35         1.4218   -4.4172    2.0190 C.2       1 <0>         0.4909
     40 O4          2.1868   -3.5738    1.5830 O.co2     1 <0>        -0.6650
     41 O5          1.6595   -4.9644    3.0822 O.co2     1 <0>        -0.6890
     42 H1          0.8932    2.0047    0.5149 H         1 <0>         0.0591
     43 H2         -0.7494    2.0041   -0.1706 H         1 <0>         0.0563
     44 H3         -0.5182    1.8366    1.5863 H         1 <0>         0.0568
     45 H4         -0.3064    0.1426   -1.6653 H         1 <0>         0.1152
     46 H5         -0.2041   -2.3038   -1.9164 H         1 <0>         0.1182
     47 H6          0.3321   -2.7072    2.3043 H         1 <0>         0.1378
     48 H7          0.2379   -0.2594    2.5458 H         1 <0>         0.1115
     49 H8         -1.9321   -4.9386    1.6242 H         1 <0>         0.0509
     50 H9         -0.9209   -4.9163    3.0889 H         1 <0>         0.0750
     51 H10        -1.1960   -3.4143    2.1744 H         1 <0>         0.0692
     52 H11         0.1743   -6.8623    1.8074 H         1 <0>         0.0895
     53 H12        -0.6289   -6.5178    0.2568 H         1 <0>         0.0676
     54 H13         0.6689   -6.1898   -1.7689 H         1 <0>         0.1246
     55 H14         2.7577   -6.6963   -2.9684 H         1 <0>         0.1233
     56 H15         4.6810   -7.5421    0.7533 H         1 <0>         0.1187
     57 H16         2.5908   -7.0249    1.9460 H         1 <0>         0.1307
     58 H17         6.3777   -7.0141   -0.3558 H         1 <0>         0.0618
     59 H18         5.8869   -8.7199   -0.4896 H         1 <0>         0.0636
     60 H19         7.0812   -8.8936   -2.6557 H         1 <0>         0.0932
     61 H20         7.5720   -7.1879   -2.5219 H         1 <0>         0.0924
     62 H21         9.2198  -12.3050   -0.2545 H         1 <0>         0.1421
     63 H22        10.3662  -14.2469    0.7204 H         1 <0>         0.1351
     64 H23        13.3114  -11.6493    2.4390 H         1 <0>         0.1335
     65 H24        12.1741   -9.7062    1.4557 H         1 <0>         0.1336
     66 H25        11.2116  -15.6724    1.4278 H         1 <0>         0.1275
     67 H26        12.3644  -17.6120    2.4080 H         1 <0>         0.1251
     68 H27        14.3949  -17.2880    3.7588 H         1 <0>         0.1229
     69 H28        15.2841  -15.0252    4.1352 H         1 <0>         0.1247
     70 H29        14.1510  -13.0748    3.1533 H         1 <0>         0.1266
     71 H30         8.9080   -5.7145    0.0797 H         1 <0>         0.0914
     72 H31        10.5026   -5.8240   -0.7035 H         1 <0>         0.0810
     73 H32         9.0213   -5.8810   -1.6888 H         1 <0>         0.0971
@<TRIPOS>BOND
     1    1    2 1
     2    1   42 1
     3    1   43 1
     4    1   44 1
     5    2    7 ar
     6    2    3 ar
     7    3    4 ar
     8    3   45 1
     9    4    5 ar
    10    4   46 1
    11    5    6 ar
    12    5    8 1
    13    6    7 ar
    14    6   47 1
    15    7   48 1
    16    8    9 1
    17    9   10 1
    18    9   11 1
    19    9   39 1
    20   10   49 1
    21   10   50 1
    22   10   51 1
    23   11   12 1
    24   11   52 1
    25   11   53 1
    26   12   17 ar
    27   12   13 ar
    28   13   14 ar
    29   13   54 1
    30   14   15 ar
    31   14   55 1
    32   15   16 ar
    33   15   18 1
    34   16   17 ar
    35   16   56 1
    36   17   57 1
    37   18   19 1
    38   19   20 1
    39   19   58 1
    40   19   59 1
    41   20   21 1
    42   20   60 1
    43   20   61 1
    44   21   25 1
    45   21   22 2
    46   22   23 1
    47   22   38 1
    48   23   24 1
    49   24   25 2
    50   24   26 1
    51   26   31 ar
    52   26   27 ar
    53   27   28 ar
    54   27   62 1
    55   28   29 ar
    56   28   63 1
    57   29   30 ar
    58   29   32 1
    59   30   31 ar
    60   30   64 1
    61   31   65 1
    62   32   37 ar
    63   32   33 ar
    64   33   34 ar
    65   33   66 1
    66   34   35 ar
    67   34   67 1
    68   35   36 ar
    69   35   68 1
    70   36   37 ar
    71   36   69 1
    72   37   70 1
    73   38   71 1
    74   38   72 1
    75   38   73 1
    76   39   40 2
    77   39   41 1
@<TRIPOS>MOLECULE
CHEMBL373685
   74    77     0     0     0
SMALL
USER_CHARGES

@<TRIPOS>ATOM
      1 C1         -0.1450    1.4385   -0.0041 C.3       1 <0>        -0.0736
      2 C2         -0.1000   -0.0676    0.0233 C.2       1 <0>        -0.0267
      3 C3         -1.1575   -0.8958    0.0920 C.2       1 <0>        -0.0075
      4 N1         -0.6942   -2.1553    0.0939 N.2       1 <0>        -0.4557
      5 C4          0.6164   -2.1203    0.0283 C.2       1 <0>         0.2266
      6 O1          1.0075   -0.8350   -0.0223 O.3       1 <0>        -0.1922
      7 C5          1.5109   -3.2959    0.0071 C.ar      1 <0>        -0.0161
      8 C6          0.9747   -4.5845    0.0532 C.ar      1 <0>        -0.0531
      9 C7          1.8124   -5.6785    0.0328 C.ar      1 <0>        -0.1395
     10 C8          3.1886   -5.5008   -0.0331 C.ar      1 <0>         0.1060
     11 C9          3.7259   -4.2205   -0.0791 C.ar      1 <0>        -0.1216
     12 C10         2.8945   -3.1215   -0.0648 C.ar      1 <0>        -0.0719
     13 O2          4.0110   -6.5815   -0.0521 O.3       1 <0>        -0.2569
     14 C11         3.9804   -7.3871   -1.1459 C.ar      1 <0>         0.1180
     15 C12         3.2277   -7.0261   -2.2543 C.ar      1 <0>        -0.1933
     16 C13         3.1987   -7.8467   -3.3651 C.ar      1 <0>        -0.0809
     17 C14         3.9190   -9.0270   -3.3731 C.ar      1 <0>        -0.1503
     18 C15         4.6698   -9.3892   -2.2700 C.ar      1 <0>        -0.0836
     19 C16         4.7064   -8.5696   -1.1586 C.ar      1 <0>        -0.1442
     20 C17        -2.6054   -0.4828    0.1563 C.3       1 <0>        -0.0343
     21 C18        -3.1673   -0.3707   -1.2624 C.3       1 <0>         0.0682
     22 O3         -4.5402    0.0210   -1.2014 O.3       1 <0>        -0.3151
     23 C19        -5.1933    0.1668   -2.3842 C.ar      1 <0>         0.1103
     24 C20        -4.5280   -0.0679   -3.5789 C.ar      1 <0>        -0.1918
     25 C21        -5.1941    0.0806   -4.7798 C.ar      1 <0>        -0.0830
     26 C22        -6.5231    0.4628   -4.7919 C.ar      1 <0>        -0.0756
     27 C23        -7.1881    0.6977   -3.6029 C.ar      1 <0>        -0.0768
     28 C24        -6.5278    0.5450   -2.3989 C.ar      1 <0>        -0.1236
     29 C25        -8.6362    1.1146   -3.6199 C.3       1 <0>         0.1774
     30 N2         -9.4817   -0.0653   -3.8177 N.am      1 <0>        -0.6993
     31 C26       -10.8221    0.0668   -3.8668 C.2       1 <0>         0.6486
     32 O4        -11.3292    1.1645   -3.7471 O.2       1 <0>        -0.5695
     33 O5        -11.5992   -1.0175   -4.0486 O.3       1 <0>        -0.3610
     34 C27       -13.0115   -0.8039   -4.0906 C.3       1 <0>         0.0958
     35 C28       -13.6602   -1.8577   -4.9903 C.3       1 <0>        -0.1499
     36 C29       -13.5865   -0.9162   -2.6772 C.3       1 <0>        -0.1699
     37 C30        -7.2474    0.6241   -6.1036 C.3       1 <0>        -0.0625
     38 C31        -7.1998    2.0911   -6.5355 C.3       1 <0>        -0.1756
     39 C32        -7.9242    2.2523   -7.8471 C.2       1 <0>         0.4901
     40 O6         -8.4315    1.2837   -8.3864 O.co2     1 <0>        -0.6974
     41 O7         -8.0029    3.3514   -8.3689 O.co2     1 <0>        -0.7052
     42 H1          0.8698    1.8312   -0.0672 H         1 <0>         0.0815
     43 H2         -0.7172    1.7692   -0.8710 H         1 <0>         0.0936
     44 H3         -0.6203    1.8044    0.9060 H         1 <0>         0.0941
     45 H4         -0.0950   -4.7234    0.1051 H         1 <0>         0.1475
     46 H5          1.3984   -6.6754    0.0684 H         1 <0>         0.1406
     47 H6          4.7963   -4.0863   -0.1299 H         1 <0>         0.1420
     48 H7          3.3128   -2.1266   -0.1048 H         1 <0>         0.1409
     49 H8          2.6647   -6.1045   -2.2483 H         1 <0>         0.1298
     50 H9          2.6128   -7.5663   -4.2279 H         1 <0>         0.1278
     51 H10         3.8947   -9.6674   -4.2425 H         1 <0>         0.1261
     52 H11         5.2315  -10.3116   -2.2788 H         1 <0>         0.1317
     53 H12         5.2964   -8.8509   -0.2988 H         1 <0>         0.1327
     54 H13        -3.1717   -1.2291    0.7135 H         1 <0>         0.0948
     55 H14        -2.6860    0.4824    0.6564 H         1 <0>         0.0935
     56 H15        -2.6010    0.3757   -1.8195 H         1 <0>         0.0613
     57 H16        -3.0866   -1.3358   -1.7624 H         1 <0>         0.0652
     58 H17        -3.4900   -0.3660   -3.5700 H         1 <0>         0.1237
     59 H18        -4.6766   -0.1016   -5.7100 H         1 <0>         0.1275
     60 H19        -7.0490    0.7243   -1.4701 H         1 <0>         0.1308
     61 H20        -8.8891    1.5880   -2.6712 H         1 <0>         0.0781
     62 H21        -8.8015    1.8206   -4.4337 H         1 <0>         0.0924
     63 H22        -9.0769   -0.9416   -3.9132 H         1 <0>         0.4073
     64 H23       -13.2170    0.1898   -4.4885 H         1 <0>         0.0873
     65 H24       -13.4547   -2.8515   -4.5924 H         1 <0>         0.0648
     66 H25       -14.7375   -1.6948   -5.0224 H         1 <0>         0.0772
     67 H26       -13.2505   -1.7777   -5.9972 H         1 <0>         0.0677
     68 H27       -13.1244   -0.1654   -2.0362 H         1 <0>         0.0617
     69 H28       -14.6638   -0.7532   -2.7092 H         1 <0>         0.0720
     70 H29       -13.3811   -1.9099   -2.2793 H         1 <0>         0.0623
     71 H30        -6.7671    0.0062   -6.8622 H         1 <0>         0.0710
     72 H31        -8.2856    0.3135   -5.9858 H         1 <0>         0.0751
     73 H32        -7.6801    2.7090   -5.7768 H         1 <0>         0.0577
     74 H33        -6.1616    2.4017   -6.6532 H         1 <0>         0.0570
@<TRIPOS>BOND
     1    1    2 1
     2    1   42 1
     3    1   43 1
     4    1   44 1
     5    2    6 1
     6    2    3 2
     7    3    4 1
     8    3   20 1
     9    4    5 2
    10    5    6 1
    11    5    7 1
    12    7   12 ar
    13    7    8 ar
    14    8    9 ar
    15    8   45 1
    16    9   10 ar
    17    9   46 1
    18   10   11 ar
    19   10   13 1
    20   11   12 ar
    21   11   47 1
    22   12   48 1
    23   13   14 1
    24   14   19 ar
    25   14   15 ar
    26   15   16 ar
    27   15   49 1
    28   16   17 ar
    29   16   50 1
    30   17   18 ar
    31   17   51 1
    32   18   19 ar
    33   18   52 1
    34   19   53 1
    35   20   21 1
    36   20   54 1
    37   20   55 1
    38   21   22 1
    39   21   56 1
    40   21   57 1
    41   22   23 1
    42   23   28 ar
    43   23   24 ar
    44   24   25 ar
    45   24   58 1
    46   25   26 ar
    47   25   59 1
    48   26   27 ar
    49   26   37 1
    50   27   28 ar
    51   27   29 1
    52   28   60 1
    53   29   30 1
    54   29   61 1
    55   29   62 1
    56   30   31 am
    57   30   63 1
    58   31   32 2
    59   31   33 1
    60   33   34 1
    61   34   35 1
    62   34   36 1
    63   34   64 1
    64   35   65 1
    65   35   66 1
    66   35   67 1
    67   36   68 1
    68   36   69 1
    69   36   70 1
    70   37   38 1
    71   37   71 1
    72   37   72 1
    73   38   39 1
    74   38   73 1
    75   38   74 1
    76   39   40 2
    77   39   41 1
@<TRIPOS>MOLECULE
CHEMBL247925
   73    77     0     0     0
SMALL
USER_CHARGES

@<TRIPOS>ATOM
      1 C1         -1.2038    1.1825    0.6882 C.3       1 <0>        -0.0723
      2 C2         -0.9943   -0.2939    0.4707 C.2       1 <0>        -0.0319
      3 C3         -1.9532   -1.2121    0.2525 C.2       1 <0>        -0.0118
      4 N1         -1.3555   -2.4046    0.1095 N.2       1 <0>        -0.4617
      5 C4         -0.0594   -2.2419    0.2340 C.2       1 <0>         0.2378
      6 O1          0.1889   -0.9390    0.4529 O.3       1 <0>        -0.1916
      7 C5          0.9575   -3.3110    0.1425 C.ar      1 <0>        -0.0235
      8 C6          0.5687   -4.6291   -0.1014 C.ar      1 <0>        -0.0697
      9 C7          1.5228   -5.6220   -0.1861 C.ar      1 <0>        -0.1203
     10 C8          2.8624   -5.3135   -0.0298 C.ar      1 <0>        -0.0974
     11 C9          3.2544   -4.0090    0.2126 C.ar      1 <0>        -0.1205
     12 C10         2.3109   -3.0057    0.2939 C.ar      1 <0>        -0.0893
     13 C11        -3.4352   -0.9479    0.1818 C.3       1 <0>        -0.0337
     14 C12        -3.8288   -0.6336   -1.2629 C.3       1 <0>         0.0646
     15 O2         -5.2341   -0.3831   -1.3300 O.3       1 <0>        -0.3065
     16 C13        -5.7503   -0.0861   -2.5516 C.ar      1 <0>         0.1616
     17 C14        -4.9222   -0.0424   -3.6638 C.ar      1 <0>        -0.2081
     18 C15        -5.4494    0.2593   -4.9045 C.ar      1 <0>        -0.0499
     19 C16        -6.8010    0.5180   -5.0383 C.ar      1 <0>        -0.1863
     20 C17        -7.6284    0.4755   -3.9313 C.ar      1 <0>        -0.0525
     21 C18        -7.1071    0.1682   -2.6894 C.ar      1 <0>        -0.1479
     22 C19        -7.3734    0.8473   -6.3930 C.3       1 <0>         0.0402
     23 N2         -7.7944   -0.3914   -7.0610 N.4       1 <0>        -0.3565
     24 C20        -8.2410   -0.0841   -8.4263 C.3       1 <0>         0.0440
     25 C21        -7.0716    0.4112   -9.2377 C.ar      1 <0>        -0.1748
     26 C22        -6.8529    1.7696   -9.3750 C.ar      1 <0>        -0.0603
     27 C23        -5.7815    2.2263  -10.1179 C.ar      1 <0>        -0.1977
     28 C24        -4.9245    1.3205  -10.7266 C.ar      1 <0>         0.1475
     29 C25        -5.1464   -0.0421  -10.5872 C.ar      1 <0>        -0.1442
     30 C26        -6.2162   -0.4935   -9.8389 C.ar      1 <0>        -0.0487
     31 O3         -3.8702    1.7671  -11.4583 O.3       1 <0>        -0.2540
     32 C27        -3.7256    3.1091  -11.6155 C.ar      1 <0>         0.0755
     33 C28        -3.1585    3.8703  -10.6035 C.ar      1 <0>        -0.1306
     34 C29        -3.0127    5.2343  -10.7659 C.ar      1 <0>        -0.1058
     35 C30        -3.4317    5.8413  -11.9355 C.ar      1 <0>        -0.1137
     36 C31        -3.9975    5.0850  -12.9454 C.ar      1 <0>        -0.1038
     37 C32        -4.1396    3.7197  -12.7907 C.ar      1 <0>        -0.1195
     38 C33        -8.8997   -1.0015   -6.3099 C.3       1 <0>        -0.0894
     39 C34        -9.2232   -2.3503   -6.8992 C.2       1 <0>         0.4889
     40 O4         -8.5353   -2.8039   -7.7977 O.co2     1 <0>        -0.6737
     41 O5        -10.1729   -2.9879   -6.4772 O.co2     1 <0>        -0.6408
     42 H1         -0.2391    1.6689    0.8334 H         1 <0>         0.0824
     43 H2         -1.6994    1.6113   -0.1827 H         1 <0>         0.0895
     44 H3         -1.8242    1.3353    1.5712 H         1 <0>         0.0937
     45 H4         -0.4767   -4.8712   -0.2232 H         1 <0>         0.1385
     46 H5          1.2232   -6.6424   -0.3744 H         1 <0>         0.1340
     47 H6          3.6053   -6.0944   -0.0970 H         1 <0>         0.1303
     48 H7          4.3017   -3.7749    0.3344 H         1 <0>         0.1321
     49 H8          2.6186   -1.9870    0.4784 H         1 <0>         0.1302
     50 H9         -3.9781   -1.8295    0.5226 H         1 <0>         0.0975
     51 H10        -3.6838   -0.0993    0.8190 H         1 <0>         0.0947
     52 H11        -3.2860    0.2480   -1.6038 H         1 <0>         0.0659
     53 H12        -3.5802   -1.4822   -1.9001 H         1 <0>         0.0714
     54 H13        -3.8663   -0.2437   -3.5597 H         1 <0>         0.1351
     55 H14        -4.8052    0.2935   -5.7707 H         1 <0>         0.1311
     56 H15        -8.6837    0.6783   -4.0384 H         1 <0>         0.1389
     57 H16        -7.7545    0.1308   -1.8258 H         1 <0>         0.1422
     58 H17        -8.2335    1.5061   -6.2736 H         1 <0>         0.1266
     59 H18        -6.6149    1.3459   -6.9965 H         1 <0>         0.1269
     60 H19        -8.6475   -0.9844   -8.8869 H         1 <0>         0.1571
     61 H20        -9.0115    0.6861   -8.3918 H         1 <0>         0.1200
     62 H21        -7.5204    2.4742   -8.9013 H         1 <0>         0.1320
     63 H22        -5.6113    3.2874  -10.2251 H         1 <0>         0.1354
     64 H23        -4.4808   -0.7492  -11.0600 H         1 <0>         0.1417
     65 H24        -6.3867   -1.5540   -9.7265 H         1 <0>         0.1493
     66 H25        -2.8317    3.3969   -9.6894 H         1 <0>         0.1303
     67 H26        -2.5714    5.8273   -9.9784 H         1 <0>         0.1321
     68 H27        -3.3171    6.9079  -12.0603 H         1 <0>         0.1309
     69 H28        -4.3243    5.5616  -13.8578 H         1 <0>         0.1339
     70 H29        -4.5772    3.1288  -13.5818 H         1 <0>         0.1335
     71 H30        -8.6076   -1.1213   -5.2667 H         1 <0>         0.1262
     72 H31        -9.7780   -0.3587   -6.3698 H         1 <0>         0.1220
     73 H32        -7.0176   -1.0343   -7.0979 H         1 <0>         0.4229
@<TRIPOS>BOND
     1    1    2 1
     2    1   42 1
     3    1   43 1
     4    1   44 1
     5    2    6 1
     6    2    3 2
     7    3    4 1
     8    3   13 1
     9    4    5 2
    10    5    6 1
    11    5    7 1
    12    7   12 ar
    13    7    8 ar
    14    8    9 ar
    15    8   45 1
    16    9   10 ar
    17    9   46 1
    18   10   11 ar
    19   10   47 1
    20   11   12 ar
    21   11   48 1
    22   12   49 1
    23   13   14 1
    24   13   50 1
    25   13   51 1
    26   14   15 1
    27   14   52 1
    28   14   53 1
    29   15   16 1
    30   16   21 ar
    31   16   17 ar
    32   17   18 ar
    33   17   54 1
    34   18   19 ar
    35   18   55 1
    36   19   20 ar
    37   19   22 1
    38   20   21 ar
    39   20   56 1
    40   21   57 1
    41   22   23 1
    42   22   58 1
    43   22   59 1
    44   23   24 1
    45   23   38 1
    46   23   73 1
    47   24   25 1
    48   24   60 1
    49   24   61 1
    50   25   30 ar
    51   25   26 ar
    52   26   27 ar
    53   26   62 1
    54   27   28 ar
    55   27   63 1
    56   28   29 ar
    57   28   31 1
    58   29   30 ar
    59   29   64 1
    60   30   65 1
    61   31   32 1
    62   32   37 ar
    63   32   33 ar
    64   33   34 ar
    65   33   66 1
    66   34   35 ar
    67   34   67 1
    68   35   36 ar
    69   35   68 1
    70   36   37 ar
    71   36   69 1
    72   37   70 1
    73   38   39 1
    74   38   71 1
    75   38   72 1
    76   39   40 2
    77   39   41 1
@<TRIPOS>MOLECULE
CHEMBL206202
   56    57     0     0     0
SMALL
USER_CHARGES

@<TRIPOS>ATOM
      1 C1         -0.0187    1.5258    0.0104 C.3       1 <0>        -0.1592
      2 C2          0.0021   -0.0041    0.0020 C.3       1 <0>        -0.0843
      3 C3         -1.4333   -0.5336    0.0129 C.3       1 <0>        -0.1318
      4 C4         -2.1733   -0.0268   -1.2266 C.3       1 <0>        -0.1212
      5 C5         -1.4126   -2.0635    0.0045 C.3       1 <0>        -0.0521
      6 C6         -2.8264   -2.5851    0.0152 C.ar      1 <0>        -0.0842
      7 C7         -3.4644   -2.8251    1.2181 C.ar      1 <0>        -0.0006
      8 C8         -4.7602   -3.3037    1.2306 C.ar      1 <0>        -0.1541
      9 C9         -5.4216   -3.5431    0.0348 C.ar      1 <0>         0.1122
     10 C10        -4.7793   -3.3011   -1.1709 C.ar      1 <0>        -0.2231
     11 C11        -3.4853   -2.8176   -1.1780 C.ar      1 <0>        -0.0834
     12 O1         -6.6962   -4.0143    0.0445 O.3       1 <0>        -0.3175
     13 C12        -7.3149   -4.2377   -1.2241 C.3       1 <0>         0.0679
     14 C13        -8.7360   -4.7639   -1.0129 C.3       1 <0>        -0.1193
     15 C14        -9.3984   -5.0030   -2.3712 C.3       1 <0>         0.0618
     16 O2        -10.7257   -5.4945   -2.1739 O.3       1 <0>        -0.2965
     17 C15       -11.4573   -5.7602   -3.2882 C.ar      1 <0>         0.1573
     18 C16       -10.9071   -5.5577   -4.5452 C.ar      1 <0>        -0.1988
     19 C17       -11.6524   -5.8289   -5.6764 C.ar      1 <0>        -0.0493
     20 C18       -12.9464   -6.3016   -5.5568 C.ar      1 <0>        -0.1406
     21 C19       -13.4981   -6.5042   -4.3055 C.ar      1 <0>        -0.0496
     22 C20       -12.7544   -6.2403   -3.1702 C.ar      1 <0>        -0.0720
     23 Cl1       -13.4448   -6.5015   -1.5989 Cl        1 <0>        -0.0483
     24 C21       -13.7568   -6.5960   -6.7927 C.3       1 <0>        -0.1157
     25 C22       -13.5363   -8.0506   -7.2127 C.3       1 <0>         0.4530
     26 F1        -13.9390   -8.9011   -6.1775 F         1 <0>        -0.1804
     27 F2        -14.2886   -8.3239   -8.3601 F         1 <0>        -0.1844
     28 F3        -12.1795   -8.2569   -7.4846 F         1 <0>        -0.1809
     29 C23        -2.1387   -0.0476    1.2528 C.2       1 <0>         0.5023
     30 O3         -1.5481    0.6570    2.0535 O.co2     1 <0>        -0.6940
     31 O4         -3.3000   -0.3591    1.4551 O.co2     1 <0>        -0.6799
     32 H1          1.0039    1.9031    0.0027 H         1 <0>         0.0294
     33 H2         -0.5459    1.8868   -0.8726 H         1 <0>         0.0359
     34 H3         -0.5289    1.8773    0.9072 H         1 <0>         0.0954
     35 H4          0.5123   -0.3556   -0.8948 H         1 <0>         0.0329
     36 H5          0.5293   -0.3651    0.8851 H         1 <0>         0.0535
     37 H6         -1.6631   -0.3783   -2.1234 H         1 <0>         0.0329
     38 H7         -3.1959   -0.4041   -1.2189 H         1 <0>         0.0587
     39 H8         -2.1881    1.0631   -1.2207 H         1 <0>         0.0451
     40 H9         -0.9024   -2.4150   -0.8923 H         1 <0>         0.0543
     41 H10        -0.8854   -2.4246    0.8875 H         1 <0>         0.0595
     42 H11        -2.9491   -2.6385    2.1488 H         1 <0>         0.1215
     43 H12        -5.2579   -3.4916    2.1705 H         1 <0>         0.1194
     44 H13        -5.2921   -3.4867   -2.1031 H         1 <0>         0.1136
     45 H14        -2.9864   -2.6248   -2.1163 H         1 <0>         0.1125
     46 H15        -7.3533   -3.3006   -1.7797 H         1 <0>         0.0621
     47 H16        -6.7361   -4.9702   -1.7867 H         1 <0>         0.0608
     48 H17        -8.6976   -5.7009   -0.4574 H         1 <0>         0.0866
     49 H18        -9.3148   -4.0314   -0.4503 H         1 <0>         0.0877
     50 H19        -9.4368   -4.0660   -2.9267 H         1 <0>         0.0709
     51 H20        -8.8196   -5.7355   -2.9338 H         1 <0>         0.0702
     52 H21        -9.8968   -5.1879   -4.6397 H         1 <0>         0.1432
     53 H22       -11.2241   -5.6713   -6.6552 H         1 <0>         0.1364
     54 H23       -14.5091   -6.8728   -4.2147 H         1 <0>         0.1432
     55 H24       -14.8139   -6.4353   -6.5809 H         1 <0>         0.1200
     56 H25       -13.4431   -5.9334   -7.5993 H         1 <0>         0.1208
@<TRIPOS>BOND
     1    1    2 1
     2    1   32 1
     3    1   33 1
     4    1   34 1
     5    2    3 1
     6    2   35 1
     7    2   36 1
     8    3    4 1
     9    3    5 1
    10    3   29 1
    11    4   37 1
    12    4   38 1
    13    4   39 1
    14    5    6 1
    15    5   40 1
    16    5   41 1
    17    6   11 ar
    18    6    7 ar
    19    7    8 ar
    20    7   42 1
    21    8    9 ar
    22    8   43 1
    23    9   10 ar
    24    9   12 1
    25   10   11 ar
    26   10   44 1
    27   11   45 1
    28   12   13 1
    29   13   14 1
    30   13   46 1
    31   13   47 1
    32   14   15 1
    33   14   48 1
    34   14   49 1
    35   15   16 1
    36   15   50 1
    37   15   51 1
    38   16   17 1
    39   17   22 ar
    40   17   18 ar
    41   18   19 ar
    42   18   52 1
    43   19   20 ar
    44   19   53 1
    45   20   21 ar
    46   20   24 1
    47   21   22 ar
    48   21   54 1
    49   22   23 1
    50   24   25 1
    51   24   55 1
    52   24   56 1
    53   25   26 1
    54   25   27 1
    55   25   28 1
    56   29   30 2
    57   29   31 1
@<TRIPOS>MOLECULE
CHEMBL203940
   53    55     0     0     0
SMALL
USER_CHARGES

@<TRIPOS>ATOM
      1 C1         -1.0904   -0.5498   -0.6129 C.3       1 <0>        -0.1146
      2 C2          0.3819   -0.2389   -0.3359 C.3       1 <0>         0.0295
      3 C3          0.6535    1.2393   -0.6221 C.3       1 <0>        -0.1737
      4 C4          0.6952   -0.5369    1.1077 C.2       1 <0>         0.4804
      5 O1          1.5456   -1.3642    1.3887 O.co2     1 <0>        -0.6685
      6 O2          0.0985    0.0494    1.9947 O.co2     1 <0>        -0.6859
      7 O3          1.2061   -1.0466   -1.1788 O.3       1 <0>        -0.3038
      8 C5          2.5514   -0.8840   -1.0656 C.ar      1 <0>         0.1372
      9 C6          3.0693   -0.0518   -0.0844 C.ar      1 <0>        -0.1169
     10 C7          4.4359    0.1133    0.0305 C.ar      1 <0>        -0.1205
     11 C8          5.2902   -0.5535   -0.8351 C.ar      1 <0>         0.0738
     12 C9          4.7723   -1.3865   -1.8157 C.ar      1 <0>        -0.1818
     13 C10         3.4059   -1.5549   -1.9279 C.ar      1 <0>        -0.1356
     14 O4          6.6355   -0.3903   -0.7225 O.3       1 <0>        -0.3118
     15 C11         7.4556   -1.1075   -1.6472 C.3       1 <0>         0.0631
     16 C12         8.9281   -0.8002   -1.3676 C.3       1 <0>         0.0612
     17 O5          9.2832   -1.3034   -0.0781 O.3       1 <0>        -0.2889
     18 C13        10.5672   -1.1118    0.3273 C.ar      1 <0>         0.1193
     19 C14        11.4632   -0.4484   -0.4975 C.ar      1 <0>        -0.1624
     20 C15        12.7674   -0.2541   -0.0863 C.ar      1 <0>        -0.1479
     21 C16        13.1818   -0.7226    1.1521 C.ar      1 <0>         0.0903
     22 C17        12.2863   -1.3863    1.9777 C.ar      1 <0>        -0.0962
     23 C18        10.9794   -1.5753    1.5689 C.ar      1 <0>        -0.0350
     24 Cl1         9.8561   -2.3991    2.6048 Cl        1 <0>        -0.0346
     25 O6         14.4658   -0.5315    1.5563 O.3       1 <0>        -0.2523
     26 C19        15.2814    0.2102    0.7613 C.ar      1 <0>         0.0756
     27 C20        15.1740    1.5934    0.7544 C.ar      1 <0>        -0.1023
     28 C21        16.0035    2.3459   -0.0541 C.ar      1 <0>        -0.1387
     29 C22        16.9419    1.7205   -0.8575 C.ar      1 <0>         0.1007
     30 C23        17.0499    0.3401   -0.8521 C.ar      1 <0>        -0.1394
     31 C24        16.2259   -0.4148   -0.0399 C.ar      1 <0>        -0.0924
     32 F1         17.7525    2.4577   -1.6477 F         1 <0>        -0.1348
     33 H1         -1.3383   -0.2553   -1.6326 H         1 <0>         0.0501
     34 H2         -1.2652   -1.6188   -0.4907 H         1 <0>         0.0566
     35 H3         -1.7165    0.0031    0.0874 H         1 <0>         0.0780
     36 H4          0.1849    1.8508    0.1490 H         1 <0>         0.0751
     37 H5          1.7289    1.4175   -0.6235 H         1 <0>         0.0666
     38 H6          0.2403    1.5028   -1.5957 H         1 <0>         0.0508
     39 H7          2.4041    0.4675    0.5896 H         1 <0>         0.1456
     40 H8          4.8391    0.7620    0.7941 H         1 <0>         0.1233
     41 H9          5.4375   -1.9054   -2.4899 H         1 <0>         0.1218
     42 H10         3.0028   -2.2065   -2.6891 H         1 <0>         0.1228
     43 H11         7.2800   -2.1773   -1.5346 H         1 <0>         0.0721
     44 H12         7.2078   -0.8036   -2.6642 H         1 <0>         0.0817
     45 H13         9.5490   -1.2758   -2.1268 H         1 <0>         0.0828
     46 H14         9.0854    0.2781   -1.3928 H         1 <0>         0.0754
     47 H15        11.1411   -0.0838   -1.4618 H         1 <0>         0.1419
     48 H16        13.4649    0.2624   -0.7291 H         1 <0>         0.1351
     49 H17        12.6090   -1.7516    2.9415 H         1 <0>         0.1504
     50 H18        14.4419    2.0816    1.3807 H         1 <0>         0.1433
     51 H19        15.9199    3.4227   -0.0599 H         1 <0>         0.1445
     52 H20        17.7819   -0.1465   -1.4798 H         1 <0>         0.1449
     53 H21        16.3137   -1.4912   -0.0323 H         1 <0>         0.1443
@<TRIPOS>BOND
     1    1    2 1
     2    1   33 1
     3    1   34 1
     4    1   35 1
     5    2    3 1
     6    2    4 1
     7    2    7 1
     8    3   36 1
     9    3   37 1
    10    3   38 1
    11    4    5 2
    12    4    6 1
    13    7    8 1
    14    8   13 ar
    15    8    9 ar
    16    9   10 ar
    17    9   39 1
    18   10   11 ar
    19   10   40 1
    20   11   12 ar
    21   11   14 1
    22   12   13 ar
    23   12   41 1
    24   13   42 1
    25   14   15 1
    26   15   16 1
    27   15   43 1
    28   15   44 1
    29   16   17 1
    30   16   45 1
    31   16   46 1
    32   17   18 1
    33   18   23 ar
    34   18   19 ar
    35   19   20 ar
    36   19   47 1
    37   20   21 ar
    38   20   48 1
    39   21   22 ar
    40   21   25 1
    41   22   23 ar
    42   22   49 1
    43   23   24 1
    44   25   26 1
    45   26   31 ar
    46   26   27 ar
    47   27   28 ar
    48   27   50 1
    49   28   29 ar
    50   28   51 1
    51   29   30 ar
    52   29   32 1
    53   30   31 ar
    54   30   52 1
    55   31   53 1
@<TRIPOS>MOLECULE
CHEMBL124079
   65    67     0     0     0
SMALL
USER_CHARGES

@<TRIPOS>ATOM
      1 C1         -1.8262   -2.7658    0.6549 C.3       1 <0>        -0.1154
      2 C2         -0.4375   -2.1356    0.5308 C.3       1 <0>         0.0291
      3 C3         -0.5712   -0.7080   -0.0028 C.3       1 <0>        -0.1709
      4 C4          0.2235   -2.1060    1.8848 C.2       1 <0>         0.4819
      5 O1          1.2777   -2.6924    2.0615 O.co2     1 <0>        -0.6670
      6 O2         -0.2960   -1.4955    2.8035 O.co2     1 <0>        -0.6860
      7 O3          0.3576   -2.9086   -0.3705 O.3       1 <0>        -0.3056
      8 C5          1.6541   -2.5327   -0.5274 C.ar      1 <0>         0.1697
      9 C6          2.1514   -1.4435    0.1733 C.ar      1 <0>        -0.1481
     10 C7          3.4698   -1.0637    0.0125 C.ar      1 <0>        -0.0919
     11 C8          4.2935   -1.7678   -0.8463 C.ar      1 <0>        -0.1416
     12 C9          3.8001   -2.8534   -1.5462 C.ar      1 <0>        -0.0869
     13 C10         2.4841   -3.2410   -1.3842 C.ar      1 <0>        -0.1703
     14 C11         5.7312   -1.3510   -1.0202 C.3       1 <0>        -0.0829
     15 C12         6.6016   -2.0820    0.0040 C.3       1 <0>         0.1340
     16 N1          7.9993   -1.6768   -0.1651 N.am      1 <0>        -0.6116
     17 C13         8.5231   -0.5264    0.5755 C.3       1 <0>         0.1440
     18 C14         7.7287    0.7032    0.2274 C.3       1 <0>        -0.1398
     19 C15         8.5895    1.9809    0.2278 C.3       1 <0>        -0.1146
     20 C16         9.5779    2.0350    1.4084 C.3       1 <0>        -0.1215
     21 C17         8.9606    1.5664    2.6981 C.3       1 <0>        -0.1216
     22 C18         9.2754    0.0669    2.8756 C.3       1 <0>        -0.1158
     23 C19         8.3915   -0.7822    2.0908 C.3       1 <0>        -0.1328
     24 C20         8.8031   -2.3623   -1.0019 C.2       1 <0>         0.7083
     25 O4          8.3476   -3.2612   -1.6823 O.2       1 <0>        -0.5615
     26 N2         10.1119   -2.0515   -1.0846 N.am      1 <0>        -0.6798
     27 C21        10.9286   -2.7003   -2.0214 C.ar      1 <0>         0.1393
     28 C22        10.3575   -3.3961   -3.0775 C.ar      1 <0>        -0.0936
     29 C23        11.1637   -4.0345   -4.0000 C.ar      1 <0>        -0.1340
     30 C24        12.5415   -3.9814   -3.8721 C.ar      1 <0>         0.0982
     31 C25        13.1150   -3.2886   -2.8195 C.ar      1 <0>        -0.1658
     32 C26        12.3121   -2.6427   -1.8970 C.ar      1 <0>         0.0832
     33 F1         12.8714   -1.9615   -0.8731 F         1 <0>        -0.1327
     34 F2         13.3273   -4.6071   -4.7756 F         1 <0>        -0.1346
     35 H1         -2.3382   -2.7088   -0.3057 H         1 <0>         0.0503
     36 H2         -1.7262   -3.8098    0.9519 H         1 <0>         0.0565
     37 H3         -2.4034   -2.2279    1.4068 H         1 <0>         0.0777
     38 H4         -1.0533   -0.0828    0.7487 H         1 <0>         0.0737
     39 H5          0.4184   -0.3095   -0.2264 H         1 <0>         0.0660
     40 H6         -1.1739   -0.7145   -0.9110 H         1 <0>         0.0506
     41 H7          1.5082   -0.8928    0.8437 H         1 <0>         0.1356
     42 H8          3.8574   -0.2159    0.5578 H         1 <0>         0.1097
     43 H9          4.4454   -3.4016   -2.2167 H         1 <0>         0.1171
     44 H10         2.1004   -4.0918   -1.9277 H         1 <0>         0.1180
     45 H11         6.0638   -1.6047   -2.0268 H         1 <0>         0.0691
     46 H12         5.8184   -0.2751   -0.8692 H         1 <0>         0.0707
     47 H13         6.2690   -1.8283    1.0105 H         1 <0>         0.0844
     48 H14         6.5144   -3.1580   -0.1471 H         1 <0>         0.0882
     49 H15         9.5715   -0.3730    0.3198 H         1 <0>         0.0813
     50 H16         7.2921    0.5724   -0.7628 H         1 <0>         0.0792
     51 H17         6.9237    0.8200    0.9530 H         1 <0>         0.0748
     52 H18         9.1526    2.0257   -0.7044 H         1 <0>         0.0584
     53 H19         7.9313    2.8482    0.2804 H         1 <0>         0.0656
     54 H20        10.4365    1.4040    1.1787 H         1 <0>         0.0578
     55 H21         9.9210    3.0619    1.5343 H         1 <0>         0.0603
     56 H22         9.3808    2.1299    3.5312 H         1 <0>         0.0634
     57 H23         7.8810    1.7120    2.6615 H         1 <0>         0.0704
     58 H24        10.3051   -0.1163    2.5686 H         1 <0>         0.0589
     59 H25         9.1715   -0.1933    3.9289 H         1 <0>         0.0660
     60 H26         7.3612   -0.5935    2.3925 H         1 <0>         0.0749
     61 H27         8.6315   -1.8257    2.2949 H         1 <0>         0.0679
     62 H28        10.4888   -1.3789   -0.4960 H         1 <0>         0.4101
     63 H29         9.2830   -3.4388   -3.1780 H         1 <0>         0.1860
     64 H30        10.7188   -4.5759   -4.8218 H         1 <0>         0.1460
     65 H31        14.1898   -3.2487   -2.7213 H         1 <0>         0.1501
@<TRIPOS>BOND
     1    1    2 1
     2    1   35 1
     3    1   36 1
     4    1   37 1
     5    2    3 1
     6    2    4 1
     7    2    7 1
     8    3   38 1
     9    3   39 1
    10    3   40 1
    11    4    5 2
    12    4    6 1
    13    7    8 1
    14    8   13 ar
    15    8    9 ar
    16    9   10 ar
    17    9   41 1
    18   10   11 ar
    19   10   42 1
    20   11   12 ar
    21   11   14 1
    22   12   13 ar
    23   12   43 1
    24   13   44 1
    25   14   15 1
    26   14   45 1
    27   14   46 1
    28   15   16 1
    29   15   47 1
    30   15   48 1
    31   16   17 1
    32   16   24 am
    33   17   23 1
    34   17   18 1
    35   17   49 1
    36   18   19 1
    37   18   50 1
    38   18   51 1
    39   19   20 1
    40   19   52 1
    41   19   53 1
    42   20   21 1
    43   20   54 1
    44   20   55 1
    45   21   22 1
    46   21   56 1
    47   21   57 1
    48   22   23 1
    49   22   58 1
    50   22   59 1
    51   23   60 1
    52   23   61 1
    53   24   25 2
    54   24   26 am
    55   26   27 1
    56   26   62 1
    57   27   32 ar
    58   27   28 ar
    59   28   29 ar
    60   28   63 1
    61   29   30 ar
    62   29   64 1
    63   30   31 ar
    64   30   34 1
    65   31   32 ar
    66   31   65 1
    67   32   33 1
@<TRIPOS>MOLECULE
CHEMBL125230
   77    79     0     0     0
SMALL
USER_CHARGES

@<TRIPOS>ATOM
      1 C1         -1.2199    0.2381   -0.5261 C.3       1 <0>        -0.1139
      2 C2          0.2845    0.4498   -0.3442 C.3       1 <0>         0.0296
      3 C3          0.6150    1.9339   -0.5149 C.3       1 <0>        -0.1740
      4 C4          0.6920   -0.0002    1.0351 C.2       1 <0>         0.4824
      5 O1          1.5141   -0.8906    1.1677 O.co2     1 <0>        -0.6699
      6 O2          0.1995    0.5262    2.0184 O.co2     1 <0>        -0.6851
      7 O3          0.9944   -0.3119   -1.3229 O.3       1 <0>        -0.3030
      8 C5          2.3502   -0.2187   -1.3129 C.ar      1 <0>         0.1701
      9 C6          2.9908    0.4847   -0.3031 C.ar      1 <0>        -0.1532
     10 C7          4.3691    0.5776   -0.2949 C.ar      1 <0>        -0.0879
     11 C8          5.1100   -0.0293   -1.2921 C.ar      1 <0>        -0.1456
     12 C9          4.4739   -0.7305   -2.2998 C.ar      1 <0>        -0.0906
     13 C10         3.0962   -0.8315   -2.3091 C.ar      1 <0>        -0.1695
     14 C11         6.6134    0.0741   -1.2810 C.3       1 <0>        -0.0830
     15 C12         7.1992   -1.0953   -0.4870 C.3       1 <0>         0.1075
     16 N1          8.6607   -0.9948   -0.4762 N.am      1 <0>        -0.6191
     17 C13         9.3359   -0.2518    0.5906 C.3       1 <0>         0.1310
     18 C14         9.6479   -1.1975    1.7522 C.3       1 <0>        -0.1352
     19 C15        10.3531   -0.4214    2.8664 C.3       1 <0>        -0.1158
     20 C16        10.6652   -1.3672    4.0279 C.3       1 <0>        -0.1194
     21 C17        11.3704   -0.5911    5.1421 C.3       1 <0>        -0.1149
     22 C18        11.6824   -1.5369    6.3036 C.3       1 <0>        -0.0868
     23 C19        10.3742   -2.0340    6.9220 C.3       1 <0>        -0.1167
     24 C20        10.6862   -2.9797    8.0836 C.3       1 <0>        -0.1209
     25 C21        11.5005   -2.2347    9.1432 C.3       1 <0>        -0.1202
     26 C22        12.8087   -1.7376    8.5248 C.3       1 <0>        -0.1197
     27 C23        12.4967   -0.7918    7.3632 C.3       1 <0>        -0.1149
     28 C24         9.3840   -1.5859   -1.4477 C.2       1 <0>         0.7074
     29 O4         10.5970   -1.5025   -1.4387 O.2       1 <0>        -0.5747
     30 N2          8.7628   -2.2695   -2.4292 N.am      1 <0>        -0.6860
     31 C25         9.5161   -2.9697   -3.3800 C.ar      1 <0>         0.1633
     32 C26         9.0469   -3.0992   -4.6803 C.ar      1 <0>        -0.1220
     33 C27         9.7915   -3.7896   -5.6165 C.ar      1 <0>        -0.1308
     34 C28        11.0052   -4.3524   -5.2591 C.ar      1 <0>         0.0736
     35 C29        11.4747   -4.2246   -3.9627 C.ar      1 <0>        -0.1323
     36 C30        10.7358   -3.5301   -3.0250 C.ar      1 <0>        -0.0947
     37 F1         11.7320   -5.0273   -6.1764 F         1 <0>        -0.1431
     38 H1         -1.4978    0.4704   -1.5541 H         1 <0>         0.0514
     39 H2         -1.4697   -0.8002   -0.3078 H         1 <0>         0.0563
     40 H3         -1.7638    0.8934    0.1542 H         1 <0>         0.0767
     41 H4          0.1777    2.5004    0.3073 H         1 <0>         0.0747
     42 H5          1.6967    2.0677   -0.5135 H         1 <0>         0.0677
     43 H6          0.2059    2.2909   -1.4601 H         1 <0>         0.0507
     44 H7          2.4124    0.9595    0.4756 H         1 <0>         0.1401
     45 H8          4.8683    1.1251    0.4909 H         1 <0>         0.1132
     46 H9          5.0549   -1.2033   -3.0778 H         1 <0>         0.1145
     47 H10         2.6000   -1.3831   -3.0940 H         1 <0>         0.1199
     48 H11         6.9874    0.0421   -2.3043 H         1 <0>         0.0658
     49 H12         6.9096    1.0140   -0.8152 H         1 <0>         0.0727
     50 H13         6.8252   -1.0633    0.5363 H         1 <0>         0.0917
     51 H14         6.9031   -2.0352   -0.9528 H         1 <0>         0.0756
     52 H15        10.2644    0.1714    0.2072 H         1 <0>         0.0845
     53 H16         8.6876    0.5517    0.9403 H         1 <0>         0.0798
     54 H17         8.7195   -1.6206    2.1356 H         1 <0>         0.0645
     55 H18        10.2963   -2.0009    1.4025 H         1 <0>         0.0654
     56 H19        11.2816    0.0017    2.4829 H         1 <0>         0.0623
     57 H20         9.7048    0.3820    3.2161 H         1 <0>         0.0632
     58 H21         9.7367   -1.7903    4.4113 H         1 <0>         0.0646
     59 H22        11.3135   -2.1706    3.6782 H         1 <0>         0.0594
     60 H23        12.2988   -0.1680    4.7586 H         1 <0>         0.0603
     61 H24        10.7220    0.2123    5.4918 H         1 <0>         0.0617
     62 H25        12.2565   -2.3872    5.9356 H         1 <0>         0.0676
     63 H26         9.8001   -1.1837    7.2900 H         1 <0>         0.0614
     64 H27         9.7941   -2.5648    6.1671 H         1 <0>         0.0649
     65 H28         9.7543   -3.3339    8.5241 H         1 <0>         0.0604
     66 H29        11.2604   -3.8300    7.7156 H         1 <0>         0.0595
     67 H30        10.9264   -1.3844    9.5112 H         1 <0>         0.0606
     68 H31        11.7228   -2.9084    9.9707 H         1 <0>         0.0581
     69 H32        13.3888   -1.2068    9.2797 H         1 <0>         0.0586
     70 H33        13.3828   -2.5879    8.1568 H         1 <0>         0.0597
     71 H34        13.4286   -0.4377    6.9227 H         1 <0>         0.0594
     72 H35        11.9225    0.0585    7.7312 H         1 <0>         0.0610
     73 H36         7.7940   -2.2766   -2.4770 H         1 <0>         0.4111
     74 H37         8.1002   -2.6608   -4.9593 H         1 <0>         0.1365
     75 H38         9.4267   -3.8909   -6.6280 H         1 <0>         0.1383
     76 H39        12.4212   -4.6649   -3.6858 H         1 <0>         0.1366
     77 H40        11.1044   -3.4269   -2.0151 H         1 <0>         0.1476
@<TRIPOS>BOND
     1    1    2 1
     2    1   38 1
     3    1   39 1
     4    1   40 1
     5    2    3 1
     6    2    4 1
     7    2    7 1
     8    3   41 1
     9    3   42 1
    10    3   43 1
    11    4    5 2
    12    4    6 1
    13    7    8 1
    14    8   13 ar
    15    8    9 ar
    16    9   10 ar
    17    9   44 1
    18   10   11 ar
    19   10   45 1
    20   11   12 ar
    21   11   14 1
    22   12   13 ar
    23   12   46 1
    24   13   47 1
    25   14   15 1
    26   14   48 1
    27   14   49 1
    28   15   16 1
    29   15   50 1
    30   15   51 1
    31   16   17 1
    32   16   28 am
    33   17   18 1
    34   17   52 1
    35   17   53 1
    36   18   19 1
    37   18   54 1
    38   18   55 1
    39   19   20 1
    40   19   56 1
    41   19   57 1
    42   20   21 1
    43   20   58 1
    44   20   59 1
    45   21   22 1
    46   21   60 1
    47   21   61 1
    48   22   27 1
    49   22   23 1
    50   22   62 1
    51   23   24 1
    52   23   63 1
    53   23   64 1
    54   24   25 1
    55   24   65 1
    56   24   66 1
    57   25   26 1
    58   25   67 1
    59   25   68 1
    60   26   27 1
    61   26   69 1
    62   26   70 1
    63   27   71 1
    64   27   72 1
    65   28   29 2
    66   28   30 am
    67   30   31 1
    68   30   73 1
    69   31   36 ar
    70   31   32 ar
    71   32   33 ar
    72   32   74 1
    73   33   34 ar
    74   33   75 1
    75   34   35 ar
    76   34   37 1
    77   35   36 ar
    78   35   76 1
    79   36   77 1
@<TRIPOS>MOLECULE
CHEMBL522366
   72    76     0     0     0
SMALL
USER_CHARGES

@<TRIPOS>ATOM
      1 C1         -1.5438    0.1613    0.4738 C.3       1 <0>        -0.1535
      2 C2         -1.4013   -1.3513    0.6548 C.3       1 <0>        -0.1146
      3 C3         -2.7716   -2.0145    0.5025 C.3       1 <0>        -0.0740
      4 C4         -2.6313   -3.5043    0.6808 C.ar      1 <0>        -0.1194
      5 C5         -2.3673   -4.3259   -0.4256 C.ar      1 <0>         0.0119
      6 C6         -2.2283   -3.7801   -1.7161 C.ar      1 <0>        -0.1145
      7 C7         -1.9728   -4.5917   -2.7727 C.ar      1 <0>        -0.0660
      8 C8         -1.8436   -5.9823   -2.5990 C.ar      1 <0>        -0.1623
      9 C9         -1.9755   -6.5495   -1.3409 C.ar      1 <0>        -0.0549
     10 C10        -2.2387   -5.7261   -0.2371 C.ar      1 <0>        -0.0924
     11 C11        -2.3771   -6.2682    1.0543 C.ar      1 <0>        -0.0647
     12 C12        -2.6321   -5.4493    2.1087 C.ar      1 <0>        -0.1853
     13 C13        -2.7557   -4.0671    1.9312 C.ar      1 <0>         0.1482
     14 O1         -3.0052   -3.2720    3.0037 O.3       1 <0>        -0.3015
     15 C14        -3.1237   -3.9150    4.2743 C.3       1 <0>         0.0626
     16 C15        -3.4025   -2.8660    5.3527 C.3       1 <0>        -0.1410
     17 C16        -3.5294   -3.5544    6.7132 C.3       1 <0>         0.1225
     18 N1         -3.7963   -2.5500    7.7457 N.pl3     1 <0>        -0.4869
     19 C17        -2.8448   -1.9544    8.5277 C.2       1 <0>         0.0400
     20 C18        -3.4235   -1.0837    9.3697 C.2       1 <0>        -0.2055
     21 C19        -4.8639   -1.1245    9.1058 C.ar      1 <0>        -0.0790
     22 C20        -5.0436   -2.0594    8.0704 C.ar      1 <0>         0.0606
     23 C21        -6.3241   -2.3142    7.5917 C.ar      1 <0>        -0.1138
     24 C22        -7.4046   -1.6503    8.1287 C.ar      1 <0>        -0.1184
     25 C23        -7.2297   -0.7216    9.1512 C.ar      1 <0>         0.1504
     26 C24        -5.9673   -0.4609    9.6461 C.ar      1 <0>        -0.1406
     27 O2         -8.3075   -0.0746    9.6700 O.3       1 <0>        -0.3037
     28 C25        -9.5963   -0.4970    9.2199 C.3       1 <0>         0.0303
     29 C26        -9.7893   -1.9797    9.5446 C.3       1 <0>        -0.1714
     30 C27       -10.6773    0.3244    9.9253 C.3       1 <0>        -0.1136
     31 C28        -9.7007   -0.2912    7.7307 C.2       1 <0>         0.4811
     32 O3         -8.7587    0.1741    7.1121 O.co2     1 <0>        -0.6683
     33 O4        -10.7271   -0.5900    7.1445 O.co2     1 <0>        -0.6871
     34 C29        -1.5659   -6.8437   -3.7656 C.2       1 <0>         0.4658
     35 O5         -1.9437   -6.5091   -4.8724 O.2       1 <0>        -0.4475
     36 C30        -0.8313   -8.1082   -3.5892 C.2       1 <0>        -0.2599
     37 C31        -0.5810   -9.1404   -4.6062 C.2       1 <0>        -0.1703
     38 C32         0.1226  -10.1022   -3.9902 C.2       1 <0>        -0.0391
     39 O6          0.3195   -9.7524   -2.7092 O.3       1 <0>        -0.1728
     40 C33        -0.2350   -8.5648   -2.4482 C.2       1 <0>         0.0302
     41 H1         -0.5675    0.6338    0.5824 H         1 <0>         0.0534
     42 H2         -1.9414    0.3726   -0.5188 H         1 <0>         0.0534
     43 H3         -2.2240    0.5551    1.2290 H         1 <0>         0.0575
     44 H4         -0.7211   -1.7451   -0.1004 H         1 <0>         0.0590
     45 H5         -1.0037   -1.5625    1.6475 H         1 <0>         0.0629
     46 H6         -3.4518   -1.6207    1.2577 H         1 <0>         0.0816
     47 H7         -3.1692   -1.8032   -0.4902 H         1 <0>         0.0728
     48 H8         -2.3255   -2.7149   -1.8649 H         1 <0>         0.1373
     49 H9         -1.8675   -4.1654   -3.7594 H         1 <0>         0.1323
     50 H10        -1.8760   -7.6172   -1.2121 H         1 <0>         0.1359
     51 H11        -2.2811   -7.3330    1.2072 H         1 <0>         0.1341
     52 H12        -2.7377   -5.8710    3.0973 H         1 <0>         0.1344
     53 H13        -3.9445   -4.6316    4.2438 H         1 <0>         0.0669
     54 H14        -2.1948   -4.4361    4.5059 H         1 <0>         0.0650
     55 H15        -2.5818   -2.1494    5.3833 H         1 <0>         0.0812
     56 H16        -4.3314   -2.3449    5.1211 H         1 <0>         0.0867
     57 H17        -4.3501   -4.2710    6.6826 H         1 <0>         0.0849
     58 H18        -2.6005   -4.0755    6.9447 H         1 <0>         0.0868
     59 H19        -1.7849   -2.1551    8.4754 H         1 <0>         0.1593
     60 H20        -2.9221   -0.4693   10.1029 H         1 <0>         0.1398
     61 H21        -6.4712   -3.0323    6.7986 H         1 <0>         0.1098
     62 H22        -8.3969   -1.8517    7.7530 H         1 <0>         0.1450
     63 H23        -5.8328    0.2607   10.4384 H         1 <0>         0.1203
     64 H24        -9.6623   -2.1365   10.6158 H         1 <0>         0.0512
     65 H25       -10.7916   -2.2890    9.2484 H         1 <0>         0.0715
     66 H26        -9.0514   -2.5697    9.0010 H         1 <0>         0.0664
     67 H27       -10.5934    1.3690    9.6256 H         1 <0>         0.0560
     68 H28       -11.6608   -0.0552    9.6483 H         1 <0>         0.0754
     69 H29       -10.5479    0.2446   11.0047 H         1 <0>         0.0510
     70 H30        -0.8987   -9.1269   -5.6383 H         1 <0>         0.1598
     71 H31         0.4745  -11.0132   -4.4514 H         1 <0>         0.2097
     72 H32        -0.2167   -8.0541   -1.4968 H         1 <0>         0.2173
@<TRIPOS>BOND
     1    1    2 1
     2    1   41 1
     3    1   42 1
     4    1   43 1
     5    2    3 1
     6    2   44 1
     7    2   45 1
     8    3    4 1
     9    3   46 1
    10    3   47 1
    11    4   13 ar
    12    4    5 ar
    13    5   10 ar
    14    5    6 ar
    15    6    7 ar
    16    6   48 1
    17    7    8 ar
    18    7   49 1
    19    8    9 ar
    20    8   34 1
    21    9   10 ar
    22    9   50 1
    23   10   11 ar
    24   11   12 ar
    25   11   51 1
    26   12   13 ar
    27   12   52 1
    28   13   14 1
    29   14   15 1
    30   15   16 1
    31   15   53 1
    32   15   54 1
    33   16   17 1
    34   16   55 1
    35   16   56 1
    36   17   18 1
    37   17   57 1
    38   17   58 1
    39   18   22 1
    40   18   19 1
    41   19   20 2
    42   19   59 1
    43   20   21 1
    44   20   60 1
    45   21   26 ar
    46   21   22 ar
    47   22   23 ar
    48   23   24 ar
    49   23   61 1
    50   24   25 ar
    51   24   62 1
    52   25   26 ar
    53   25   27 1
    54   26   63 1
    55   27   28 1
    56   28   29 1
    57   28   30 1
    58   28   31 1
    59   29   64 1
    60   29   65 1
    61   29   66 1
    62   30   67 1
    63   30   68 1
    64   30   69 1
    65   31   32 2
    66   31   33 1
    67   34   35 2
    68   34   36 1
    69   36   40 2
    70   36   37 1
    71   37   38 2
    72   37   70 1
    73   38   39 1
    74   38   71 1
    75   39   40 1
    76   40   72 1
@<TRIPOS>MOLECULE
CHEMBL198579
   64    68     0     0     0
SMALL
USER_CHARGES

@<TRIPOS>ATOM
      1 C1         -0.0187    1.5258    0.0104 C.3       1 <0>        -0.1515
      2 C2          0.0021   -0.0041    0.0020 C.3       1 <0>        -0.1154
      3 C3         -1.4333   -0.5336    0.0129 C.3       1 <0>        -0.0686
      4 C4         -1.4129   -2.0405    0.0046 C.ar      1 <0>        -0.1089
      5 C5         -1.4091   -2.7263   -1.1967 C.ar      1 <0>         0.1619
      6 C6         -1.3903   -4.1176   -1.2167 C.ar      1 <0>        -0.2108
      7 C7         -1.3747   -4.8269   -0.0360 C.ar      1 <0>        -0.0335
      8 C8         -1.3779   -4.1456    1.1780 C.ar      1 <0>        -0.1492
      9 C9         -1.3920   -2.7421    1.2030 C.ar      1 <0>         0.0959
     10 O1         -1.3853   -2.3590    2.4962 O.3       1 <0>        -0.1846
     11 C10        -1.3629   -3.4228    3.3169 C.2       1 <0>         0.0149
     12 C11        -1.3646   -4.5646    2.5920 C.2       1 <0>        -0.1341
     13 C12        -1.3429   -5.9529    3.1121 C.ar      1 <0>        -0.0143
     14 C13        -2.2527   -6.8940    2.6326 C.ar      1 <0>        -0.1049
     15 C14        -2.2279   -8.1847    3.1204 C.ar      1 <0>        -0.1171
     16 C15        -1.3025   -8.5453    4.0833 C.ar      1 <0>        -0.1201
     17 C16        -0.3976   -7.6156    4.5632 C.ar      1 <0>        -0.1176
     18 C17        -0.4089   -6.3236    4.0783 C.ar      1 <0>        -0.1101
     19 O2         -1.4244   -2.0356   -2.3672 O.3       1 <0>        -0.3010
     20 C18        -1.4196   -2.8023   -3.5731 C.3       1 <0>         0.0639
     21 C19        -1.4386   -1.8589   -4.7774 C.3       1 <0>        -0.1189
     22 C20        -1.4334   -2.6798   -6.0685 C.3       1 <0>         0.0658
     23 O3         -1.4511   -1.7986   -7.1934 O.3       1 <0>        -0.3089
     24 C21        -1.4491   -2.3712   -8.4256 C.ar      1 <0>         0.1706
     25 C22        -1.4363   -3.7469   -8.5533 C.ar      1 <0>        -0.2536
     26 C23        -1.4348   -4.3336   -9.8106 C.ar      1 <0>        -0.0748
     27 C24        -1.4454   -3.5580  -10.9491 C.ar      1 <0>        -0.1488
     28 C25        -1.4583   -2.1701  -10.8462 C.ar      1 <0>         0.1494
     29 C26        -1.4658   -1.5711   -9.5746 C.ar      1 <0>        -0.1356
     30 C27        -1.4866   -0.1249   -9.8070 C.2       1 <0>        -0.2058
     31 C28        -1.4959    0.0586  -11.1364 C.2       1 <0>         0.0596
     32 N1         -1.4707   -1.1530  -11.7742 N.pl3     1 <0>        -0.4401
     33 C29        -1.4726   -1.3394  -13.2273 C.3       1 <0>         0.0322
     34 C30        -2.8874   -1.5399  -13.7062 C.2       1 <0>         0.4805
     35 O4         -3.8086   -1.5283  -12.9077 O.co2     1 <0>        -0.6710
     36 O5         -3.1107   -1.7139  -14.8921 O.co2     1 <0>        -0.6927
     37 H1          1.0039    1.9031    0.0027 H         1 <0>         0.0537
     38 H2         -0.5459    1.8868   -0.8726 H         1 <0>         0.0567
     39 H3         -0.5289    1.8773    0.9072 H         1 <0>         0.0525
     40 H4          0.5123   -0.3556   -0.8948 H         1 <0>         0.0645
     41 H5          0.5293   -0.3651    0.8851 H         1 <0>         0.0575
     42 H6         -1.9435   -0.1821    0.9097 H         1 <0>         0.0701
     43 H7         -1.9605   -0.1726   -0.8702 H         1 <0>         0.0815
     44 H8         -1.3883   -4.6426   -2.1604 H         1 <0>         0.1381
     45 H9         -1.3604   -5.9067   -0.0521 H         1 <0>         0.1302
     46 H10        -1.3532   -3.3734    4.3957 H         1 <0>         0.2095
     47 H11        -2.9758   -6.6135    1.8810 H         1 <0>         0.1233
     48 H12        -2.9324   -8.9145    2.7499 H         1 <0>         0.1245
     49 H13        -1.2868   -9.5565    4.4622 H         1 <0>         0.1224
     50 H14         0.3224   -7.9027    5.3153 H         1 <0>         0.1242
     51 H15         0.3012   -5.5998    4.4502 H         1 <0>         0.1233
     52 H16        -0.5211   -3.4184   -3.6083 H         1 <0>         0.0683
     53 H17        -2.3009   -3.4432   -3.5997 H         1 <0>         0.0687
     54 H18        -2.3371   -1.2428   -4.7422 H         1 <0>         0.0871
     55 H19        -0.5573   -1.2180   -4.7508 H         1 <0>         0.0864
     56 H20        -0.5349   -3.2959   -6.1037 H         1 <0>         0.0627
     57 H21        -2.3147   -3.3207   -6.0951 H         1 <0>         0.0635
     58 H22        -1.4272   -4.3685   -7.6701 H         1 <0>         0.1189
     59 H23        -1.4247   -5.4100   -9.8977 H         1 <0>         0.1204
     60 H24        -1.4433   -4.0272  -11.9218 H         1 <0>         0.1157
     61 H25        -1.4938    0.6471   -9.0518 H         1 <0>         0.1412
     62 H26        -1.5114    1.0191  -11.6299 H         1 <0>         0.1606
     63 H27        -1.0481   -0.4576  -13.7073 H         1 <0>         0.0882
     64 H28        -0.8752   -2.2148  -13.4821 H         1 <0>         0.0838
@<TRIPOS>BOND
     1    1    2 1
     2    1   37 1
     3    1   38 1
     4    1   39 1
     5    2    3 1
     6    2   40 1
     7    2   41 1
     8    3    4 1
     9    3   42 1
    10    3   43 1
    11    4    9 ar
    12    4    5 ar
    13    5    6 ar
    14    5   19 1
    15    6    7 ar
    16    6   44 1
    17    7    8 ar
    18    7   45 1
    19    8   12 1
    20    8    9 ar
    21    9   10 1
    22   10   11 1
    23   11   12 2
    24   11   46 1
    25   12   13 1
    26   13   18 ar
    27   13   14 ar
    28   14   15 ar
    29   14   47 1
    30   15   16 ar
    31   15   48 1
    32   16   17 ar
    33   16   49 1
    34   17   18 ar
    35   17   50 1
    36   18   51 1
    37   19   20 1
    38   20   21 1
    39   20   52 1
    40   20   53 1
    41   21   22 1
    42   21   54 1
    43   21   55 1
    44   22   23 1
    45   22   56 1
    46   22   57 1
    47   23   24 1
    48   24   29 ar
    49   24   25 ar
    50   25   26 ar
    51   25   58 1
    52   26   27 ar
    53   26   59 1
    54   27   28 ar
    55   27   60 1
    56   28   32 1
    57   28   29 ar
    58   29   30 1
    59   30   31 2
    60   30   61 1
    61   31   32 1
    62   31   62 1
    63   32   33 1
    64   33   34 1
    65   33   63 1
    66   33   64 1
    67   34   35 2
    68   34   36 1
@<TRIPOS>MOLECULE
CHEMBL472246
   41    43     0     0     0
SMALL
USER_CHARGES

@<TRIPOS>ATOM
      1 C1          0.7252    1.9922   -1.3592 C.ar      1 <0>        -0.1276
      2 C2          1.9574    2.5988   -1.1949 C.ar      1 <0>        -0.1177
      3 C3          3.0870    1.8305   -0.9983 C.ar      1 <0>        -0.1151
      4 C4          2.9844    0.4413   -0.9655 C.ar      1 <0>        -0.0317
      5 C5          1.7407   -0.1645   -1.1315 C.ar      1 <0>        -0.1156
      6 C6          0.6176    0.6135   -1.3275 C.ar      1 <0>        -0.1178
      7 C7          4.1954   -0.3900   -0.7549 C.ar      1 <0>        -0.0655
      8 C8          5.4384    0.2160   -0.5836 C.ar      1 <0>        -0.1075
      9 C9          6.5614   -0.5621   -0.3876 C.ar      1 <0>        -0.1014
     10 C10         6.4547   -1.9409   -0.3616 C.ar      1 <0>        -0.0637
     11 C11         5.2234   -2.5477   -0.5316 C.ar      1 <0>        -0.1171
     12 C12         4.0929   -1.7792   -0.7221 C.ar      1 <0>        -0.1079
     13 C13         7.6846   -2.7852   -0.1478 C.3       1 <0>        -0.0644
     14 C14         7.8830   -3.0271    1.3499 C.3       1 <0>         0.0221
     15 H1          6.9773   -3.4641    1.7704 H         1 <0>         0.0678
     16 C15         9.0393   -3.9710    1.5574 C.2       1 <0>         0.4804
     17 O1         10.0476   -3.5845    2.1236 O.co2     1 <0>        -0.6692
     18 O2          8.9666   -5.1210    1.1590 O.co2     1 <0>        -0.6878
     19 O3          8.1591   -1.7852    2.0006 O.3       1 <0>        -0.2867
     20 C16         7.8633   -1.7031    3.3246 C.ar      1 <0>         0.1759
     21 C17         7.9951   -0.4942    3.9921 C.ar      1 <0>        -0.1553
     22 C18         7.6940   -0.4128    5.3378 C.ar      1 <0>        -0.0729
     23 C19         7.2616   -1.5362    6.0201 C.ar      1 <0>        -0.0891
     24 C20         7.1299   -2.7430    5.3563 C.ar      1 <0>        -0.0673
     25 C21         7.4238   -2.8269    4.0090 C.ar      1 <0>        -0.1909
     26 Cl1         6.8844   -1.4315    7.7114 Cl        1 <0>        -0.0908
     27 H2         -0.1568    2.5974   -1.5083 H         1 <0>         0.1196
     28 H3          2.0358    3.6757   -1.2209 H         1 <0>         0.1218
     29 H4          4.0486    2.3052   -0.8705 H         1 <0>         0.1252
     30 H5          1.6556   -1.2409   -1.1073 H         1 <0>         0.1248
     31 H6         -0.3469    0.1451   -1.4560 H         1 <0>         0.1216
     32 H7          5.5229    1.2924   -0.6045 H         1 <0>         0.1216
     33 H8          7.5253   -0.0934   -0.2547 H         1 <0>         0.1265
     34 H9          5.1458   -3.6248   -0.5108 H         1 <0>         0.1252
     35 H10         3.1313   -2.2539   -0.8503 H         1 <0>         0.1216
     36 H11         7.5622   -3.7410   -0.6572 H         1 <0>         0.0981
     37 H12         8.5551   -2.2676   -0.5507 H         1 <0>         0.0803
     38 H13         8.3333    0.3827    3.4600 H         1 <0>         0.1340
     39 H14         7.7965    0.5283    5.8578 H         1 <0>         0.1320
     40 H15         6.7926   -3.6188    5.8906 H         1 <0>         0.1289
     41 H16         7.3163   -3.7679    3.4901 H         1 <0>         0.1357
@<TRIPOS>BOND
     1    1    6 ar
     2    1    2 ar
     3    1   27 1
     4    2    3 ar
     5    2   28 1
     6    3    4 ar
     7    3   29 1
     8    4    5 ar
     9    4    7 1
    10    5    6 ar
    11    5   30 1
    12    6   31 1
    13    7   12 ar
    14    7    8 ar
    15    8    9 ar
    16    8   32 1
    17    9   10 ar
    18    9   33 1
    19   10   11 ar
    20   10   13 1
    21   11   12 ar
    22   11   34 1
    23   12   35 1
    24   13   14 1
    25   13   36 1
    26   13   37 1
    27   14   15 1
    28   14   16 1
    29   14   19 1
    30   16   17 2
    31   16   18 1
    32   19   20 1
    33   20   25 ar
    34   20   21 ar
    35   21   22 ar
    36   21   38 1
    37   22   23 ar
    38   22   39 1
    39   23   24 ar
    40   23   26 1
    41   24   25 ar
    42   24   40 1
    43   25   41 1
@<TRIPOS>MOLECULE
CHEMBL472451
   38    40     0     0     0
SMALL
USER_CHARGES

@<TRIPOS>ATOM
      1 C1          0.0904    2.2948   -1.2210 C.2       1 <0>        -0.1482
      2 C2          1.3281    2.8614   -1.0086 C.2       1 <0>        -0.1655
      3 C3          2.4250    2.0441   -0.9511 C.2       1 <0>        -0.0832
      4 S1          1.6970    0.4334   -1.2028 S.3       1 <0>         0.0460
      5 C4         -0.0045    0.9482   -1.3666 C.2       1 <0>        -0.1886
      6 C5          3.8433    2.4021   -0.7370 C.ar      1 <0>        -0.0290
      7 C6          4.2092    3.7363   -0.5530 C.ar      1 <0>        -0.0940
      8 C7          5.5345    4.0636   -0.3531 C.ar      1 <0>        -0.0999
      9 C8          6.4998    3.0727   -0.3353 C.ar      1 <0>        -0.0584
     10 C9          6.1438    1.7481   -0.5170 C.ar      1 <0>        -0.1143
     11 C10         4.8214    1.4067   -0.7121 C.ar      1 <0>        -0.1027
     12 C11         7.9457    3.4377   -0.1174 C.3       1 <0>        -0.0652
     13 C12         8.2575    3.4141    1.3802 C.3       1 <0>         0.0214
     14 H1          7.9880    2.4416    1.7922 H         1 <0>         0.0683
     15 C13         9.7297    3.6582    1.5907 C.2       1 <0>         0.4808
     16 O1         10.1044    4.6657    2.1659 O.co2     1 <0>        -0.6688
     17 O2         10.5459    2.8481    1.1857 O.co2     1 <0>        -0.6876
     18 O3          7.5063    4.4354    2.0394 O.3       1 <0>        -0.2870
     19 C14         7.2487    4.2558    3.3618 C.ar      1 <0>         0.1756
     20 C15         6.4270    5.1468    4.0366 C.ar      1 <0>        -0.1551
     21 C16         6.1664    4.9626    5.3807 C.ar      1 <0>        -0.0730
     22 C17         6.7247    3.8905    6.0540 C.ar      1 <0>        -0.0889
     23 C18         7.5449    3.0009    5.3828 C.ar      1 <0>        -0.0673
     24 C19         7.8025    3.1780    4.0372 C.ar      1 <0>        -0.1907
     25 Cl1         6.3961    3.6614    7.7431 Cl        1 <0>        -0.0906
     26 H2         -0.7937    2.9134   -1.2668 H         1 <0>         0.1327
     27 H3          1.4312    3.9299   -0.8900 H         1 <0>         0.1342
     28 H4         -0.8832    0.3440   -1.5374 H         1 <0>         0.1842
     29 H5          3.4567    4.5109   -0.5674 H         1 <0>         0.1232
     30 H6          5.8190    5.0957   -0.2107 H         1 <0>         0.1303
     31 H7          6.9021    0.9794   -0.5020 H         1 <0>         0.1286
     32 H8          4.5442    0.3720   -0.8497 H         1 <0>         0.1206
     33 H9          8.5833    2.7194   -0.6328 H         1 <0>         0.0994
     34 H10         8.1315    4.4368   -0.5115 H         1 <0>         0.0817
     35 H11         5.9916    5.9842    3.5116 H         1 <0>         0.1342
     36 H12         5.5267    5.6561    5.9063 H         1 <0>         0.1320
     37 H13         7.9800    2.1649    5.9101 H         1 <0>         0.1290
     38 H14         8.4389    2.4808    3.5125 H         1 <0>         0.1358
@<TRIPOS>BOND
     1    1    5 2
     2    1    2 1
     3    1   26 1
     4    2    3 2
     5    2   27 1
     6    3    4 1
     7    3    6 1
     8    4    5 1
     9    5   28 1
    10    6   11 ar
    11    6    7 ar
    12    7    8 ar
    13    7   29 1
    14    8    9 ar
    15    8   30 1
    16    9   10 ar
    17    9   12 1
    18   10   11 ar
    19   10   31 1
    20   11   32 1
    21   12   13 1
    22   12   33 1
    23   12   34 1
    24   13   14 1
    25   13   15 1
    26   13   18 1
    27   15   16 2
    28   15   17 1
    29   18   19 1
    30   19   24 ar
    31   19   20 ar
    32   20   21 ar
    33   20   35 1
    34   21   22 ar
    35   21   36 1
    36   22   23 ar
    37   22   25 1
    38   23   24 ar
    39   23   37 1
    40   24   38 1
@<TRIPOS>MOLECULE
CHEMBL231690
   37    39     0     0     0
SMALL
USER_CHARGES

@<TRIPOS>ATOM
      1 C1         -0.0184    1.5028    0.0103 C.3       1 <0>        -0.0833
      2 C2          0.0021   -0.0041    0.0020 C.2       1 <0>         0.0769
      3 C3          0.0059   -0.7076   -1.1591 C.2       1 <0>        -0.1557
      4 S1          0.0324   -2.3789   -0.5312 S.3       1 <0>         0.2344
      5 C4          0.0357   -2.0088    1.1107 C.2       1 <0>        -0.0907
      6 N1          0.0226   -0.6992    1.1217 N.2       1 <0>        -0.4515
      7 C5          0.0549   -2.9548    2.2837 C.3       1 <0>         0.5716
      8 F1         -0.0641   -2.2264    3.4722 F         1 <0>        -0.1528
      9 F2         -1.0138   -3.8514    2.1772 F         1 <0>        -0.1614
     10 F3          1.2603   -3.6647    2.2905 F         1 <0>        -0.1605
     11 C6         -0.0083   -0.2146   -2.5831 C.3       1 <0>        -0.0258
     12 S2          1.6961    0.0070   -3.1633 S.3       1 <0>        -0.1078
     13 C7          1.5116    0.5784   -4.8198 C.ar      1 <0>        -0.1271
     14 C8          0.2363    0.7548   -5.3563 C.ar      1 <0>        -0.1222
     15 C9          0.0754    1.2004   -6.6485 C.ar      1 <0>        -0.0926
     16 C10         1.1902    1.4791   -7.4328 C.ar      1 <0>         0.1172
     17 C11         2.4779    1.3027   -6.8961 C.ar      1 <0>        -0.0958
     18 C12         2.6316    0.8559   -5.5818 C.ar      1 <0>        -0.0450
     19 C13         3.4148    1.6757   -7.9587 C.2       1 <0>        -0.2264
     20 C14         2.6795    2.0376   -9.0220 C.2       1 <0>         0.0761
     21 N2          1.3482    1.9270   -8.7280 N.pl3     1 <0>        -0.4402
     22 C15         0.2536    2.2379   -9.6507 C.3       1 <0>         0.0303
     23 C16        -0.2132    3.6518   -9.4182 C.2       1 <0>         0.4804
     24 O1          0.3192    4.3364   -8.5611 O.co2     1 <0>        -0.6712
     25 O2         -1.1231    4.1112  -10.0871 O.co2     1 <0>        -0.6909
     26 H1          1.0042    1.8801    0.0026 H         1 <0>         0.0867
     27 H2         -0.5455    1.8639   -0.8728 H         1 <0>         0.0818
     28 H3         -0.5286    1.8543    0.9071 H         1 <0>         0.0799
     29 H4         -0.5152   -0.9438   -3.2150 H         1 <0>         0.1096
     30 H5         -0.5357    0.7380   -2.6326 H         1 <0>         0.1200
     31 H6         -0.6328    0.5394   -4.7524 H         1 <0>         0.1175
     32 H7         -0.9167    1.3335   -7.0539 H         1 <0>         0.1193
     33 H8          3.6190    0.7235   -5.1648 H         1 <0>         0.1220
     34 H9          4.4930    1.6625   -7.8980 H         1 <0>         0.1427
     35 H10         3.0799    2.3677   -9.9692 H         1 <0>         0.1621
     36 H11         0.6039    2.1352  -10.6777 H         1 <0>         0.0890
     37 H12        -0.5736    1.5493   -9.4784 H         1 <0>         0.0835
@<TRIPOS>BOND
     1    1    2 1
     2    1   26 1
     3    1   27 1
     4    1   28 1
     5    2    6 1
     6    2    3 2
     7    3    4 1
     8    3   11 1
     9    4    5 1
    10    5    6 2
    11    5    7 1
    12    7    8 1
    13    7    9 1
    14    7   10 1
    15   11   12 1
    16   11   29 1
    17   11   30 1
    18   12   13 1
    19   13   18 ar
    20   13   14 ar
    21   14   15 ar
    22   14   31 1
    23   15   16 ar
    24   15   32 1
    25   16   21 1
    26   16   17 ar
    27   17   18 ar
    28   17   19 1
    29   18   33 1
    30   19   20 2
    31   19   34 1
    32   20   21 1
    33   20   35 1
    34   21   22 1
    35   22   23 1
    36   22   36 1
    37   22   37 1
    38   23   24 2
    39   23   25 1
@<TRIPOS>MOLECULE
CHEMBL393373
   49    52     0     0     0
SMALL
USER_CHARGES

@<TRIPOS>ATOM
      1 C1          0.1375    1.3164   -1.0121 C.ar      1 <0>        -0.0549
      2 C2          1.2724    2.0442   -0.7117 C.ar      1 <0>        -0.1963
      3 C3          2.4305    1.3898   -0.3167 C.ar      1 <0>         0.1239
      4 C4          2.4451    0.0054   -0.2246 C.ar      1 <0>        -0.1445
      5 C5          1.3074   -0.7177   -0.5261 C.ar      1 <0>        -0.0569
      6 C6          0.1547   -0.0631   -0.9195 C.ar      1 <0>        -0.1151
      7 C7         -1.0851   -0.8545   -1.2474 C.3       1 <0>         0.1047
      8 O1         -1.0849   -1.1862   -2.6373 O.3       1 <0>        -0.3143
      9 C8         -2.1422   -1.9050   -3.1008 C.ar      1 <0>         0.0857
     10 C9         -3.1629   -2.2773   -2.2296 C.ar      1 <0>        -0.1892
     11 C10        -4.2407   -3.0046   -2.6822 C.ar      1 <0>        -0.0759
     12 C11        -4.3172   -3.3744   -4.0210 C.ar      1 <0>         0.0876
     13 C12        -3.2882   -3.0001   -4.9032 C.ar      1 <0>        -0.0748
     14 C13        -2.2021   -2.2577   -4.4340 C.ar      1 <0>        -0.1126
     15 C14        -3.6638   -3.5344   -6.2144 C.2       1 <0>        -0.2347
     16 C15        -4.8370   -4.1683   -6.0591 C.2       1 <0>         0.0792
     17 N1         -5.2438   -4.0839   -4.7557 N.pl3     1 <0>        -0.4418
     18 C16        -6.4790   -4.6616   -4.2202 C.3       1 <0>         0.0320
     19 C17        -7.5628   -3.6145   -4.2161 C.2       1 <0>         0.4801
     20 O2         -7.3254   -2.4899   -4.6228 O.co2     1 <0>        -0.6713
     21 O3         -8.6770   -3.8919   -3.8061 O.co2     1 <0>        -0.6930
     22 O4          3.5484    2.1034   -0.0210 O.3       1 <0>        -0.2601
     23 C18         3.4853    3.4573   -0.1181 C.ar      1 <0>         0.1210
     24 C19         3.1078    4.2161    0.9806 C.ar      1 <0>        -0.1275
     25 C20         3.0443    5.5922    0.8792 C.ar      1 <0>        -0.0553
     26 C21         3.3562    6.2137   -0.3160 C.ar      1 <0>        -0.1846
     27 C22         3.7322    5.4599   -1.4125 C.ar      1 <0>        -0.0546
     28 C23         3.8037    4.0839   -1.3145 C.ar      1 <0>        -0.1267
     29 C24         3.2856    7.7152   -0.4238 C.3       1 <0>         0.5098
     30 F1          4.5257    8.2660   -0.0831 F         1 <0>        -0.1750
     31 F2          2.9610    8.0737   -1.7366 F         1 <0>        -0.1747
     32 F3          2.3047    8.1998    0.4481 F         1 <0>        -0.1751
     33 H1         -0.7655    1.8255   -1.3153 H         1 <0>         0.1314
     34 H2          1.2585    3.1217   -0.7845 H         1 <0>         0.1284
     35 H3          3.3452   -0.5064    0.0823 H         1 <0>         0.1357
     36 H4          1.3182   -1.7953   -0.4546 H         1 <0>         0.1360
     37 H5         -1.0991   -1.7697   -0.6555 H         1 <0>         0.0685
     38 H6         -1.9682   -0.2588   -1.0161 H         1 <0>         0.0686
     39 H7         -3.1083   -1.9931   -1.1891 H         1 <0>         0.1233
     40 H8         -5.0265   -3.2884   -1.9978 H         1 <0>         0.1177
     41 H9         -1.4119   -1.9648   -5.1095 H         1 <0>         0.1227
     42 H10        -3.1034   -3.4364   -7.1324 H         1 <0>         0.1408
     43 H11        -5.3793   -4.6706   -6.8465 H         1 <0>         0.1603
     44 H12        -6.7873   -5.5012   -4.8432 H         1 <0>         0.0874
     45 H13        -6.3058   -5.0092   -3.2018 H         1 <0>         0.0822
     46 H14         2.8634    3.7311    1.9141 H         1 <0>         0.1453
     47 H15         2.7506    6.1833    1.7340 H         1 <0>         0.1451
     48 H16         3.9749    5.9478   -2.3450 H         1 <0>         0.1455
     49 H17         4.1021    3.4959   -2.1699 H         1 <0>         0.1460
@<TRIPOS>BOND
     1    1    6 ar
     2    1    2 ar
     3    1   33 1
     4    2    3 ar
     5    2   34 1
     6    3    4 ar
     7    3   22 1
     8    4    5 ar
     9    4   35 1
    10    5    6 ar
    11    5   36 1
    12    6    7 1
    13    7    8 1
    14    7   37 1
    15    7   38 1
    16    8    9 1
    17    9   14 ar
    18    9   10 ar
    19   10   11 ar
    20   10   39 1
    21   11   12 ar
    22   11   40 1
    23   12   17 1
    24   12   13 ar
    25   13   14 ar
    26   13   15 1
    27   14   41 1
    28   15   16 2
    29   15   42 1
    30   16   17 1
    31   16   43 1
    32   17   18 1
    33   18   19 1
    34   18   44 1
    35   18   45 1
    36   19   20 2
    37   19   21 1
    38   22   23 1
    39   23   28 ar
    40   23   24 ar
    41   24   25 ar
    42   24   46 1
    43   25   26 ar
    44   25   47 1
    45   26   27 ar
    46   26   29 1
    47   27   28 ar
    48   27   48 1
    49   28   49 1
    50   29   30 1
    51   29   31 1
    52   29   32 1
@<TRIPOS>MOLECULE
CHEMBL231689
   52    55     0     0     0
SMALL
USER_CHARGES

@<TRIPOS>ATOM
      1 C1         -0.0167    1.3779    0.0096 C.ar      1 <0>        -0.1258
      2 C2          1.1711    2.0854    0.0021 C.ar      1 <0>        -0.0875
      3 C3          2.3773    1.4107   -0.0130 C.ar      1 <0>        -0.1058
      4 C4          2.3960    0.0283   -0.0201 C.ar      1 <0>        -0.0683
      5 C5          1.2086   -0.6790   -0.0117 C.ar      1 <0>        -0.0891
      6 C6          0.0021   -0.0041    0.0020 C.ar      1 <0>        -0.0817
      7 C7          1.2291   -2.1858   -0.0204 C.3       1 <0>         0.1017
      8 O1          1.2497   -2.6697    1.3240 O.3       1 <0>        -0.3132
      9 C8          1.2698   -4.0188    1.4944 C.ar      1 <0>         0.0852
     10 C9          1.2755   -4.8581    0.3830 C.ar      1 <0>        -0.1894
     11 C10         1.2963   -6.2261    0.5375 C.ar      1 <0>        -0.0758
     12 C11         1.3118   -6.7817    1.8126 C.ar      1 <0>         0.0878
     13 C12         1.3061   -5.9370    2.9367 C.ar      1 <0>        -0.0747
     14 C13         1.2903   -4.5505    2.7681 C.ar      1 <0>        -0.1118
     15 C14         1.3258   -6.8185    4.1065 C.2       1 <0>        -0.2345
     16 C15         1.3415   -8.0801    3.6477 C.2       1 <0>         0.0793
     17 N1          1.3334   -8.0790    2.2798 N.pl3     1 <0>        -0.4417
     18 C16         1.3452   -9.2772    1.4369 C.3       1 <0>         0.0320
     19 C17         2.7627   -9.5966    1.0375 C.2       1 <0>         0.4800
     20 O2          3.6784   -8.8889    1.4213 O.co2     1 <0>        -0.6712
     21 O3          2.9940  -10.5626    0.3306 O.co2     1 <0>        -0.6929
     22 C18         3.6720    2.1819   -0.0222 C.3       1 <0>         0.1012
     23 O4          4.0945    2.4194    1.3220 O.3       1 <0>        -0.2996
     24 C19         5.2538    3.1080    1.4918 C.ar      1 <0>         0.1670
     25 C20         5.9669    3.5512    0.3874 C.ar      1 <0>        -0.2136
     26 C21         7.1448    4.2514    0.5627 C.ar      1 <0>        -0.0275
     27 C22         7.6133    4.5103    1.8375 C.ar      1 <0>        -0.2277
     28 C23         6.9047    4.0693    2.9399 C.ar      1 <0>        -0.0293
     29 C24         5.7231    3.3740    2.7700 C.ar      1 <0>        -0.1525
     30 C25         8.8988    5.2739    2.0258 C.3       1 <0>         0.5124
     31 F1          8.6210    6.6429    2.1023 F         1 <0>        -0.1787
     32 F2          9.5198    4.8572    3.2081 F         1 <0>        -0.1775
     33 F3          9.7489    5.0305    0.9417 F         1 <0>        -0.1785
     34 H1         -0.9591    1.9051    0.0259 H         1 <0>         0.1282
     35 H2          1.1565    3.1653    0.0076 H         1 <0>         0.1247
     36 H3          3.3385   -0.4989   -0.0326 H         1 <0>         0.1281
     37 H4         -0.9258   -0.5567    0.0079 H         1 <0>         0.1283
     38 H5          0.3388   -2.5583   -0.5270 H         1 <0>         0.0692
     39 H6          2.1185   -2.5341   -0.5456 H         1 <0>         0.0692
     40 H7          1.2631   -4.4319   -0.6092 H         1 <0>         0.1231
     41 H8          1.3001   -6.8676   -0.3313 H         1 <0>         0.1178
     42 H9          1.2900   -3.8985    3.6290 H         1 <0>         0.1230
     43 H10         1.3280   -6.5116    5.1420 H         1 <0>         0.1410
     44 H11         1.3580   -8.9648    4.2670 H         1 <0>         0.1604
     45 H12         0.9264  -10.1163    1.9925 H         1 <0>         0.0875
     46 H13         0.7473   -9.0986    0.5432 H         1 <0>         0.0821
     47 H14         4.4344    1.6057   -0.5463 H         1 <0>         0.0768
     48 H15         3.5236    3.1349   -0.5302 H         1 <0>         0.0757
     49 H16         5.6017    3.3486   -0.6086 H         1 <0>         0.1404
     50 H17         7.7003    4.5965   -0.2968 H         1 <0>         0.1383
     51 H18         7.2730    4.2725    3.9346 H         1 <0>         0.1428
     52 H19         5.1677    3.0337    3.6314 H         1 <0>         0.1448
@<TRIPOS>BOND
     1    1    6 ar
     2    1    2 ar
     3    1   34 1
     4    2    3 ar
     5    2   35 1
     6    3    4 ar
     7    3   22 1
     8    4    5 ar
     9    4   36 1
    10    5    6 ar
    11    5    7 1
    12    6   37 1
    13    7    8 1
    14    7   38 1
    15    7   39 1
    16    8    9 1
    17    9   14 ar
    18    9   10 ar
    19   10   11 ar
    20   10   40 1
    21   11   12 ar
    22   11   41 1
    23   12   17 1
    24   12   13 ar
    25   13   14 ar
    26   13   15 1
    27   14   42 1
    28   15   16 2
    29   15   43 1
    30   16   17 1
    31   16   44 1
    32   17   18 1
    33   18   19 1
    34   18   45 1
    35   18   46 1
    36   19   20 2
    37   19   21 1
    38   22   23 1
    39   22   47 1
    40   22   48 1
    41   23   24 1
    42   24   29 ar
    43   24   25 ar
    44   25   26 ar
    45   25   49 1
    46   26   27 ar
    47   26   50 1
    48   27   28 ar
    49   27   30 1
    50   28   29 ar
    51   28   51 1
    52   29   52 1
    53   30   31 1
    54   30   32 1
    55   30   33 1
@<TRIPOS>MOLECULE
CHEMBL393767
   44    47     0     0     0
SMALL
USER_CHARGES

@<TRIPOS>ATOM
      1 C1         -0.0169    1.3914    0.0097 C.ar      1 <0>        -0.0893
      2 C2          1.1702    2.0944    0.0021 C.ar      1 <0>        -0.0698
      3 C3          2.3776    1.4189   -0.0130 C.ar      1 <0>        -0.1700
      4 C4          2.4033    0.0357   -0.0212 C.ar      1 <0>        -0.0677
      5 C5          1.2234   -0.6793   -0.0142 C.ar      1 <0>        -0.0844
      6 C6          0.0021   -0.0041    0.0020 C.ar      1 <0>        -0.0019
      7 C7         -1.2662   -0.7638    0.0105 C.2       1 <0>         0.0953
      8 C8         -1.3901   -2.1189    0.0100 C.2       1 <0>        -0.2302
      9 C9         -2.7579   -2.4288    0.0197 C.2       1 <0>         0.1126
     10 N1         -3.4305   -1.3118    0.0259 N.2       1 <0>        -0.3017
     11 O1         -2.5059   -0.2393    0.0261 O.3       1 <0>        -0.0678
     12 C10        -3.3489   -3.8151    0.0218 C.3       1 <0>         0.1331
     13 O2         -2.2964   -4.7817    0.0122 O.3       1 <0>        -0.3134
     14 C11        -2.6612   -6.0917    0.0127 C.ar      1 <0>         0.0837
     15 C12        -4.0107   -6.4358    0.0164 C.ar      1 <0>        -0.1892
     16 C13        -4.3975   -7.7572    0.0165 C.ar      1 <0>        -0.0736
     17 C14        -3.4367   -8.7630    0.0129 C.ar      1 <0>         0.0902
     18 C15        -2.0733   -8.4189    0.0091 C.ar      1 <0>        -0.0756
     19 C16        -1.6925   -7.0750    0.0037 C.ar      1 <0>        -0.1059
     20 C17        -1.3357   -9.6845    0.0059 C.2       1 <0>        -0.2335
     21 C18        -2.2468  -10.6704    0.0078 C.2       1 <0>         0.0804
     22 N2         -3.5078  -10.1402    0.0120 N.pl3     1 <0>        -0.4407
     23 C19        -4.7486  -10.9191    0.0158 C.3       1 <0>         0.0312
     24 C20        -5.2449  -11.0801   -1.3980 C.2       1 <0>         0.4801
     25 O3         -4.6202  -10.5897   -2.3230 O.co2     1 <0>        -0.6713
     26 O4         -6.2713  -11.7008   -1.6168 O.co2     1 <0>        -0.6921
     27 C21         3.6704    2.1934   -0.0212 C.3       1 <0>         0.5084
     28 F1          4.0830    2.4259    1.2952 F         1 <0>        -0.1744
     29 F2          4.6510    1.4566   -0.6941 F         1 <0>        -0.1745
     30 F3          3.4772    3.4164   -0.6723 F         1 <0>        -0.1754
     31 H1         -0.9586    1.9198    0.0260 H         1 <0>         0.1462
     32 H2          1.1570    3.1743    0.0077 H         1 <0>         0.1443
     33 H3          3.3491   -0.4856   -0.0333 H         1 <0>         0.1467
     34 H4          1.2448   -1.7590   -0.0213 H         1 <0>         0.1481
     35 H5         -0.5779   -2.8307    0.0029 H         1 <0>         0.1711
     36 H6         -3.9574   -3.9494    0.9161 H         1 <0>         0.0936
     37 H7         -3.9708   -3.9463   -0.8638 H         1 <0>         0.0946
     38 H8         -4.7609   -5.6588    0.0196 H         1 <0>         0.1244
     39 H9         -5.4469   -8.0127    0.0198 H         1 <0>         0.1196
     40 H10        -0.6463   -6.8069   -0.0033 H         1 <0>         0.1248
     41 H11        -0.2621   -9.8021    0.0021 H         1 <0>         0.1418
     42 H12        -2.0180  -11.7259    0.0063 H         1 <0>         0.1611
     43 H13        -4.5596  -11.9014    0.4486 H         1 <0>         0.0882
     44 H14        -5.5018  -10.3998    0.6083 H         1 <0>         0.0829
@<TRIPOS>BOND
     1    1    6 ar
     2    1    2 ar
     3    1   31 1
     4    2    3 ar
     5    2   32 1
     6    3    4 ar
     7    3   27 1
     8    4    5 ar
     9    4   33 1
    10    5    6 ar
    11    5   34 1
    12    6    7 1
    13    7   11 1
    14    7    8 2
    15    8    9 1
    16    8   35 1
    17    9   10 2
    18    9   12 1
    19   10   11 1
    20   12   13 1
    21   12   36 1
    22   12   37 1
    23   13   14 1
    24   14   19 ar
    25   14   15 ar
    26   15   16 ar
    27   15   38 1
    28   16   17 ar
    29   16   39 1
    30   17   22 1
    31   17   18 ar
    32   18   19 ar
    33   18   20 1
    34   19   40 1
    35   20   21 2
    36   20   41 1
    37   21   22 1
    38   21   42 1
    39   22   23 1
    40   23   24 1
    41   23   43 1
    42   23   44 1
    43   24   25 2
    44   24   26 1
    45   27   28 1
    46   27   29 1
    47   27   30 1
@<TRIPOS>MOLECULE
CHEMBL470145
   42    44     0     0     0
SMALL
USER_CHARGES

@<TRIPOS>ATOM
      1 C1          2.7025    1.4471    3.5061 C.ar      1 <0>        -0.1586
      2 C2          2.6507    0.0663    3.4573 C.ar      1 <0>        -0.0826
      3 C3          2.9891   -0.5982    2.2946 C.ar      1 <0>        -0.1957
      4 C4          3.3814    0.1213    1.1748 C.ar      1 <0>         0.1271
      5 C5          3.4325    1.5069    1.2264 C.ar      1 <0>        -0.1491
      6 C6          3.0930    2.1665    2.3916 C.ar      1 <0>        -0.0846
      7 O1          3.7152   -0.5300    0.0299 O.3       1 <0>        -0.2563
      8 C7          3.7470   -1.8883    0.0546 C.ar      1 <0>         0.0791
      9 C8          2.5628   -2.6117    0.0418 C.ar      1 <0>        -0.1438
     10 C9          2.5979   -3.9921    0.0665 C.ar      1 <0>        -0.1063
     11 C10         3.8118   -4.6536    0.1045 C.ar      1 <0>        -0.1152
     12 C11         4.9930   -3.9353    0.1178 C.ar      1 <0>        -0.0559
     13 C12         4.9636   -2.5544    0.0870 C.ar      1 <0>        -0.1026
     14 C13         6.3140   -4.6594    0.1597 C.3       1 <0>        -0.0666
     15 C14         6.7928   -4.9300   -1.2680 C.3       1 <0>         0.0195
     16 C15         8.0498   -5.7602   -1.2274 C.2       1 <0>         0.4837
     17 O2          8.0151   -6.8979   -0.7904 O.co2     1 <0>        -0.6875
     18 O3          9.1015   -5.2943   -1.6316 O.co2     1 <0>        -0.6686
     19 O4          7.0626   -3.6890   -1.9231 O.3       1 <0>        -0.2839
     20 C16         6.8091   -3.6276   -3.2571 C.ar      1 <0>         0.1720
     21 C17         6.9310   -2.4220   -3.9324 C.ar      1 <0>        -0.1527
     22 C18         6.6729   -2.3615   -5.2882 C.ar      1 <0>        -0.0714
     23 C19         6.2927   -3.5024   -5.9725 C.ar      1 <0>        -0.0889
     24 C20         6.1702   -4.7058   -5.3006 C.ar      1 <0>        -0.0668
     25 C21         6.4338   -4.7716   -3.9461 C.ar      1 <0>        -0.1980
     26 Cl1         5.9684   -3.4239   -7.6761 Cl        1 <0>        -0.0897
     27 H1          2.4333    1.9649    4.4148 H         1 <0>         0.1224
     28 H2          2.3457   -0.4933    4.3293 H         1 <0>         0.1240
     29 H3          2.9488   -1.6768    2.2571 H         1 <0>         0.1311
     30 H4          3.7378    2.0693    0.3563 H         1 <0>         0.1314
     31 H5          3.1323    3.2450    2.4322 H         1 <0>         0.1287
     32 H6          1.6145   -2.0956    0.0128 H         1 <0>         0.1252
     33 H7          1.6766   -4.5556    0.0566 H         1 <0>         0.1278
     34 H8          3.8371   -5.7331    0.1242 H         1 <0>         0.1298
     35 H9          5.8867   -1.9938    0.0929 H         1 <0>         0.1336
     36 H10         7.0491   -4.0445    0.6791 H         1 <0>         0.0819
     37 H11         6.1933   -5.6052    0.6879 H         1 <0>         0.1010
     38 H12         6.0190   -5.4688   -1.8148 H         1 <0>         0.0723
     39 H13         7.2270   -1.5311   -3.3985 H         1 <0>         0.1351
     40 H14         6.7677   -1.4231   -5.8142 H         1 <0>         0.1327
     41 H15         5.8730   -5.5952   -5.8364 H         1 <0>         0.1294
     42 H16         6.3428   -5.7120   -3.4230 H         1 <0>         0.1372
@<TRIPOS>BOND
     1    1    6 ar
     2    1    2 ar
     3    1   27 1
     4    2    3 ar
     5    2   28 1
     6    3    4 ar
     7    3   29 1
     8    4    5 ar
     9    4    7 1
    10    5    6 ar
    11    5   30 1
    12    6   31 1
    13    7    8 1
    14    8   13 ar
    15    8    9 ar
    16    9   10 ar
    17    9   32 1
    18   10   11 ar
    19   10   33 1
    20   11   12 ar
    21   11   34 1
    22   12   13 ar
    23   12   14 1
    24   13   35 1
    25   14   15 1
    26   14   36 1
    27   14   37 1
    28   15   16 1
    29   15   19 1
    30   15   38 1
    31   16   17 2
    32   16   18 1
    33   19   20 1
    34   20   25 ar
    35   20   21 ar
    36   21   22 ar
    37   21   39 1
    38   22   23 ar
    39   22   40 1
    40   23   24 ar
    41   23   26 1
    42   24   25 ar
    43   24   41 1
    44   25   42 1
@<TRIPOS>MOLECULE
CHEMBL470145__1
   42    44     0     0     0
SMALL
USER_CHARGES

@<TRIPOS>ATOM
      1 C1          2.3475    1.0468    3.6802 C.ar      1 <0>        -0.1584
      2 C2          2.3991   -0.3327    3.6026 C.ar      1 <0>        -0.0825
      3 C3          2.7577   -0.9462    2.4181 C.ar      1 <0>        -0.1950
      4 C4          3.0662   -0.1768    1.3054 C.ar      1 <0>         0.1267
      5 C5          3.0136    1.2075    1.3859 C.ar      1 <0>        -0.1494
      6 C6          2.6544    1.8159    2.5728 C.ar      1 <0>        -0.0846
      7 O1          3.4197   -0.7777    0.1390 O.3       1 <0>        -0.2576
      8 C7          3.5475   -2.1306    0.1316 C.ar      1 <0>         0.0780
      9 C8          2.4172   -2.9354    0.1053 C.ar      1 <0>        -0.1425
     10 C9          2.5499   -4.3101    0.0973 C.ar      1 <0>        -0.1066
     11 C10         3.8077   -4.8848    0.1160 C.ar      1 <0>        -0.0992
     12 C11         4.9353   -4.0853    0.1426 C.ar      1 <0>        -0.0550
     13 C12         4.8082   -2.7095    0.1445 C.ar      1 <0>        -0.1180
     14 C13         6.3042   -4.7149    0.1634 C.3       1 <0>        -0.0629
     15 C14         6.7942   -4.9175   -1.2718 C.3       1 <0>         0.0200
     16 C15         8.2104   -5.4325   -1.2511 C.2       1 <0>         0.4813
     17 O2          8.4593   -6.5488   -1.6737 O.co2     1 <0>        -0.6688
     18 O3          9.1071   -4.7330   -0.8118 O.co2     1 <0>        -0.6867
     19 O4          5.9527   -5.8643   -1.9332 O.3       1 <0>        -0.2878
     20 C16         5.9210   -5.8187   -3.2913 C.ar      1 <0>         0.1777
     21 C17         5.1801   -6.7527   -4.0005 C.ar      1 <0>        -0.1534
     22 C18         5.1492   -6.7048   -5.3807 C.ar      1 <0>        -0.0721
     23 C19         5.8570   -5.7261   -6.0559 C.ar      1 <0>        -0.0892
     24 C20         6.5970   -4.7939   -5.3503 C.ar      1 <0>        -0.0662
     25 C21         6.6250   -4.8345   -3.9698 C.ar      1 <0>        -0.1955
     26 Cl1         5.8170   -5.6683   -7.7905 Cl        1 <0>        -0.0905
     27 H1          2.0626    1.5244    4.6060 H         1 <0>         0.1226
     28 H2          2.1592   -0.9312    4.4691 H         1 <0>         0.1243
     29 H3          2.7982   -2.0238    2.3581 H         1 <0>         0.1312
     30 H4          3.2536    1.8087    0.5213 H         1 <0>         0.1311
     31 H5          2.6129    2.8933    2.6359 H         1 <0>         0.1287
     32 H6          1.4347   -2.4871    0.0914 H         1 <0>         0.1253
     33 H7          1.6707   -4.9369    0.0768 H         1 <0>         0.1278
     34 H8          3.9093   -5.9599    0.1100 H         1 <0>         0.1311
     35 H9          5.6894   -2.0854    0.1608 H         1 <0>         0.1321
     36 H10         6.9965   -4.0619    0.6949 H         1 <0>         0.0997
     37 H11         6.2531   -5.6790    0.6694 H         1 <0>         0.0838
     38 H12         6.7610   -3.9672   -1.8046 H         1 <0>         0.0691
     39 H13         4.6280   -7.5171   -3.4739 H         1 <0>         0.1346
     40 H14         4.5724   -7.4318   -5.9332 H         1 <0>         0.1323
     41 H15         7.1491   -4.0310   -5.8791 H         1 <0>         0.1290
     42 H16         7.1988   -4.1038   -3.4192 H         1 <0>         0.1353
@<TRIPOS>BOND
     1    1    6 ar
     2    1    2 ar
     3    1   27 1
     4    2    3 ar
     5    2   28 1
     6    3    4 ar
     7    3   29 1
     8    4    5 ar
     9    4    7 1
    10    5    6 ar
    11    5   30 1
    12    6   31 1
    13    7    8 1
    14    8   13 ar
    15    8    9 ar
    16    9   10 ar
    17    9   32 1
    18   10   11 ar
    19   10   33 1
    20   11   12 ar
    21   11   34 1
    22   12   13 ar
    23   12   14 1
    24   13   35 1
    25   14   15 1
    26   14   36 1
    27   14   37 1
    28   15   16 1
    29   15   19 1
    30   15   38 1
    31   16   17 2
    32   16   18 1
    33   19   20 1
    34   20   25 ar
    35   20   21 ar
    36   21   22 ar
    37   21   39 1
    38   22   23 ar
    39   22   40 1
    40   23   24 ar
    41   23   26 1
    42   24   25 ar
    43   24   41 1
    44   25   42 1
@<TRIPOS>MOLECULE
CHEMBL1075683
   69    73     0     0     0
SMALL
USER_CHARGES

@<TRIPOS>ATOM
      1 C1         -0.2618    1.5541   -0.0816 C.3       1 <0>        -0.1055
      2 C2         -0.3320    0.0490   -0.1070 C.ar      1 <0>        -0.0850
      3 C3         -0.1260   -0.6323   -1.2911 C.ar      1 <0>        -0.1071
      4 C4         -0.1902   -2.0174   -1.3143 C.ar      1 <0>         0.0752
      5 C5         -0.4611   -2.7188   -0.1486 C.ar      1 <0>        -0.1691
      6 C6         -0.6670   -2.0378    1.0351 C.ar      1 <0>        -0.1753
      7 C7         -0.5977   -0.6525    1.0594 C.ar      1 <0>         0.1113
      8 O1         -0.7948    0.0178    2.2260 O.3       1 <0>        -0.2772
      9 C8         -1.0640   -0.7684    3.3885 C.3       1 <0>        -0.0071
     10 C9         -1.2534    0.1395    4.5762 C.2       1 <0>         0.5011
     11 O2         -1.1661    1.3480    4.4399 O.co2     1 <0>        -0.6704
     12 O3         -1.4941   -0.3343    5.6736 O.co2     1 <0>        -0.6883
     13 O4          0.0121   -2.6880   -2.4798 O.3       1 <0>        -0.3118
     14 C10        -0.0687   -4.1138   -2.4304 C.3       1 <0>         0.1598
     15 C11         0.1810   -4.6790   -3.8049 C.2       1 <0>         0.2035
     16 N1          1.3457   -5.0169   -4.2768 N.2       1 <0>        -0.4420
     17 C12         1.1901   -5.4828   -5.5342 C.2       1 <0>         0.0591
     18 C13        -0.1571   -5.4159   -5.8255 C.2       1 <0>         0.0071
     19 O5         -0.7630   -4.9159   -4.7260 O.3       1 <0>        -0.1794
     20 C14        -0.8086   -5.8173   -7.0871 C.ar      1 <0>        -0.0328
     21 C15        -0.4962   -7.0445   -7.6775 C.ar      1 <0>        -0.0454
     22 C16        -1.1073   -7.4153   -8.8560 C.ar      1 <0>        -0.1197
     23 C17        -2.0321   -6.5712   -9.4566 C.ar      1 <0>         0.1188
     24 C18        -2.3454   -5.3503   -8.8736 C.ar      1 <0>        -0.1892
     25 C19        -1.7440   -4.9739   -7.6919 C.ar      1 <0>        -0.0487
     26 O6         -2.6321   -6.9408  -10.6184 O.3       1 <0>        -0.3085
     27 C20        -3.5734   -6.0255  -11.1823 C.3       1 <0>         0.6037
     28 F1         -2.9354   -4.8114  -11.4584 F         1 <0>        -0.1632
     29 F2         -4.0915   -6.5599  -12.3669 F         1 <0>        -0.1295
     30 F3         -4.6150   -5.8089  -10.2738 F         1 <0>        -0.1626
     31 C21         2.2623   -5.9725   -6.4314 C.ar      1 <0>        -0.0549
     32 C22         2.2722   -5.6017   -7.7761 C.ar      1 <0>        -0.0529
     33 C23         3.2718   -6.0595   -8.6084 C.ar      1 <0>        -0.2077
     34 C24         4.2676   -6.8884   -8.1095 C.ar      1 <0>         0.1428
     35 C25         4.2606   -7.2598   -6.7718 C.ar      1 <0>        -0.1528
     36 C26         3.2675   -6.8008   -5.9323 C.ar      1 <0>        -0.0449
     37 O7          5.2512   -7.3376   -8.9326 O.3       1 <0>        -0.3049
     38 C27         5.1312   -7.0196  -10.3206 C.3       1 <0>         0.0770
     39 C28         5.7922   -5.6517  -10.6224 C.3       1 <0>        -0.1490
     40 C29         6.1139   -5.7536  -12.1340 C.3       1 <0>        -0.1243
     41 C30         6.5567   -7.2185  -12.3287 C.3       1 <0>        -0.1227
     42 C31         5.9319   -8.0234  -11.1757 C.3       1 <0>        -0.1205
     43 H1          0.7621    1.8667    0.1236 H         1 <0>         0.0698
     44 H2         -0.5754    1.9488   -1.0481 H         1 <0>         0.0613
     45 H3         -0.9213    1.9355    0.6979 H         1 <0>         0.0810
     46 H4          0.0846   -0.0862   -2.1987 H         1 <0>         0.1329
     47 H5         -0.5114   -3.7975   -0.1667 H         1 <0>         0.1258
     48 H6         -0.8787   -2.5838    1.9426 H         1 <0>         0.1329
     49 H7         -1.9701   -1.3531    3.2299 H         1 <0>         0.0580
     50 H8         -0.2261   -1.4403    3.5747 H         1 <0>         0.0584
     51 H9          0.6814   -4.4965   -1.7384 H         1 <0>         0.1088
     52 H10        -1.0612   -4.4099   -2.0906 H         1 <0>         0.0933
     53 H11         0.2232   -7.7014   -7.2113 H         1 <0>         0.1448
     54 H12        -0.8661   -8.3635   -9.3133 H         1 <0>         0.1476
     55 H13        -3.0648   -4.6967   -9.3446 H         1 <0>         0.1409
     56 H14        -1.9918   -4.0264   -7.2368 H         1 <0>         0.1410
     57 H15         1.4978   -4.9572   -8.1650 H         1 <0>         0.1249
     58 H16         3.2800   -5.7731   -9.6497 H         1 <0>         0.1324
     59 H17         5.0365   -7.9050   -6.3871 H         1 <0>         0.1351
     60 H18         3.2656   -7.0859   -4.8906 H         1 <0>         0.1352
     61 H19         4.0833   -7.0137  -10.6205 H         1 <0>         0.0815
     62 H20         5.0959   -4.8354  -10.4298 H         1 <0>         0.0729
     63 H21         6.7055   -5.5272  -10.0406 H         1 <0>         0.0812
     64 H22         5.2252   -5.5415  -12.7284 H         1 <0>         0.0689
     65 H23         6.9225   -5.0723  -12.3987 H         1 <0>         0.0720
     66 H24         6.1943   -7.5941  -13.2856 H         1 <0>         0.0688
     67 H25         7.6436   -7.2887  -12.2870 H         1 <0>         0.0694
     68 H26         6.7156   -8.4843  -10.5744 H         1 <0>         0.0803
     69 H27         5.2663   -8.7897  -11.5730 H         1 <0>         0.0736
@<TRIPOS>BOND
     1    1    2 1
     2    1   43 1
     3    1   44 1
     4    1   45 1
     5    2    7 ar
     6    2    3 ar
     7    3    4 ar
     8    3   46 1
     9    4    5 ar
    10    4   13 1
    11    5    6 ar
    12    5   47 1
    13    6    7 ar
    14    6   48 1
    15    7    8 1
    16    8    9 1
    17    9   10 1
    18    9   49 1
    19    9   50 1
    20   10   11 2
    21   10   12 1
    22   13   14 1
    23   14   15 1
    24   14   51 1
    25   14   52 1
    26   15   19 1
    27   15   16 2
    28   16   17 1
    29   17   18 2
    30   17   31 1
    31   18   19 1
    32   18   20 1
    33   20   25 ar
    34   20   21 ar
    35   21   22 ar
    36   21   53 1
    37   22   23 ar
    38   22   54 1
    39   23   24 ar
    40   23   26 1
    41   24   25 ar
    42   24   55 1
    43   25   56 1
    44   26   27 1
    45   27   28 1
    46   27   29 1
    47   27   30 1
    48   31   36 ar
    49   31   32 ar
    50   32   33 ar
    51   32   57 1
    52   33   34 ar
    53   33   58 1
    54   34   35 ar
    55   34   37 1
    56   35   36 ar
    57   35   59 1
    58   36   60 1
    59   37   38 1
    60   38   42 1
    61   38   39 1
    62   38   61 1
    63   39   40 1
    64   39   62 1
    65   39   63 1
    66   40   41 1
    67   40   64 1
    68   40   65 1
    69   41   42 1
    70   41   66 1
    71   41   67 1
    72   42   68 1
    73   42   69 1
@<TRIPOS>MOLECULE
CHEMBL246270
   62    65     0     0     0
SMALL
USER_CHARGES

@<TRIPOS>ATOM
      1 C1          0.2570   -0.1647   -0.5765 C.3       1 <0>        -0.0721
      2 C2          0.1418   -1.6342   -0.8899 C.2       1 <0>        -0.0322
      3 C3         -0.9961   -2.3492   -0.9548 C.2       1 <0>        -0.0114
      4 N1         -0.6697   -3.6144   -1.2590 N.2       1 <0>        -0.4613
      5 C4          0.6343   -3.6933   -1.3819 C.2       1 <0>         0.2373
      6 O1          1.1589   -2.4752   -1.1629 O.3       1 <0>        -0.1917
      7 C5          1.3978   -4.9154   -1.7120 C.ar      1 <0>        -0.0231
      8 C6          0.7303   -6.1217   -1.9288 C.ar      1 <0>        -0.0697
      9 C7          1.4488   -7.2584   -2.2370 C.ar      1 <0>        -0.1203
     10 C8          2.8280   -7.2044   -2.3312 C.ar      1 <0>        -0.0977
     11 C9          3.4959   -6.0118   -2.1170 C.ar      1 <0>        -0.1207
     12 C10         2.7890   -4.8665   -1.8138 C.ar      1 <0>        -0.0894
     13 C11        -2.3895   -1.8226   -0.7260 C.3       1 <0>        -0.0339
     14 C12        -2.9749   -1.3356   -2.0530 C.3       1 <0>         0.0657
     15 O2         -4.2961   -0.8362   -1.8360 O.3       1 <0>        -0.3075
     16 C13        -4.9622   -0.3614   -2.9213 C.ar      1 <0>         0.1401
     17 C14        -4.3586   -0.3810   -4.1705 C.ar      1 <0>        -0.1846
     18 C15        -5.0379    0.1017   -5.2721 C.ar      1 <0>        -0.0730
     19 C16        -6.3184    0.6044   -5.1306 C.ar      1 <0>        -0.1328
     20 C17        -6.9218    0.6255   -3.8870 C.ar      1 <0>        -0.1042
     21 C18        -6.2487    0.1385   -2.7830 C.ar      1 <0>        -0.1299
     22 C19        -8.3171    1.1744   -3.7364 C.3       1 <0>         0.0352
     23 N2         -9.2920    0.0908   -3.9190 N.4       1 <0>        -0.3552
     24 C20       -10.6518    0.6457   -3.8914 C.3       1 <0>         0.0399
     25 C21       -10.8483    1.5532   -5.0784 C.ar      1 <0>        -0.1406
     26 C22       -10.6609    2.9162   -4.9448 C.ar      1 <0>        -0.1023
     27 C23       -10.8411    3.7487   -6.0335 C.ar      1 <0>        -0.1205
     28 C24       -11.2082    3.2180   -7.2560 C.ar      1 <0>        -0.0970
     29 C25       -11.3947    1.8549   -7.3899 C.ar      1 <0>        -0.1165
     30 C26       -11.2104    1.0219   -6.3021 C.ar      1 <0>        -0.0887
     31 C27        -9.1415   -0.8908   -2.8365 C.3       1 <0>        -0.0911
     32 C28       -10.0260   -2.0798   -3.1100 C.2       1 <0>         0.4892
     33 O3        -10.6309   -2.1597   -4.1656 O.co2     1 <0>        -0.6743
     34 O4        -10.1368   -2.9620   -2.2758 O.co2     1 <0>        -0.6395
     35 H1          1.3058    0.1311   -0.6017 H         1 <0>         0.0823
     36 H2         -0.3003    0.4095   -1.3167 H         1 <0>         0.0895
     37 H3         -0.1513    0.0284    0.4156 H         1 <0>         0.0936
     38 H4         -0.3463   -6.1653   -1.8552 H         1 <0>         0.1387
     39 H5          0.9335   -8.1926   -2.4047 H         1 <0>         0.1340
     40 H6          3.3858   -8.0971   -2.5728 H         1 <0>         0.1301
     41 H7          4.5728   -5.9764   -2.1914 H         1 <0>         0.1320
     42 H8          3.3111   -3.9352   -1.6515 H         1 <0>         0.1301
     43 H9         -3.0165   -2.6175   -0.3222 H         1 <0>         0.0980
     44 H10        -2.3531   -0.9938   -0.0190 H         1 <0>         0.0945
     45 H11        -2.3478   -0.5407   -2.4568 H         1 <0>         0.0653
     46 H12        -3.0113   -2.1643   -2.7601 H         1 <0>         0.0708
     47 H13        -3.3585   -0.7731   -4.2814 H         1 <0>         0.1346
     48 H14        -4.5684    0.0870   -6.2446 H         1 <0>         0.1351
     49 H15        -6.8478    0.9814   -5.9932 H         1 <0>         0.1313
     50 H16        -6.7222    0.1511   -1.8124 H         1 <0>         0.1407
     51 H17        -8.4332    1.6037   -2.7413 H         1 <0>         0.1296
     52 H18        -8.4869    1.9462   -4.4871 H         1 <0>         0.1322
     53 H19       -11.3769   -0.1673   -3.9317 H         1 <0>         0.1570
     54 H20       -10.7938    1.2139   -2.9722 H         1 <0>         0.1214
     55 H21       -10.3740    3.3308   -3.9897 H         1 <0>         0.1280
     56 H22       -10.6954    4.8137   -5.9290 H         1 <0>         0.1296
     57 H23       -11.3497    3.8685   -8.1065 H         1 <0>         0.1288
     58 H24       -11.6819    1.4403   -8.3449 H         1 <0>         0.1315
     59 H25       -11.3525   -0.0435   -6.4076 H         1 <0>         0.1401
     60 H26        -8.1025   -1.2157   -2.7824 H         1 <0>         0.1278
     61 H27        -9.4292   -0.4342   -1.8895 H         1 <0>         0.1229
     62 H28        -9.1308   -0.3605   -4.8070 H         1 <0>         0.4242
@<TRIPOS>BOND
     1    1    2 1
     2    1   35 1
     3    1   36 1
     4    1   37 1
     5    2    6 1
     6    2    3 2
     7    3    4 1
     8    3   13 1
     9    4    5 2
    10    5    6 1
    11    5    7 1
    12    7   12 ar
    13    7    8 ar
    14    8    9 ar
    15    8   38 1
    16    9   10 ar
    17    9   39 1
    18   10   11 ar
    19   10   40 1
    20   11   12 ar
    21   11   41 1
    22   12   42 1
    23   13   14 1
    24   13   43 1
    25   13   44 1
    26   14   15 1
    27   14   45 1
    28   14   46 1
    29   15   16 1
    30   16   21 ar
    31   16   17 ar
    32   17   18 ar
    33   17   47 1
    34   18   19 ar
    35   18   48 1
    36   19   20 ar
    37   19   49 1
    38   20   21 ar
    39   20   22 1
    40   21   50 1
    41   22   23 1
    42   22   51 1
    43   22   52 1
    44   23   24 1
    45   23   31 1
    46   23   62 1
    47   24   25 1
    48   24   53 1
    49   24   54 1
    50   25   30 ar
    51   25   26 ar
    52   26   27 ar
    53   26   55 1
    54   27   28 ar
    55   27   56 1
    56   28   29 ar
    57   28   57 1
    58   29   30 ar
    59   29   58 1
    60   30   59 1
    61   31   32 1
    62   31   60 1
    63   31   61 1
    64   32   33 2
    65   32   34 1
@<TRIPOS>MOLECULE
CHEMBL246473
   65    68     0     0     0
SMALL
USER_CHARGES

@<TRIPOS>ATOM
      1 C1          0.1879    0.5682   -0.8952 C.3       1 <0>        -0.0721
      2 C2          0.1551   -0.9204   -1.1274 C.2       1 <0>        -0.0323
      3 C3         -0.9381   -1.7048   -1.1223 C.2       1 <0>        -0.0114
      4 N1         -0.5425   -2.9628   -1.3688 N.2       1 <0>        -0.4613
      5 C4          0.7605   -2.9700   -1.5243 C.2       1 <0>         0.2375
      6 O1          1.2148   -1.7126   -1.3846 O.3       1 <0>        -0.1917
      7 C5          1.5889   -4.1602   -1.8112 C.ar      1 <0>        -0.0233
      8 C6          0.9913   -5.4144   -1.9453 C.ar      1 <0>        -0.0697
      9 C7          1.7702   -6.5211   -2.2136 C.ar      1 <0>        -0.1203
     10 C8          3.1407   -6.3897   -2.3497 C.ar      1 <0>        -0.0976
     11 C9          3.7394   -5.1494   -2.2175 C.ar      1 <0>        -0.1207
     12 C10         2.9714   -4.0338   -1.9549 C.ar      1 <0>        -0.0893
     13 C11        -2.3549   -1.2509   -0.8820 C.3       1 <0>        -0.0339
     14 C12        -3.0023   -0.8724   -2.2157 C.3       1 <0>         0.0657
     15 O2         -4.3457   -0.4421   -1.9878 O.3       1 <0>        -0.3075
     16 C13        -5.0668   -0.0675   -3.0772 C.ar      1 <0>         0.1403
     17 C14        -4.4948   -0.1186   -4.3403 C.ar      1 <0>        -0.1844
     18 C15        -5.2299    0.2622   -5.4459 C.ar      1 <0>        -0.0730
     19 C16        -6.5348    0.6942   -5.2948 C.ar      1 <0>        -0.1339
     20 C17        -7.1068    0.7465   -4.0373 C.ar      1 <0>        -0.1061
     21 C18        -6.3776    0.3612   -2.9288 C.ar      1 <0>        -0.1295
     22 C19        -8.5290    1.2182   -3.8762 C.3       1 <0>         0.0351
     23 N2         -9.4399    0.0699   -3.9738 N.4       1 <0>        -0.3580
     24 C20       -10.8301    0.5430   -3.9368 C.3       1 <0>        -0.0048
     25 C21       -11.1176    1.3792   -5.1855 C.3       1 <0>        -0.0969
     26 C22       -12.5775    1.7521   -5.2150 C.ar      1 <0>        -0.0942
     27 C23       -13.4907    0.9213   -5.8368 C.ar      1 <0>        -0.1036
     28 C24       -14.8297    1.2634   -5.8639 C.ar      1 <0>        -0.1157
     29 C25       -15.2557    2.4362   -5.2688 C.ar      1 <0>        -0.1129
     30 C26       -14.3426    3.2666   -4.6463 C.ar      1 <0>        -0.1197
     31 C27       -13.0041    2.9223   -4.6154 C.ar      1 <0>        -0.1130
     32 C28        -9.2023   -0.8408   -2.8459 C.3       1 <0>        -0.0902
     33 C29       -10.0178   -2.0944   -3.0321 C.2       1 <0>         0.4889
     34 O3        -10.6442   -2.2665   -4.0638 O.co2     1 <0>        -0.6736
     35 O4        -10.0511   -2.9364   -2.1509 O.co2     1 <0>        -0.6402
     36 H1          1.2156    0.9244   -0.9656 H         1 <0>         0.0823
     37 H2         -0.4220    1.0669   -1.6484 H         1 <0>         0.0895
     38 H3         -0.2063    0.7899    0.0966 H         1 <0>         0.0936
     39 H4         -0.0784   -5.5183   -1.8389 H         1 <0>         0.1387
     40 H5          1.3090   -7.4922   -2.3172 H         1 <0>         0.1340
     41 H6          3.7459   -7.2592   -2.5597 H         1 <0>         0.1302
     42 H7          4.8099   -5.0537   -2.3242 H         1 <0>         0.1320
     43 H8          3.4394   -3.0654   -1.8568 H         1 <0>         0.1301
     44 H9         -2.9217   -2.0588   -0.4193 H         1 <0>         0.0980
     45 H10        -2.3516   -0.3843   -0.2209 H         1 <0>         0.0945
     46 H11        -2.4355   -0.0645   -2.6784 H         1 <0>         0.0654
     47 H12        -3.0056   -1.7390   -2.8768 H         1 <0>         0.0709
     48 H13        -3.4756   -0.4556   -4.4588 H         1 <0>         0.1347
     49 H14        -4.7850    0.2229   -6.4292 H         1 <0>         0.1353
     50 H15        -7.1079    0.9915   -6.1606 H         1 <0>         0.1325
     51 H16        -6.8264    0.3980   -1.9472 H         1 <0>         0.1405
     52 H17        -8.6461    1.6931   -2.9021 H         1 <0>         0.1305
     53 H18        -8.7646    1.9367   -4.6614 H         1 <0>         0.1330
     54 H19       -11.5045   -0.3128   -3.9094 H         1 <0>         0.1521
     55 H20       -10.9823    1.1543   -3.0473 H         1 <0>         0.1163
     56 H21       -10.5116    2.2849   -5.1637 H         1 <0>         0.0865
     57 H22       -10.8727    0.7993   -6.0753 H         1 <0>         0.0933
     58 H23       -13.1579    0.0050   -6.3017 H         1 <0>         0.1287
     59 H24       -15.5431    0.6146   -6.3503 H         1 <0>         0.1264
     60 H25       -16.3017    2.7038   -5.2906 H         1 <0>         0.1244
     61 H26       -14.6753    4.1830   -4.1816 H         1 <0>         0.1244
     62 H27       -12.2913    3.5693   -4.1258 H         1 <0>         0.1218
     63 H28        -8.1441   -1.0986   -2.8037 H         1 <0>         0.1273
     64 H29        -9.4945   -0.3520   -1.9165 H         1 <0>         0.1219
     65 H30        -9.2737   -0.4184   -4.8411 H         1 <0>         0.4244
@<TRIPOS>BOND
     1    1    2 1
     2    1   36 1
     3    1   37 1
     4    1   38 1
     5    2    6 1
     6    2    3 2
     7    3    4 1
     8    3   13 1
     9    4    5 2
    10    5    6 1
    11    5    7 1
    12    7   12 ar
    13    7    8 ar
    14    8    9 ar
    15    8   39 1
    16    9   10 ar
    17    9   40 1
    18   10   11 ar
    19   10   41 1
    20   11   12 ar
    21   11   42 1
    22   12   43 1
    23   13   14 1
    24   13   44 1
    25   13   45 1
    26   14   15 1
    27   14   46 1
    28   14   47 1
    29   15   16 1
    30   16   21 ar
    31   16   17 ar
    32   17   18 ar
    33   17   48 1
    34   18   19 ar
    35   18   49 1
    36   19   20 ar
    37   19   50 1
    38   20   21 ar
    39   20   22 1
    40   21   51 1
    41   22   23 1
    42   22   52 1
    43   22   53 1
    44   23   24 1
    45   23   32 1
    46   23   65 1
    47   24   25 1
    48   24   54 1
    49   24   55 1
    50   25   26 1
    51   25   56 1
    52   25   57 1
    53   26   31 ar
    54   26   27 ar
    55   27   28 ar
    56   27   58 1
    57   28   29 ar
    58   28   59 1
    59   29   30 ar
    60   29   60 1
    61   30   31 ar
    62   30   61 1
    63   31   62 1
    64   32   33 1
    65   32   63 1
    66   32   64 1
    67   33   34 2
    68   33   35 1
@<TRIPOS>MOLECULE
CHEMBL246473__1
   64    67     0     0     0
SMALL
USER_CHARGES

@<TRIPOS>ATOM
      1 C1          0.3782    1.6285   -2.0670 C.3       1 <0>        -0.0705
      2 C2          0.4906    0.2000   -2.5337 C.2       1 <0>        -0.0351
      3 C3         -0.4846   -0.7265   -2.5084 C.2       1 <0>        -0.0037
      4 N1          0.0173   -1.8653   -3.0094 N.2       1 <0>        -0.4570
      5 C4          1.2707   -1.6617   -3.3400 C.2       1 <0>         0.2286
      6 O1          1.5850   -0.3852   -3.0592 O.3       1 <0>        -0.1940
      7 C5          2.1823   -2.6657   -3.9284 C.ar      1 <0>        -0.0169
      8 C6          1.7280   -3.9605   -4.1837 C.ar      1 <0>        -0.0699
      9 C7          2.5838   -4.8926   -4.7334 C.ar      1 <0>        -0.1199
     10 C8          3.8897   -4.5463   -5.0316 C.ar      1 <0>        -0.1014
     11 C9          4.3464   -3.2646   -4.7806 C.ar      1 <0>        -0.1221
     12 C10         3.4993   -2.3214   -4.2365 C.ar      1 <0>        -0.0912
     13 C11        -1.8906   -0.5217   -2.0062 C.3       1 <0>        -0.0364
     14 C12        -2.7806   -0.0524   -3.1588 C.3       1 <0>         0.0693
     15 O2         -4.1139    0.1418   -2.6826 O.3       1 <0>        -0.3136
     16 C13        -5.0372    0.5614   -3.5872 C.ar      1 <0>         0.1274
     17 C14        -4.6688    0.7761   -4.9076 C.ar      1 <0>        -0.2127
     18 C15        -5.6092    1.2020   -5.8252 C.ar      1 <0>        -0.0840
     19 C16        -6.9169    1.4145   -5.4290 C.ar      1 <0>        -0.1318
     20 C17        -7.2864    1.2017   -4.1139 C.ar      1 <0>        -0.0258
     21 C18        -6.3507    0.7702   -3.1934 C.ar      1 <0>        -0.1411
     22 C19        -8.7122    1.4348   -3.6854 C.3       1 <0>         0.0849
     23 N2         -9.4807    0.1930   -3.8450 N.3       1 <0>        -0.5018
     24 C20       -10.9181    0.4367   -3.6654 C.3       1 <0>         0.0754
     25 C21       -11.4772    1.1300   -4.9095 C.3       1 <0>        -0.0736
     26 C22       -12.9491    1.3917   -4.7199 C.ar      1 <0>        -0.0690
     27 C23       -13.8757    0.4426   -5.1092 C.ar      1 <0>        -0.1098
     28 C24       -15.2259    0.6827   -4.9353 C.ar      1 <0>        -0.1200
     29 C25       -15.6495    1.8717   -4.3717 C.ar      1 <0>        -0.1332
     30 C26       -14.7229    2.8205   -3.9816 C.ar      1 <0>        -0.1244
     31 C27       -13.3725    2.5786   -4.1515 C.ar      1 <0>        -0.1215
     32 C28        -9.0030   -0.8442   -2.9208 C.3       1 <0>        -0.0146
     33 C29        -9.5317   -2.1867   -3.3558 C.2       1 <0>         0.4966
     34 O3        -10.1496   -2.2888   -4.4018 O.co2     1 <0>        -0.6763
     35 O4         -9.3415   -3.1708   -2.6616 O.co2     1 <0>        -0.7102
     36 H1          1.3311    2.1360   -2.2175 H         1 <0>         0.0798
     37 H2         -0.3984    2.1373   -2.6381 H         1 <0>         0.0914
     38 H3          0.1207    1.6456   -1.0080 H         1 <0>         0.0929
     39 H4          0.7090   -4.2322   -3.9511 H         1 <0>         0.1402
     40 H5          2.2336   -5.8949   -4.9312 H         1 <0>         0.1333
     41 H6          4.5555   -5.2797   -5.4618 H         1 <0>         0.1282
     42 H7          5.3672   -3.0008   -5.0150 H         1 <0>         0.1301
     43 H8          3.8557   -1.3199   -4.0455 H         1 <0>         0.1295
     44 H9         -2.2752   -1.4612   -1.6094 H         1 <0>         0.0970
     45 H10        -1.8889    0.2318   -1.2185 H         1 <0>         0.0927
     46 H11        -2.3960    0.8871   -3.5556 H         1 <0>         0.0592
     47 H12        -2.7823   -0.8059   -3.9465 H         1 <0>         0.0657
     48 H13        -3.6475    0.6106   -5.2175 H         1 <0>         0.1207
     49 H14        -5.3228    1.3696   -6.8530 H         1 <0>         0.1211
     50 H15        -7.6507    1.7476   -6.1480 H         1 <0>         0.1238
     51 H16        -6.6408    0.5998   -2.1671 H         1 <0>         0.1276
     52 H17        -8.7318    1.7422   -2.6398 H         1 <0>         0.0340
     53 H18        -9.1539    2.2172   -4.3025 H         1 <0>         0.0799
     54 H19       -11.4319   -0.5131   -3.5170 H         1 <0>         0.0878
     55 H20       -11.0727    1.0733   -2.7943 H         1 <0>         0.0185
     56 H21       -10.9569    2.0754   -5.0632 H         1 <0>         0.0628
     57 H22       -11.3312    0.4892   -5.7791 H         1 <0>         0.0860
     58 H23       -13.5447   -0.4863   -5.5496 H         1 <0>         0.1278
     59 H24       -15.9498   -0.0585   -5.2401 H         1 <0>         0.1188
     60 H25       -16.7044    2.0596   -4.2365 H         1 <0>         0.1156
     61 H26       -15.0539    3.7496   -3.5415 H         1 <0>         0.1161
     62 H27       -12.6484    3.3182   -3.8433 H         1 <0>         0.1173
     63 H28        -7.9132   -0.8632   -2.9278 H         1 <0>         0.0767
     64 H29        -9.3561   -0.6237   -1.9134 H         1 <0>         0.0248
@<TRIPOS>BOND
     1    1    2 1
     2    1   36 1
     3    1   37 1
     4    1   38 1
     5    2    6 1
     6    2    3 2
     7    3    4 1
     8    3   13 1
     9    4    5 2
    10    5    6 1
    11    5    7 1
    12    7   12 ar
    13    7    8 ar
    14    8    9 ar
    15    8   39 1
    16    9   10 ar
    17    9   40 1
    18   10   11 ar
    19   10   41 1
    20   11   12 ar
    21   11   42 1
    22   12   43 1
    23   13   14 1
    24   13   44 1
    25   13   45 1
    26   14   15 1
    27   14   46 1
    28   14   47 1
    29   15   16 1
    30   16   21 ar
    31   16   17 ar
    32   17   18 ar
    33   17   48 1
    34   18   19 ar
    35   18   49 1
    36   19   20 ar
    37   19   50 1
    38   20   21 ar
    39   20   22 1
    40   21   51 1
    41   22   23 1
    42   22   52 1
    43   22   53 1
    44   23   24 1
    45   23   32 1
    46   24   25 1
    47   24   54 1
    48   24   55 1
    49   25   26 1
    50   25   56 1
    51   25   57 1
    52   26   31 ar
    53   26   27 ar
    54   27   28 ar
    55   27   58 1
    56   28   29 ar
    57   28   59 1
    58   29   30 ar
    59   29   60 1
    60   30   31 ar
    61   30   61 1
    62   31   62 1
    63   32   33 1
    64   32   63 1
    65   32   64 1
    66   33   34 2
    67   33   35 1
@<TRIPOS>MOLECULE
CHEMBL428748
   68    71     0     0     0
SMALL
USER_CHARGES

@<TRIPOS>ATOM
      1 C1          0.1879    0.5681   -0.8951 C.3       1 <0>        -0.0721
      2 C2          0.1551   -0.9205   -1.1274 C.2       1 <0>        -0.0322
      3 C3         -0.9381   -1.7048   -1.1223 C.2       1 <0>        -0.0115
      4 N1         -0.5425   -2.9628   -1.3687 N.2       1 <0>        -0.4613
      5 C4          0.7604   -2.9701   -1.5242 C.2       1 <0>         0.2375
      6 O1          1.2148   -1.7126   -1.3846 O.3       1 <0>        -0.1917
      7 C5          1.5889   -4.1603   -1.8112 C.ar      1 <0>        -0.0232
      8 C6          0.9913   -5.4144   -1.9453 C.ar      1 <0>        -0.0697
      9 C7          1.7701   -6.5211   -2.2135 C.ar      1 <0>        -0.1203
     10 C8          3.1407   -6.3897   -2.3496 C.ar      1 <0>        -0.0976
     11 C9          3.7394   -5.1495   -2.2174 C.ar      1 <0>        -0.1206
     12 C10         2.9714   -4.0339   -1.9549 C.ar      1 <0>        -0.0893
     13 C11        -2.3549   -1.2509   -0.8820 C.3       1 <0>        -0.0339
     14 C12        -3.0023   -0.8724   -2.2156 C.3       1 <0>         0.0657
     15 O2         -4.3457   -0.4421   -1.9878 O.3       1 <0>        -0.3075
     16 C13        -5.0668   -0.0675   -3.0771 C.ar      1 <0>         0.1402
     17 C14        -4.4948   -0.1187   -4.3402 C.ar      1 <0>        -0.1844
     18 C15        -5.2298    0.2622   -5.4459 C.ar      1 <0>        -0.0730
     19 C16        -6.5348    0.6942   -5.2948 C.ar      1 <0>        -0.1338
     20 C17        -7.1068    0.7465   -4.0373 C.ar      1 <0>        -0.1061
     21 C18        -6.3776    0.3612   -2.9288 C.ar      1 <0>        -0.1296
     22 C19        -8.5290    1.2182   -3.8762 C.3       1 <0>         0.0358
     23 N2         -9.4398    0.0699   -3.9738 N.4       1 <0>        -0.3576
     24 C20       -10.8301    0.5430   -3.9368 C.3       1 <0>        -0.0098
     25 C21       -11.1176    1.3792   -5.1855 C.3       1 <0>        -0.1355
     26 C22       -12.5997    1.7579   -5.2155 C.3       1 <0>        -0.0759
     27 C23       -12.8830    2.5814   -6.4453 C.ar      1 <0>        -0.0884
     28 C24       -12.7645    3.9579   -6.3978 C.ar      1 <0>        -0.1174
     29 C25       -13.0243    4.7133   -7.5259 C.ar      1 <0>        -0.1189
     30 C26       -13.4021    4.0923   -8.7017 C.ar      1 <0>        -0.1207
     31 C27       -13.5197    2.7158   -8.7495 C.ar      1 <0>        -0.1168
     32 C28       -13.2557    1.9600   -7.6225 C.ar      1 <0>        -0.1141
     33 C29        -9.2023   -0.8408   -2.8459 C.3       1 <0>        -0.0903
     34 C30       -10.0178   -2.0944   -3.0321 C.2       1 <0>         0.4889
     35 O3        -10.6442   -2.2665   -4.0638 O.co2     1 <0>        -0.6740
     36 O4        -10.0511   -2.9364   -2.1510 O.co2     1 <0>        -0.6402
     37 H1          1.2156    0.9243   -0.9656 H         1 <0>         0.0824
     38 H2         -0.4220    1.0669   -1.6484 H         1 <0>         0.0895
     39 H3         -0.2063    0.7899    0.0966 H         1 <0>         0.0936
     40 H4         -0.0784   -5.5184   -1.8389 H         1 <0>         0.1387
     41 H5          1.3090   -7.4922   -2.3172 H         1 <0>         0.1340
     42 H6          3.7459   -7.2592   -2.5596 H         1 <0>         0.1302
     43 H7          4.8099   -5.0538   -2.3241 H         1 <0>         0.1320
     44 H8          3.4394   -3.0655   -1.8567 H         1 <0>         0.1301
     45 H9         -2.9217   -2.0589   -0.4193 H         1 <0>         0.0980
     46 H10        -2.3516   -0.3844   -0.2208 H         1 <0>         0.0945
     47 H11        -2.4355   -0.0645   -2.6783 H         1 <0>         0.0654
     48 H12        -3.0055   -1.7390   -2.8768 H         1 <0>         0.0709
     49 H13        -3.4756   -0.4556   -4.4587 H         1 <0>         0.1347
     50 H14        -4.7850    0.2228   -6.4292 H         1 <0>         0.1352
     51 H15        -7.1079    0.9915   -6.1605 H         1 <0>         0.1321
     52 H16        -6.8264    0.3980   -1.9471 H         1 <0>         0.1405
     53 H17        -8.6461    1.6931   -2.9021 H         1 <0>         0.1301
     54 H18        -8.7646    1.9367   -4.6613 H         1 <0>         0.1329
     55 H19       -11.5045   -0.3128   -3.9094 H         1 <0>         0.1512
     56 H20       -10.9823    1.1543   -3.0473 H         1 <0>         0.1157
     57 H21       -10.5116    2.2849   -5.1637 H         1 <0>         0.0790
     58 H22       -10.8727    0.7994   -6.0753 H         1 <0>         0.0859
     59 H23       -13.2058    0.8521   -5.2372 H         1 <0>         0.0863
     60 H24       -12.8447    2.3377   -4.3256 H         1 <0>         0.0803
     61 H25       -12.4693    4.4431   -5.4792 H         1 <0>         0.1208
     62 H26       -12.9325    5.7888   -7.4886 H         1 <0>         0.1222
     63 H27       -13.6058    4.6826   -9.5829 H         1 <0>         0.1222
     64 H28       -13.8152    2.2306   -9.6680 H         1 <0>         0.1235
     65 H29       -13.3440    0.8843   -7.6609 H         1 <0>         0.1246
     66 H30        -8.1441   -1.0986   -2.8037 H         1 <0>         0.1267
     67 H31        -9.4945   -0.3520   -1.9165 H         1 <0>         0.1220
     68 H32        -9.2737   -0.4184   -4.8411 H         1 <0>         0.4245
@<TRIPOS>BOND
     1    1    2 1
     2    1   37 1
     3    1   38 1
     4    1   39 1
     5    2    6 1
     6    2    3 2
     7    3    4 1
     8    3   13 1
     9    4    5 2
    10    5    6 1
    11    5    7 1
    12    7   12 ar
    13    7    8 ar
    14    8    9 ar
    15    8   40 1
    16    9   10 ar
    17    9   41 1
    18   10   11 ar
    19   10   42 1
    20   11   12 ar
    21   11   43 1
    22   12   44 1
    23   13   14 1
    24   13   45 1
    25   13   46 1
    26   14   15 1
    27   14   47 1
    28   14   48 1
    29   15   16 1
    30   16   21 ar
    31   16   17 ar
    32   17   18 ar
    33   17   49 1
    34   18   19 ar
    35   18   50 1
    36   19   20 ar
    37   19   51 1
    38   20   21 ar
    39   20   22 1
    40   21   52 1
    41   22   23 1
    42   22   53 1
    43   22   54 1
    44   23   24 1
    45   23   33 1
    46   23   68 1
    47   24   25 1
    48   24   55 1
    49   24   56 1
    50   25   26 1
    51   25   57 1
    52   25   58 1
    53   26   27 1
    54   26   59 1
    55   26   60 1
    56   27   32 ar
    57   27   28 ar
    58   28   29 ar
    59   28   61 1
    60   29   30 ar
    61   29   62 1
    62   30   31 ar
    63   30   63 1
    64   31   32 ar
    65   31   64 1
    66   32   65 1
    67   33   34 1
    68   33   66 1
    69   33   67 1
    70   34   35 2
    71   34   36 1
@<TRIPOS>MOLECULE
CHEMBL584704
   73    76     0     0     0
SMALL
USER_CHARGES

@<TRIPOS>ATOM
      1 C1          1.1497    3.5002   -1.0234 C.3       1 <0>        -0.1526
      2 C2          0.9543    1.9979   -1.2374 C.3       1 <0>        -0.1184
      3 C3          1.4014    1.2419    0.0154 C.3       1 <0>        -0.0461
      4 C4          1.2088   -0.2379   -0.1954 C.2       1 <0>         0.2863
      5 N1          0.1240   -0.8966    0.0912 N.2       1 <0>        -0.4823
      6 C5          0.2894   -2.2072   -0.2233 C.ar      1 <0>         0.0484
      7 C6         -0.5330   -3.3328   -0.1259 C.ar      1 <0>        -0.0282
      8 C7         -0.0705   -4.5511   -0.5354 C.ar      1 <0>        -0.1325
      9 C8          1.2118   -4.6855   -1.0489 C.ar      1 <0>        -0.0937
     10 C9          2.0406   -3.5889   -1.1543 C.ar      1 <0>        -0.1193
     11 C10         1.5875   -2.3425   -0.7435 C.ar      1 <0>         0.0506
     12 N2          2.1419   -1.0784   -0.7183 N.pl3     1 <0>        -0.4868
     13 C11         3.4868   -0.7109   -1.1682 C.3       1 <0>         0.1145
     14 C12         4.4675   -0.8378   -0.0008 C.3       1 <0>         0.0455
     15 O1          5.7794   -0.4794   -0.4396 O.3       1 <0>        -0.3103
     16 C13         6.7760   -0.5385    0.4824 C.ar      1 <0>         0.1322
     17 C14         6.4981   -0.9390    1.7813 C.ar      1 <0>        -0.2072
     18 C15         7.5131   -0.9987    2.7165 C.ar      1 <0>        -0.0704
     19 C16         8.8049   -0.6594    2.3591 C.ar      1 <0>        -0.1183
     20 C17         9.0844   -0.2595    1.0654 C.ar      1 <0>        -0.0543
     21 C18         8.0741   -0.2041    0.1248 C.ar      1 <0>        -0.1470
     22 C19         9.9101   -0.7250    3.3815 C.3       1 <0>        -0.0623
     23 C20        10.5426   -2.1180    3.3602 C.3       1 <0>         0.1400
     24 C21         9.4558   -3.1747    3.5679 C.3       1 <0>        -0.1895
     25 C22        11.5632   -2.2233    4.4640 C.2       1 <0>         0.4463
     26 O2         11.2520   -2.6965    5.5313 O.2       1 <0>        -0.4963
     27 O3         12.8178   -1.7913    4.2614 O.3       1 <0>        -0.3363
     28 C23        13.7327   -1.9218    5.3513 C.3       1 <0>         0.0571
     29 C24        15.1019   -1.3803    4.9355 C.3       1 <0>        -0.1517
     30 O4         11.1806   -2.3322    2.0996 O.3       1 <0>        -0.2822
     31 C25        11.8572   -3.5001    1.9411 C.ar      1 <0>         0.1326
     32 C26        11.9446   -4.4007    2.9927 C.ar      1 <0>        -0.2253
     33 C27        12.6326   -5.5874    2.8289 C.ar      1 <0>        -0.0774
     34 C28        13.2343   -5.8776    1.6184 C.ar      1 <0>        -0.1547
     35 C29        13.1491   -4.9815    0.5689 C.ar      1 <0>        -0.0786
     36 C30        12.4570   -3.7962    0.7257 C.ar      1 <0>        -0.1452
     37 C31        -1.9275   -3.2029    0.4305 C.3       1 <0>        -0.1113
     38 H1          2.2028    3.7058   -0.8313 H         1 <0>         0.0562
     39 H2          0.8312    4.0388   -1.9159 H         1 <0>         0.0602
     40 H3          0.5544    3.8262   -0.1705 H         1 <0>         0.0595
     41 H4         -0.0988    1.7922   -1.4294 H         1 <0>         0.0731
     42 H5          1.5496    1.6719   -2.0903 H         1 <0>         0.0616
     43 H6          2.4544    1.4475    0.2075 H         1 <0>         0.0829
     44 H7          0.8060    1.5678    0.8683 H         1 <0>         0.1031
     45 H8         -0.7091   -5.4187   -0.4585 H         1 <0>         0.1300
     46 H9          1.5629   -5.6558   -1.3677 H         1 <0>         0.1310
     47 H10         3.0375   -3.6989   -1.5549 H         1 <0>         0.1208
     48 H11         3.7944   -1.3761   -1.9751 H         1 <0>         0.1036
     49 H12         3.4811    0.3180   -1.5278 H         1 <0>         0.1074
     50 H13         4.1599   -0.1727    0.8061 H         1 <0>         0.0702
     51 H14         4.4732   -1.8668    0.3588 H         1 <0>         0.0703
     52 H15         5.4891   -1.2034    2.0611 H         1 <0>         0.1265
     53 H16         7.2973   -1.3104    3.7278 H         1 <0>         0.1271
     54 H17        10.0942    0.0053    0.7887 H         1 <0>         0.1348
     55 H18         8.2937    0.1041   -0.8867 H         1 <0>         0.1335
     56 H19        10.6682    0.0219    3.1455 H         1 <0>         0.0970
     57 H20         9.5009   -0.5269    4.3721 H         1 <0>         0.1011
     58 H21         8.6703   -3.0391    2.8245 H         1 <0>         0.0916
     59 H22         9.8902   -4.1686    3.4603 H         1 <0>         0.0822
     60 H23         9.0328   -3.0693    4.5669 H         1 <0>         0.0888
     61 H24        13.3626   -1.3559    6.2062 H         1 <0>         0.0695
     62 H25        13.8254   -2.9731    5.6241 H         1 <0>         0.0684
     63 H26        15.4721   -1.9462    4.0806 H         1 <0>         0.0677
     64 H27        15.0093   -0.3291    4.6627 H         1 <0>         0.0679
     65 H28        15.7998   -1.4798    5.7668 H         1 <0>         0.0813
     66 H29        11.4753   -4.1742    3.9387 H         1 <0>         0.1334
     67 H30        12.7008   -6.2888    3.6473 H         1 <0>         0.1242
     68 H31        13.7720   -6.8057    1.4924 H         1 <0>         0.1251
     69 H32        13.6202   -5.2103   -0.3756 H         1 <0>         0.1312
     70 H33        12.3870   -3.0985   -0.0958 H         1 <0>         0.1328
     71 H34        -2.6239   -2.9902   -0.3806 H         1 <0>         0.0716
     72 H35        -2.2121   -4.1349    0.9188 H         1 <0>         0.0669
     73 H36        -1.9551   -2.3896    1.1556 H         1 <0>         0.0721
@<TRIPOS>BOND
     1    1    2 1
     2    1   38 1
     3    1   39 1
     4    1   40 1
     5    2    3 1
     6    2   41 1
     7    2   42 1
     8    3    4 1
     9    3   43 1
    10    3   44 1
    11    4   12 1
    12    4    5 2
    13    5    6 1
    14    6   11 ar
    15    6    7 ar
    16    7    8 ar
    17    7   37 1
    18    8    9 ar
    19    8   45 1
    20    9   10 ar
    21    9   46 1
    22   10   11 ar
    23   10   47 1
    24   11   12 1
    25   12   13 1
    26   13   14 1
    27   13   48 1
    28   13   49 1
    29   14   15 1
    30   14   50 1
    31   14   51 1
    32   15   16 1
    33   16   21 ar
    34   16   17 ar
    35   17   18 ar
    36   17   52 1
    37   18   19 ar
    38   18   53 1
    39   19   20 ar
    40   19   22 1
    41   20   21 ar
    42   20   54 1
    43   21   55 1
    44   22   23 1
    45   22   56 1
    46   22   57 1
    47   23   24 1
    48   23   25 1
    49   23   30 1
    50   24   58 1
    51   24   59 1
    52   24   60 1
    53   25   26 2
    54   25   27 1
    55   27   28 1
    56   28   29 1
    57   28   61 1
    58   28   62 1
    59   29   63 1
    60   29   64 1
    61   29   65 1
    62   30   31 1
    63   31   36 ar
    64   31   32 ar
    65   32   33 ar
    66   32   66 1
    67   33   34 ar
    68   33   67 1
    69   34   35 ar
    70   34   68 1
    71   35   36 ar
    72   35   69 1
    73   36   70 1
    74   37   71 1
    75   37   72 1
    76   37   73 1
@<TRIPOS>MOLECULE
CHEMBL584704__1
   74    77     0     0     0
SMALL
USER_CHARGES

@<TRIPOS>ATOM
      1 C1         -0.6966    2.9656    0.9752 C.3       1 <0>        -0.1578
      2 C2         -0.4433    1.4672    1.1531 C.3       1 <0>        -0.1243
      3 C3          0.1460    1.2109    2.5416 C.3       1 <0>        -0.0885
      4 C4          0.3954   -0.2649    2.7168 C.cat     1 <0>         0.3970
      5 N1          1.4682   -0.8907    2.3290 N.pl3     1 <0>        -0.4850
      6 C5          1.3659   -2.2083    2.6408 C.ar      1 <0>         0.0431
      7 C6          2.2062   -3.3099    2.4585 C.ar      1 <0>        -0.0353
      8 C7          1.8138   -4.5444    2.8918 C.ar      1 <0>        -0.0861
      9 C8          0.5852   -4.7191    3.5132 C.ar      1 <0>        -0.0566
     10 C9         -0.2600   -3.6469    3.7037 C.ar      1 <0>        -0.0977
     11 C10         0.1221   -2.3845    3.2702 C.ar      1 <0>         0.0838
     12 N2         -0.4657   -1.1360    3.3087 N.pl3     1 <0>        -0.4270
     13 C11        -1.7755   -0.8101    3.8783 C.3       1 <0>         0.0985
     14 C12        -2.8507   -0.9525    2.7992 C.3       1 <0>         0.0412
     15 O1         -4.1283   -0.6346    3.3548 O.3       1 <0>        -0.3056
     16 C13        -5.1997   -0.7121    2.5224 C.ar      1 <0>         0.1212
     17 C14        -5.0257   -1.0920    1.1995 C.ar      1 <0>        -0.2065
     18 C15        -6.1165   -1.1706    0.3554 C.ar      1 <0>        -0.0714
     19 C16        -7.3808   -0.8705    0.8280 C.ar      1 <0>        -0.1059
     20 C17        -7.5568   -0.4912    2.1459 C.ar      1 <0>        -0.0519
     21 C18        -6.4700   -0.4171    2.9955 C.ar      1 <0>        -0.1394
     22 C19        -8.5689   -0.9565   -0.0951 C.3       1 <0>        -0.0665
     23 C20        -9.1598   -2.3665   -0.0358 C.3       1 <0>         0.1400
     24 C21        -8.0676   -3.3908   -0.3501 C.3       1 <0>        -0.1891
     25 C22       -10.2696   -2.4891   -1.0479 C.2       1 <0>         0.4451
     26 O2        -10.0404   -2.9430   -2.1439 O.2       1 <0>        -0.4955
     27 O3        -11.5129   -2.0938   -0.7317 O.3       1 <0>        -0.3359
     28 C23       -12.5157   -2.2388   -1.7394 C.3       1 <0>         0.0575
     29 C24       -13.8572   -1.7393   -1.1994 C.3       1 <0>        -0.1523
     30 O4         -9.6793   -2.6106    1.2728 O.3       1 <0>        -0.2840
     31 C25       -10.3083   -3.7981    1.4753 C.ar      1 <0>         0.1299
     32 C26       -10.4631   -4.6905    0.4245 C.ar      1 <0>        -0.2252
     33 C27       -11.1024   -5.8972    0.6330 C.ar      1 <0>        -0.0767
     34 C28       -11.5882   -6.2158    1.8877 C.ar      1 <0>        -0.1522
     35 C29       -11.4356   -5.3279    2.9366 C.ar      1 <0>        -0.0780
     36 C30       -10.7916   -4.1226    2.7347 C.ar      1 <0>        -0.1449
     37 C31         3.5429   -3.1362    1.7845 C.3       1 <0>        -0.1310
     38 H1          0.2437    3.5076    1.0766 H         1 <0>         0.0669
     39 H2         -1.1164    3.1482   -0.0140 H         1 <0>         0.0736
     40 H3         -1.3975    3.3085    1.7363 H         1 <0>         0.0665
     41 H4         -1.3836    0.9253    1.0518 H         1 <0>         0.0746
     42 H5          0.2575    1.1243    0.3920 H         1 <0>         0.0777
     43 H6          1.0862    1.7529    2.6429 H         1 <0>         0.1305
     44 H7         -0.5549    1.5538    3.3027 H         1 <0>         0.1267
     45 H8          2.4660   -5.3933    2.7491 H         1 <0>         0.1569
     46 H9          0.2892   -5.7017    3.8495 H         1 <0>         0.1583
     47 H10        -1.2149   -3.7881    4.1881 H         1 <0>         0.1515
     48 H11        -1.9937   -1.4913    4.7008 H         1 <0>         0.1342
     49 H12        -1.7658    0.2151    4.2485 H         1 <0>         0.1314
     50 H13        -2.6325   -0.2712    1.9767 H         1 <0>         0.0753
     51 H14        -2.8604   -1.9777    2.4290 H         1 <0>         0.0771
     52 H15        -4.0383   -1.3259    0.8297 H         1 <0>         0.1226
     53 H16        -5.9816   -1.4663   -0.6745 H         1 <0>         0.1295
     54 H17        -8.5453   -0.2569    2.5125 H         1 <0>         0.1393
     55 H18        -6.6086   -0.1251    4.0260 H         1 <0>         0.1361
     56 H19        -9.3230   -0.2331    0.2149 H         1 <0>         0.0999
     57 H20        -8.2531   -0.7375   -1.1151 H         1 <0>         0.1029
     58 H21        -7.2241   -3.2409    0.3237 H         1 <0>         0.0882
     59 H22        -8.4643   -4.3973   -0.2172 H         1 <0>         0.0840
     60 H23        -7.7363   -3.2640   -1.3808 H         1 <0>         0.0888
     61 H24       -12.2367   -1.6546   -2.6163 H         1 <0>         0.0702
     62 H25       -12.6037   -3.2895   -2.0158 H         1 <0>         0.0693
     63 H26       -13.7692   -0.6886   -0.9229 H         1 <0>         0.0682
     64 H27       -14.6221   -1.8499   -1.9680 H         1 <0>         0.0829
     65 H28       -14.1362   -2.3236   -0.3225 H         1 <0>         0.0681
     66 H29       -10.0845   -4.4418   -0.5559 H         1 <0>         0.1329
     67 H30       -11.2232   -6.5922   -0.1848 H         1 <0>         0.1253
     68 H31       -12.0880   -7.1595    2.0487 H         1 <0>         0.1267
     69 H32       -11.8162   -5.5789    3.9157 H         1 <0>         0.1323
     70 H33       -10.6687   -3.4313    3.5553 H         1 <0>         0.1325
     71 H34         4.3015   -2.9123    2.5345 H         1 <0>         0.0908
     72 H35         3.8085   -4.0551    1.2620 H         1 <0>         0.0935
     73 H36         3.4854   -2.3154    1.0696 H         1 <0>         0.0678
     74 H37         2.2257   -0.4787    1.8848 H         1 <0>         0.4603
@<TRIPOS>BOND
     1    1    2 1
     2    1   38 1
     3    1   39 1
     4    1   40 1
     5    2    3 1
     6    2   41 1
     7    2   42 1
     8    3    4 1
     9    3   43 1
    10    3   44 1
    11    4   12 1
    12    4    5 2
    13    5    6 1
    14    5   74 1
    15    6   11 ar
    16    6    7 ar
    17    7    8 ar
    18    7   37 1
    19    8    9 ar
    20    8   45 1
    21    9   10 ar
    22    9   46 1
    23   10   11 ar
    24   10   47 1
    25   11   12 1
    26   12   13 1
    27   13   14 1
    28   13   48 1
    29   13   49 1
    30   14   15 1
    31   14   50 1
    32   14   51 1
    33   15   16 1
    34   16   21 ar
    35   16   17 ar
    36   17   18 ar
    37   17   52 1
    38   18   19 ar
    39   18   53 1
    40   19   20 ar
    41   19   22 1
    42   20   21 ar
    43   20   54 1
    44   21   55 1
    45   22   23 1
    46   22   56 1
    47   22   57 1
    48   23   24 1
    49   23   25 1
    50   23   30 1
    51   24   58 1
    52   24   59 1
    53   24   60 1
    54   25   26 2
    55   25   27 1
    56   27   28 1
    57   28   29 1
    58   28   61 1
    59   28   62 1
    60   29   63 1
    61   29   64 1
    62   29   65 1
    63   30   31 1
    64   31   36 ar
    65   31   32 ar
    66   32   33 ar
    67   32   66 1
    68   33   34 ar
    69   33   67 1
    70   34   35 ar
    71   34   68 1
    72   35   36 ar
    73   35   69 1
    74   36   70 1
    75   37   71 1
    76   37   72 1
    77   37   73 1
@<TRIPOS>MOLECULE
CHEMBL584704__2
   73    76     0     0     0
SMALL
USER_CHARGES

@<TRIPOS>ATOM
      1 C1          0.4241    2.5598   -0.0187 C.3       1 <0>        -0.1526
      2 C2          0.3087    1.0353   -0.0771 C.3       1 <0>        -0.1182
      3 C3          0.9810    0.4254    1.1546 C.3       1 <0>        -0.0462
      4 C4          0.8674   -1.0762    1.0971 C.2       1 <0>         0.2866
      5 N1         -0.1161   -1.7688    1.5930 N.2       1 <0>        -0.4825
      6 C5          0.0969   -3.0907    1.3668 C.ar      1 <0>         0.0487
      7 C6         -0.6206   -4.2492    1.6763 C.ar      1 <0>        -0.0282
      8 C7         -0.1342   -5.4705    1.3052 C.ar      1 <0>        -0.1326
      9 C8          1.0692   -5.5755    0.6220 C.ar      1 <0>        -0.0939
     10 C9          1.7940   -4.4462    0.3061 C.ar      1 <0>        -0.1192
     11 C10         1.3151   -3.1963    0.6747 C.ar      1 <0>         0.0507
     12 N2          1.7753   -1.9047    0.5140 N.pl3     1 <0>        -0.4866
     13 C11         3.0135   -1.5012   -0.1570 C.3       1 <0>         0.1145
     14 C12         4.1555   -1.4620    0.8603 C.3       1 <0>         0.0463
     15 O1          5.3633   -1.0685    0.2058 O.3       1 <0>        -0.3104
     16 C13         6.4816   -0.9836    0.9733 C.ar      1 <0>         0.1334
     17 C14         6.4190   -1.2786    2.3274 C.ar      1 <0>        -0.2022
     18 C15         7.5573   -1.1920    3.1053 C.ar      1 <0>        -0.0669
     19 C16         8.7582   -0.8112    2.5356 C.ar      1 <0>        -0.1244
     20 C17         8.8231   -0.5162    1.1863 C.ar      1 <0>        -0.0496
     21 C18         7.6889   -0.6073    0.4028 C.ar      1 <0>        -0.1456
     22 C19         9.9983   -0.7171    3.3866 C.3       1 <0>        -0.0636
     23 C20        10.7197   -2.0663    3.3877 C.3       1 <0>         0.1367
     24 C21        11.9084   -2.0083    4.3492 C.3       1 <0>        -0.1862
     25 C22         9.7663   -3.1454    3.8322 C.2       1 <0>         0.4503
     26 O2          9.7372   -3.4860    4.9912 O.2       1 <0>        -0.5022
     27 O3          8.9495   -3.7283    2.9407 O.3       1 <0>        -0.3252
     28 C23         8.0719   -4.7435    3.4318 C.3       1 <0>         0.0588
     29 C24         7.2249   -5.2867    2.2792 C.3       1 <0>        -0.1486
     30 O4         11.1873   -2.3575    2.0692 O.3       1 <0>        -0.2828
     31 C25        11.8342   -3.5393    1.8908 C.ar      1 <0>         0.1322
     32 C26        11.9081   -4.4547    2.9307 C.ar      1 <0>        -0.2235
     33 C27        12.5657   -5.6556    2.7467 C.ar      1 <0>        -0.0778
     34 C28        13.1504   -5.9453    1.5277 C.ar      1 <0>        -0.1543
     35 C29        13.0785   -5.0345    0.4900 C.ar      1 <0>        -0.0790
     36 C30        12.4167   -3.8348    0.6669 C.ar      1 <0>        -0.1452
     37 C31        -1.9285   -4.1514    2.4186 C.3       1 <0>        -0.1114
     38 H1          1.4762    2.8441   -0.0008 H         1 <0>         0.0562
     39 H2         -0.0549    2.9943   -0.8961 H         1 <0>         0.0603
     40 H3         -0.0669    2.9271    0.8825 H         1 <0>         0.0594
     41 H4         -0.7434    0.7509   -0.0949 H         1 <0>         0.0731
     42 H5          0.7997    0.6680   -0.9782 H         1 <0>         0.0616
     43 H6          2.0331    0.7098    1.1725 H         1 <0>         0.0829
     44 H7          0.4900    0.7927    2.0558 H         1 <0>         0.1031
     45 H8         -0.6916   -6.3636    1.5462 H         1 <0>         0.1298
     46 H9          1.4406   -6.5485    0.3363 H         1 <0>         0.1308
     47 H10         2.7298   -4.5334   -0.2260 H         1 <0>         0.1207
     48 H11         3.2512   -2.2184   -0.9427 H         1 <0>         0.1036
     49 H12         2.8834   -0.5118   -0.5955 H         1 <0>         0.1073
     50 H13         3.9178   -0.7449    1.6460 H         1 <0>         0.0692
     51 H14         4.2857   -2.4514    1.2988 H         1 <0>         0.0690
     52 H15         5.4811   -1.5754    2.7731 H         1 <0>         0.1232
     53 H16         7.5091   -1.4216    4.1596 H         1 <0>         0.1161
     54 H17         9.7622   -0.2187    0.7436 H         1 <0>         0.1334
     55 H18         7.7411   -0.3810   -0.6519 H         1 <0>         0.1323
     56 H19        10.6599    0.0484    2.9813 H         1 <0>         0.1064
     57 H20         9.7196   -0.4533    4.4069 H         1 <0>         0.1018
     58 H21        11.5617   -1.7074    5.3378 H         1 <0>         0.0892
     59 H22        12.3740   -2.9919    4.4112 H         1 <0>         0.0836
     60 H23        12.6365   -1.2841    3.9836 H         1 <0>         0.0890
     61 H24         8.6593   -5.5536    3.8641 H         1 <0>         0.0664
     62 H25         7.4185   -4.3210    4.1951 H         1 <0>         0.0657
     63 H26         6.6375   -4.4766    1.8468 H         1 <0>         0.0639
     64 H27         7.8782   -5.7092    1.5159 H         1 <0>         0.0672
     65 H28         6.5555   -6.0611    2.6537 H         1 <0>         0.0793
     66 H29        11.4522   -4.2285    3.8832 H         1 <0>         0.1326
     67 H30        12.6236   -6.3685    3.5559 H         1 <0>         0.1241
     68 H31        13.6644   -6.8845    1.3860 H         1 <0>         0.1251
     69 H32        13.5363   -5.2630   -0.4612 H         1 <0>         0.1311
     70 H33        12.3570   -3.1256   -0.1454 H         1 <0>         0.1327
     71 H34        -2.7457   -4.0557    1.7037 H         1 <0>         0.0717
     72 H35        -2.0738   -5.0497    3.0185 H         1 <0>         0.0669
     73 H36        -1.9118   -3.2779    3.0704 H         1 <0>         0.0721
@<TRIPOS>BOND
     1    1    2 1
     2    1   38 1
     3    1   39 1
     4    1   40 1
     5    2    3 1
     6    2   41 1
     7    2   42 1
     8    3    4 1
     9    3   43 1
    10    3   44 1
    11    4   12 1
    12    4    5 2
    13    5    6 1
    14    6   11 ar
    15    6    7 ar
    16    7    8 ar
    17    7   37 1
    18    8    9 ar
    19    8   45 1
    20    9   10 ar
    21    9   46 1
    22   10   11 ar
    23   10   47 1
    24   11   12 1
    25   12   13 1
    26   13   14 1
    27   13   48 1
    28   13   49 1
    29   14   15 1
    30   14   50 1
    31   14   51 1
    32   15   16 1
    33   16   21 ar
    34   16   17 ar
    35   17   18 ar
    36   17   52 1
    37   18   19 ar
    38   18   53 1
    39   19   20 ar
    40   19   22 1
    41   20   21 ar
    42   20   54 1
    43   21   55 1
    44   22   23 1
    45   22   56 1
    46   22   57 1
    47   23   24 1
    48   23   25 1
    49   23   30 1
    50   24   58 1
    51   24   59 1
    52   24   60 1
    53   25   26 2
    54   25   27 1
    55   27   28 1
    56   28   29 1
    57   28   61 1
    58   28   62 1
    59   29   63 1
    60   29   64 1
    61   29   65 1
    62   30   31 1
    63   31   36 ar
    64   31   32 ar
    65   32   33 ar
    66   32   66 1
    67   33   34 ar
    68   33   67 1
    69   34   35 ar
    70   34   68 1
    71   35   36 ar
    72   35   69 1
    73   36   70 1
    74   37   71 1
    75   37   72 1
    76   37   73 1
@<TRIPOS>MOLECULE
CHEMBL584704__3
   74    77     0     0     0
SMALL
USER_CHARGES

@<TRIPOS>ATOM
      1 C1         -0.4354    2.3468    0.0681 C.3       1 <0>        -0.1577
      2 C2         -0.2749    0.8256    0.0977 C.3       1 <0>        -0.1244
      3 C3          0.4868    0.4176    1.3603 C.3       1 <0>        -0.0885
      4 C4          0.6449   -1.0808    1.3895 C.cat     1 <0>         0.3971
      5 N1          1.5994   -1.7412    0.8015 N.pl3     1 <0>        -0.4851
      6 C5          1.4422   -3.0706    1.0293 C.ar      1 <0>         0.0431
      7 C6          2.1605   -4.2058    0.6445 C.ar      1 <0>        -0.0351
      8 C7          1.7410   -5.4437    1.0416 C.ar      1 <0>        -0.0863
      9 C8          0.6050   -5.5884    1.8255 C.ar      1 <0>        -0.0568
     10 C9         -0.1192   -4.4827    2.2170 C.ar      1 <0>        -0.0977
     11 C10         0.2923   -3.2165    1.8234 C.ar      1 <0>         0.0839
     12 N2         -0.1863   -1.9397    2.0392 N.pl3     1 <0>        -0.4269
     13 C11        -1.3714   -1.5771    2.8203 C.3       1 <0>         0.0985
     14 C12        -2.5986   -1.5594    1.9067 C.3       1 <0>         0.0417
     15 O1         -3.7546   -1.2057    2.6686 O.3       1 <0>        -0.3055
     16 C13        -4.9375   -1.1441    2.0024 C.ar      1 <0>         0.1225
     17 C14        -4.9856   -1.4241    0.6444 C.ar      1 <0>        -0.2014
     18 C15        -6.1893   -1.3612   -0.0304 C.ar      1 <0>        -0.0678
     19 C16        -7.3456   -1.0192    0.6463 C.ar      1 <0>        -0.1123
     20 C17        -7.3003   -0.7394    1.9995 C.ar      1 <0>        -0.0471
     21 C18        -6.1000   -0.8068    2.6802 C.ar      1 <0>        -0.1381
     22 C19        -8.6573   -0.9510   -0.0925 C.3       1 <0>        -0.0675
     23 C20        -9.3399   -2.3195   -0.0472 C.3       1 <0>         0.1374
     24 C21       -10.6092   -2.2848   -0.9009 C.3       1 <0>        -0.1878
     25 C22        -8.4006   -3.3675   -0.5861 C.2       1 <0>         0.4499
     26 O2         -8.4637   -3.6957   -1.7472 O.2       1 <0>        -0.4989
     27 O3         -7.4939   -3.9363    0.2238 O.3       1 <0>        -0.3274
     28 C23        -6.6358   -4.9222   -0.3540 C.3       1 <0>         0.0576
     29 C24        -5.6773   -5.4530    0.7138 C.3       1 <0>        -0.1471
     30 O4         -9.6828   -2.6363    1.3034 O.3       1 <0>        -0.2844
     31 C25       -10.2799   -3.8372    1.5229 C.ar      1 <0>         0.1294
     32 C26       -10.4199   -4.7441    0.4824 C.ar      1 <0>        -0.2236
     33 C27       -11.0269   -5.9643    0.7083 C.ar      1 <0>        -0.0775
     34 C28       -11.4950   -6.2820    1.9699 C.ar      1 <0>        -0.1517
     35 C29       -11.3570   -5.3797    3.0085 C.ar      1 <0>        -0.0781
     36 C30       -10.7453   -4.1606    2.7892 C.ar      1 <0>        -0.1445
     37 C31         3.3955   -4.0647   -0.2075 C.3       1 <0>        -0.1311
     38 H1          0.5485    2.8160    0.0664 H         1 <0>         0.0670
     39 H2         -0.9780    2.6375   -0.8314 H         1 <0>         0.0735
     40 H3         -0.9909    2.6708    0.9482 H         1 <0>         0.0666
     41 H4         -1.2587    0.3564    0.0993 H         1 <0>         0.0744
     42 H5          0.2806    0.5016   -0.7824 H         1 <0>         0.0776
     43 H6          1.4707    0.8867    1.3586 H         1 <0>         0.1305
     44 H7         -0.0687    0.7415    2.2404 H         1 <0>         0.1268
     45 H8          2.2988   -6.3186    0.7422 H         1 <0>         0.1568
     46 H9          0.2860   -6.5740    2.1307 H         1 <0>         0.1581
     47 H10        -1.0023   -4.6008    2.8274 H         1 <0>         0.1514
     48 H11        -1.5206   -2.3082    3.6149 H         1 <0>         0.1341
     49 H12        -1.2299   -0.5888    3.2578 H         1 <0>         0.1314
     50 H13        -2.4495   -0.8283    1.1121 H         1 <0>         0.0744
     51 H14        -2.7401   -2.5477    1.4692 H         1 <0>         0.0759
     52 H15        -4.0826   -1.6905    0.1153 H         1 <0>         0.1193
     53 H16        -6.2272   -1.5791   -1.0875 H         1 <0>         0.1186
     54 H17        -8.2047   -0.4721    2.5258 H         1 <0>         0.1380
     55 H18        -6.0659   -0.5924    3.7382 H         1 <0>         0.1350
     56 H19        -9.3011   -0.2080    0.3782 H         1 <0>         0.1095
     57 H20        -8.4758   -0.6696   -1.1298 H         1 <0>         0.1037
     58 H21       -10.3582   -1.9648   -1.9122 H         1 <0>         0.0897
     59 H22       -11.0520   -3.2802   -0.9341 H         1 <0>         0.0850
     60 H23       -11.3215   -1.5846   -0.4645 H         1 <0>         0.0908
     61 H24        -7.2370   -5.7438   -0.7434 H         1 <0>         0.0683
     62 H25        -6.0631   -4.4743   -1.1661 H         1 <0>         0.0640
     63 H26        -6.2500   -5.9009    1.5259 H         1 <0>         0.0692
     64 H27        -5.0228   -6.2050    0.2731 H         1 <0>         0.0780
     65 H28        -5.0761   -4.6314    1.1033 H         1 <0>         0.0600
     66 H29       -10.0551   -4.4961   -0.5034 H         1 <0>         0.1317
     67 H30       -11.1361   -6.6706   -0.1014 H         1 <0>         0.1250
     68 H31       -11.9695   -7.2363    2.1443 H         1 <0>         0.1267
     69 H32       -11.7238   -5.6300    3.9929 H         1 <0>         0.1324
     70 H33       -10.6338   -3.4580    3.6018 H         1 <0>         0.1328
     71 H34         4.2692   -3.9536    0.4347 H         1 <0>         0.0909
     72 H35         3.5118   -4.9528   -0.8287 H         1 <0>         0.0935
     73 H36         3.2988   -3.1857   -0.8448 H         1 <0>         0.0678
     74 H37         2.3144   -1.3443    0.2799 H         1 <0>         0.4603
@<TRIPOS>BOND
     1    1    2 1
     2    1   38 1
     3    1   39 1
     4    1   40 1
     5    2    3 1
     6    2   41 1
     7    2   42 1
     8    3    4 1
     9    3   43 1
    10    3   44 1
    11    4   12 1
    12    4    5 2
    13    5    6 1
    14    5   74 1
    15    6   11 ar
    16    6    7 ar
    17    7    8 ar
    18    7   37 1
    19    8    9 ar
    20    8   45 1
    21    9   10 ar
    22    9   46 1
    23   10   11 ar
    24   10   47 1
    25   11   12 1
    26   12   13 1
    27   13   14 1
    28   13   48 1
    29   13   49 1
    30   14   15 1
    31   14   50 1
    32   14   51 1
    33   15   16 1
    34   16   21 ar
    35   16   17 ar
    36   17   18 ar
    37   17   52 1
    38   18   19 ar
    39   18   53 1
    40   19   20 ar
    41   19   22 1
    42   20   21 ar
    43   20   54 1
    44   21   55 1
    45   22   23 1
    46   22   56 1
    47   22   57 1
    48   23   24 1
    49   23   25 1
    50   23   30 1
    51   24   58 1
    52   24   59 1
    53   24   60 1
    54   25   26 2
    55   25   27 1
    56   27   28 1
    57   28   29 1
    58   28   61 1
    59   28   62 1
    60   29   63 1
    61   29   64 1
    62   29   65 1
    63   30   31 1
    64   31   36 ar
    65   31   32 ar
    66   32   33 ar
    67   32   66 1
    68   33   34 ar
    69   33   67 1
    70   34   35 ar
    71   34   68 1
    72   35   36 ar
    73   35   69 1
    74   36   70 1
    75   37   71 1
    76   37   72 1
    77   37   73 1
@<TRIPOS>MOLECULE
CHEMBL110408
   66    69     0     0     0
SMALL
USER_CHARGES

@<TRIPOS>ATOM
      1 C1         -4.5547    0.2209   -0.8006 C.3       1 <0>        -0.1531
      2 C2         -3.3265   -0.6545   -0.5435 C.3       1 <0>        -0.1156
      3 C3         -2.0842    0.0277   -1.1200 C.3       1 <0>        -0.0822
      4 C4         -0.8745   -0.8345   -0.8668 C.ar      1 <0>        -0.1086
      5 C5         -0.0542   -0.5584    0.1890 C.ar      1 <0>        -0.0384
      6 C6          1.0678   -1.3569    0.4259 C.ar      1 <0>        -0.1877
      7 C7          1.3488   -2.4416   -0.4228 C.ar      1 <0>         0.1009
      8 C8          0.5052   -2.7097   -1.4916 C.ar      1 <0>        -0.0988
      9 C9         -0.6042   -1.9112   -1.7081 C.ar      1 <0>         0.1804
     10 O1         -1.4329   -2.1765   -2.7510 O.3       1 <0>        -0.2901
     11 C10        -1.0577   -1.6539   -4.0270 C.3       1 <0>         0.0645
     12 C11        -2.0030   -0.5457   -4.4136 C.ar      1 <0>        -0.0698
     13 C12        -3.3358   -0.6172   -4.0539 C.ar      1 <0>        -0.0884
     14 C13        -4.2029    0.3993   -4.4085 C.ar      1 <0>        -0.1221
     15 C14        -3.7371    1.4876   -5.1224 C.ar      1 <0>        -0.0942
     16 C15        -2.4041    1.5595   -5.4813 C.ar      1 <0>        -0.1167
     17 C16        -1.5361    0.5450   -5.1230 C.ar      1 <0>        -0.1010
     18 C17        -4.6826    2.5953   -5.5098 C.3       1 <0>        -0.0647
     19 C18        -4.7073    3.6541   -4.4057 C.3       1 <0>        -0.0644
     20 C19        -5.6528    4.7618   -4.7931 C.ar      1 <0>         0.1365
     21 C20        -6.6765    5.1175   -3.9351 C.ar      1 <0>        -0.1719
     22 C21        -7.5408    6.1378   -4.3010 C.ar      1 <0>        -0.0742
     23 C22        -7.3422    6.7650   -5.5217 C.ar      1 <0>        -0.1844
     24 C23        -6.2968    6.3552   -6.3272 C.ar      1 <0>         0.1022
     25 N1         -5.4907    5.3841   -5.9442 N.ar      1 <0>        -0.4803
     26 C24        -1.1218   -2.7512   -5.0579 C.2       1 <0>         0.5042
     27 O2         -1.5734   -3.8434   -4.7584 O.co2     1 <0>        -0.6577
     28 O3         -0.7220   -2.5468   -6.1914 O.co2     1 <0>        -0.6788
     29 C25         0.7935   -3.8688   -2.4105 C.3       1 <0>        -0.0875
     30 C26         0.2280   -5.1542   -1.8030 C.3       1 <0>        -0.1027
     31 C27         0.5207   -6.3310   -2.7359 C.3       1 <0>        -0.1491
     32 O4          2.4742   -3.0243    0.0381 O.3       1 <0>        -0.0541
     33 N2          2.9278   -2.3266    1.1807 N.2       1 <0>        -0.2328
     34 C28         2.1258   -1.3395    1.4390 C.2       1 <0>         0.0397
     35 C29         2.2585   -0.3560    2.5731 C.3       1 <0>         0.5567
     36 F1          1.5756   -0.8413    3.6935 F         1 <0>        -0.1579
     37 F2          3.6110   -0.1873    2.8882 F         1 <0>        -0.1593
     38 F3          1.7120    0.8736    2.1903 F         1 <0>        -0.1554
     39 H1         -4.4169    1.1901   -0.3212 H         1 <0>         0.0490
     40 H2         -4.6825    0.3614   -1.8739 H         1 <0>         0.0622
     41 H3         -5.4397   -0.2651   -0.3899 H         1 <0>         0.0513
     42 H4         -3.1987   -0.7950    0.5298 H         1 <0>         0.0560
     43 H5         -3.4643   -1.6236   -1.0229 H         1 <0>         0.0723
     44 H6         -2.2120    0.1682   -2.1933 H         1 <0>         0.0931
     45 H7         -1.9465    0.9969   -0.6406 H         1 <0>         0.0682
     46 H8         -0.2718    0.2758    0.8395 H         1 <0>         0.1390
     47 H9         -0.0415   -1.2630   -3.9750 H         1 <0>         0.0670
     48 H10        -3.6997   -1.4674   -3.4961 H         1 <0>         0.1263
     49 H11        -5.2443    0.3431   -4.1280 H         1 <0>         0.1160
     50 H12        -2.0402    2.4095   -6.0394 H         1 <0>         0.1177
     51 H13        -0.4939    0.6030   -5.4002 H         1 <0>         0.1186
     52 H14        -4.3470    3.0500   -6.4419 H         1 <0>         0.0801
     53 H15        -5.6843    2.1874   -5.6446 H         1 <0>         0.0659
     54 H16        -5.0429    3.1994   -3.4736 H         1 <0>         0.0806
     55 H17        -3.7056    4.0620   -4.2709 H         1 <0>         0.0848
     56 H18        -6.8017    4.6068   -2.9918 H         1 <0>         0.1345
     57 H19        -8.3497    6.4369   -3.6510 H         1 <0>         0.1323
     58 H20        -7.9964    7.5636   -5.8391 H         1 <0>         0.1321
     59 H21        -6.1354    6.8386   -7.2794 H         1 <0>         0.1544
     60 H22         0.3275   -3.6891   -3.3793 H         1 <0>         0.1080
     61 H23         1.8711   -3.9712   -2.5391 H         1 <0>         0.0666
     62 H24         0.6940   -5.3339   -0.8342 H         1 <0>         0.0479
     63 H25        -0.8496   -5.0518   -1.6745 H         1 <0>         0.0683
     64 H26         0.1178   -7.2467   -2.3032 H         1 <0>         0.0483
     65 H27         0.0547   -6.1513   -3.7047 H         1 <0>         0.0701
     66 H28         1.5983   -6.4334   -2.8645 H         1 <0>         0.0461
@<TRIPOS>BOND
     1    1    2 1
     2    1   39 1
     3    1   40 1
     4    1   41 1
     5    2    3 1
     6    2   42 1
     7    2   43 1
     8    3    4 1
     9    3   44 1
    10    3   45 1
    11    4    9 ar
    12    4    5 ar
    13    5    6 ar
    14    5   46 1
    15    6   34 1
    16    6    7 ar
    17    7    8 ar
    18    7   32 1
    19    8    9 ar
    20    8   29 1
    21    9   10 1
    22   10   11 1
    23   11   12 1
    24   11   26 1
    25   11   47 1
    26   12   17 ar
    27   12   13 ar
    28   13   14 ar
    29   13   48 1
    30   14   15 ar
    31   14   49 1
    32   15   16 ar
    33   15   18 1
    34   16   17 ar
    35   16   50 1
    36   17   51 1
    37   18   19 1
    38   18   52 1
    39   18   53 1
    40   19   20 1
    41   19   54 1
    42   19   55 1
    43   20   25 ar
    44   20   21 ar
    45   21   22 ar
    46   21   56 1
    47   22   23 ar
    48   22   57 1
    49   23   24 ar
    50   23   58 1
    51   24   25 ar
    52   24   59 1
    53   26   27 2
    54   26   28 1
    55   29   30 1
    56   29   60 1
    57   29   61 1
    58   30   31 1
    59   30   62 1
    60   30   63 1
    61   31   64 1
    62   31   65 1
    63   31   66 1
    64   32   33 1
    65   33   34 2
    66   34   35 1
    67   35   36 1
    68   35   37 1
    69   35   38 1
@<TRIPOS>MOLECULE
CHEMBL110408__1
   66    69     0     0     0
SMALL
USER_CHARGES

@<TRIPOS>ATOM
      1 C1          1.7087    0.7091   -0.7631 C.3       1 <0>        -0.1480
      2 C2          1.2341   -0.7282   -0.5400 C.3       1 <0>        -0.1047
      3 C3          1.5129   -1.5579   -1.7949 C.3       1 <0>        -0.1029
      4 C4          1.0455   -2.9736   -1.5752 C.ar      1 <0>        -0.0894
      5 C5          1.9501   -3.9438   -1.2526 C.ar      1 <0>        -0.0365
      6 C6          1.5187   -5.2570   -1.0480 C.ar      1 <0>        -0.1931
      7 C7          0.1555   -5.5757   -1.1748 C.ar      1 <0>         0.1025
      8 C8         -0.7519   -4.5782   -1.5029 C.ar      1 <0>        -0.1327
      9 C9         -0.3073   -3.2821   -1.6971 C.ar      1 <0>         0.1966
     10 O1         -1.1959   -2.3046   -2.0132 O.3       1 <0>        -0.2887
     11 C10        -1.8778   -2.4272   -3.2630 C.3       1 <0>         0.0601
     12 C11        -3.3407   -2.1213   -3.0692 C.ar      1 <0>        -0.0557
     13 C12        -3.7262   -1.0852   -2.2393 C.ar      1 <0>        -0.0882
     14 C13        -5.0680   -0.8047   -2.0615 C.ar      1 <0>        -0.1201
     15 C14        -6.0244   -1.5600   -2.7141 C.ar      1 <0>        -0.0936
     16 C15        -5.6389   -2.5955   -3.5447 C.ar      1 <0>        -0.1161
     17 C16        -4.2969   -2.8733   -3.7258 C.ar      1 <0>        -0.1027
     18 C17        -7.4873   -1.2548   -2.5195 C.3       1 <0>        -0.0630
     19 C18        -7.9406   -0.2395   -3.5705 C.3       1 <0>        -0.0673
     20 C19        -9.4035    0.0657   -3.3759 C.ar      1 <0>         0.1375
     21 C20        -9.8126    1.3765   -3.2171 C.ar      1 <0>        -0.1715
     22 C21       -11.1606    1.6464   -3.0388 C.ar      1 <0>        -0.0741
     23 C22       -12.0507    0.5831   -3.0268 C.ar      1 <0>        -0.1849
     24 C23       -11.5680   -0.7010   -3.1919 C.ar      1 <0>         0.1014
     25 N1        -10.2790   -0.9202   -3.3645 N.ar      1 <0>        -0.4807
     26 C24        -1.2887   -1.4566   -4.2539 C.2       1 <0>         0.4953
     27 O2         -1.6202   -1.5057   -5.4262 O.co2     1 <0>        -0.6778
     28 O3         -0.4805   -0.6223   -3.8834 O.co2     1 <0>        -0.6588
     29 C25        -2.2165   -4.9043   -1.6429 C.3       1 <0>        -0.0869
     30 C26        -2.9345   -4.6013   -0.3262 C.3       1 <0>        -0.1108
     31 C27        -4.4215   -4.9324   -0.4683 C.3       1 <0>        -0.1491
     32 O4          0.0321   -6.8953   -0.9262 O.3       1 <0>        -0.0591
     33 N2          1.3051   -7.4380   -0.6384 N.2       1 <0>        -0.2368
     34 C28         2.2043   -6.5043   -0.7006 C.2       1 <0>         0.0429
     35 C29         3.6824   -6.6721   -0.4597 C.3       1 <0>         0.5561
     36 F1          3.9604   -6.4660    0.8958 F         1 <0>        -0.1584
     37 F2          4.0702   -7.9661   -0.8237 F         1 <0>        -0.1600
     38 F3          4.3889   -5.7402   -1.2276 F         1 <0>        -0.1539
     39 H1          2.7790    0.7105   -0.9692 H         1 <0>         0.0465
     40 H2          1.1751    1.1407   -1.6099 H         1 <0>         0.0653
     41 H3          1.5101    1.3002    0.1309 H         1 <0>         0.0454
     42 H4          1.7678   -1.1597    0.3068 H         1 <0>         0.0454
     43 H5          0.1638   -0.7296   -0.3339 H         1 <0>         0.0664
     44 H6          0.9793   -1.1263   -2.6418 H         1 <0>         0.1384
     45 H7          2.5832   -1.5565   -2.0010 H         1 <0>         0.0603
     46 H8          2.9970   -3.6969   -1.1560 H         1 <0>         0.1403
     47 H9         -1.7660   -3.4439   -3.6397 H         1 <0>         0.0714
     48 H10        -2.9790   -0.4951   -1.7295 H         1 <0>         0.1254
     49 H11        -5.3692    0.0044   -1.4126 H         1 <0>         0.1157
     50 H12        -6.3861   -3.1858   -4.0542 H         1 <0>         0.1182
     51 H13        -3.9956   -3.6800   -4.3776 H         1 <0>         0.1181
     52 H14        -8.0670   -2.1716   -2.6262 H         1 <0>         0.0797
     53 H15        -7.6426   -0.8405   -1.5233 H         1 <0>         0.0651
     54 H16        -7.3608    0.6774   -3.4638 H         1 <0>         0.0817
     55 H17        -7.7852   -0.6538   -4.5666 H         1 <0>         0.0866
     56 H18        -9.0912    2.1801   -3.2314 H         1 <0>         0.1352
     57 H19       -11.5093    2.6607   -2.9119 H         1 <0>         0.1325
     58 H20       -13.1079    0.7565   -2.8899 H         1 <0>         0.1319
     59 H21       -12.2547   -1.5345   -3.1838 H         1 <0>         0.1540
     60 H22        -2.6488   -4.2995   -2.4400 H         1 <0>         0.0918
     61 H23        -2.3319   -5.9608   -1.8849 H         1 <0>         0.0718
     62 H24        -2.5022   -5.2060    0.4709 H         1 <0>         0.0555
     63 H25        -2.8190   -3.5448   -0.0842 H         1 <0>         0.0685
     64 H26        -4.9330   -4.7165    0.4697 H         1 <0>         0.0513
     65 H27        -4.8538   -4.3276   -1.2655 H         1 <0>         0.0607
     66 H28        -4.5370   -5.9889   -0.7104 H         1 <0>         0.0500
@<TRIPOS>BOND
     1    1    2 1
     2    1   39 1
     3    1   40 1
     4    1   41 1
     5    2    3 1
     6    2   42 1
     7    2   43 1
     8    3    4 1
     9    3   44 1
    10    3   45 1
    11    4    9 ar
    12    4    5 ar
    13    5    6 ar
    14    5   46 1
    15    6   34 1
    16    6    7 ar
    17    7    8 ar
    18    7   32 1
    19    8    9 ar
    20    8   29 1
    21    9   10 1
    22   10   11 1
    23   11   12 1
    24   11   26 1
    25   11   47 1
    26   12   17 ar
    27   12   13 ar
    28   13   14 ar
    29   13   48 1
    30   14   15 ar
    31   14   49 1
    32   15   16 ar
    33   15   18 1
    34   16   17 ar
    35   16   50 1
    36   17   51 1
    37   18   19 1
    38   18   52 1
    39   18   53 1
    40   19   20 1
    41   19   54 1
    42   19   55 1
    43   20   25 ar
    44   20   21 ar
    45   21   22 ar
    46   21   56 1
    47   22   23 ar
    48   22   57 1
    49   23   24 ar
    50   23   58 1
    51   24   25 ar
    52   24   59 1
    53   26   27 2
    54   26   28 1
    55   29   30 1
    56   29   60 1
    57   29   61 1
    58   30   31 1
    59   30   62 1
    60   30   63 1
    61   31   64 1
    62   31   65 1
    63   31   66 1
    64   32   33 1
    65   33   34 2
    66   34   35 1
    67   35   36 1
    68   35   37 1
    69   35   38 1
@<TRIPOS>MOLECULE
CHEMBL1089500
   57    59     0     0     0
SMALL
USER_CHARGES

@<TRIPOS>ATOM
      1 C1         -0.0187    1.5258    0.0104 C.3       1 <0>        -0.1457
      2 C2          0.0021   -0.0041    0.0020 C.3       1 <0>        -0.1258
      3 C3         -1.4333   -0.5336    0.0129 C.3       1 <0>         0.0865
      4 O1         -1.4139   -1.9625    0.0050 O.3       1 <0>        -0.3569
      5 C4         -2.6051   -2.5900    0.0130 C.2       1 <0>         0.6611
      6 O2         -3.6330   -1.9421    0.0263 O.2       1 <0>        -0.5928
      7 N1         -2.6574   -3.9367    0.0063 N.am      1 <0>        -0.5549
      8 C5         -3.9535   -4.6195    0.0150 C.3       1 <0>         0.1773
      9 C6         -4.4115   -4.8460   -1.4027 C.ar      1 <0>        -0.0614
     10 C7         -5.1750   -3.8875   -2.0436 C.ar      1 <0>        -0.1282
     11 C8         -5.5967   -4.0923   -3.3441 C.ar      1 <0>        -0.0865
     12 C9         -5.2565   -5.2559   -4.0068 C.ar      1 <0>        -0.2091
     13 C10        -4.4908   -6.2189   -3.3662 C.ar      1 <0>         0.1227
     14 C11        -4.0636   -6.0083   -2.0629 C.ar      1 <0>        -0.1305
     15 O3         -4.1548   -7.3643   -4.0158 O.3       1 <0>        -0.3083
     16 C12        -4.6243   -7.5108   -5.3575 C.3       1 <0>         0.1471
     17 C13        -4.1573   -8.8321   -5.9118 C.2       1 <0>        -0.0174
     18 C14        -3.0034   -9.0529   -6.5673 C.2       1 <0>        -0.0012
     19 O4         -2.9709  -10.3609   -6.8911 O.3       1 <0>        -0.1908
     20 C15        -4.1018  -10.9237   -6.4313 C.2       1 <0>         0.2242
     21 N2         -4.8156   -9.9986   -5.8341 N.2       1 <0>        -0.4451
     22 C16        -4.4755  -12.3471   -6.5696 C.ar      1 <0>        -0.0082
     23 C17        -5.6870  -12.8070   -6.0509 C.ar      1 <0>        -0.0580
     24 C18        -6.0305  -14.1362   -6.1834 C.ar      1 <0>        -0.1097
     25 C19        -5.1762  -15.0139   -6.8295 C.ar      1 <0>        -0.0196
     26 C20        -3.9727  -14.5636   -7.3458 C.ar      1 <0>        -0.1103
     27 C21        -3.6210  -13.2355   -7.2245 C.ar      1 <0>        -0.0775
     28 Cl1        -5.6154  -16.6855   -6.9924 Cl        1 <0>        -0.0624
     29 C22        -1.9443   -8.0280   -6.8820 C.3       1 <0>        -0.0753
     30 C23        -1.4181   -4.7178   -0.0097 C.3       1 <0>         0.0435
     31 C24        -0.9796   -4.9933    1.4055 C.2       1 <0>         0.4819
     32 O5         -1.6409   -4.5758    2.3408 O.co2     1 <0>        -0.6833
     33 O6          0.0366   -5.6336    1.6152 O.co2     1 <0>        -0.6991
     34 H1          1.0039    1.9031    0.0027 H         1 <0>         0.0615
     35 H2         -0.5459    1.8868   -0.8726 H         1 <0>         0.0551
     36 H3         -0.5289    1.8773    0.9072 H         1 <0>         0.0572
     37 H4          0.5123   -0.3556   -0.8948 H         1 <0>         0.0711
     38 H5          0.5293   -0.3651    0.8851 H         1 <0>         0.0758
     39 H6         -1.9435   -0.1821    0.9097 H         1 <0>         0.0635
     40 H7         -1.9605   -0.1726   -0.8702 H         1 <0>         0.0600
     41 H8         -3.8553   -5.5790    0.5228 H         1 <0>         0.0931
     42 H9         -4.6848   -4.0042    0.5391 H         1 <0>         0.0953
     43 H10        -5.4425   -2.9775   -1.5271 H         1 <0>         0.1322
     44 H11        -6.1928   -3.3421   -3.8424 H         1 <0>         0.1228
     45 H12        -5.5867   -5.4158   -5.0225 H         1 <0>         0.1233
     46 H13        -3.4634   -6.7545   -1.5636 H         1 <0>         0.1317
     47 H14        -5.7138   -7.4776   -5.3669 H         1 <0>         0.0813
     48 H15        -4.2308   -6.7001   -5.9707 H         1 <0>         0.0802
     49 H16        -6.3539  -12.1235   -5.5464 H         1 <0>         0.1495
     50 H17        -6.9675  -14.4933   -5.7821 H         1 <0>         0.1443
     51 H18        -3.3104  -15.2528   -7.8484 H         1 <0>         0.1425
     52 H19        -2.6843  -12.8844   -7.6318 H         1 <0>         0.1414
     53 H20        -1.2224   -7.9893   -6.0663 H         1 <0>         0.0961
     54 H21        -1.4349   -8.3036   -7.8053 H         1 <0>         0.0835
     55 H22        -2.4097   -7.0496   -7.0019 H         1 <0>         0.0957
     56 H23        -1.5902   -5.6617   -0.5270 H         1 <0>         0.0758
     57 H24        -0.6411   -4.1559   -0.5280 H         1 <0>         0.0808
@<TRIPOS>BOND
     1    1    2 1
     2    1   34 1
     3    1   35 1
     4    1   36 1
     5    2    3 1
     6    2   37 1
     7    2   38 1
     8    3    4 1
     9    3   39 1
    10    3   40 1
    11    4    5 1
    12    5    6 2
    13    5    7 am
    14    7    8 1
    15    7   30 1
    16    8    9 1
    17    8   41 1
    18    8   42 1
    19    9   14 ar
    20    9   10 ar
    21   10   11 ar
    22   10   43 1
    23   11   12 ar
    24   11   44 1
    25   12   13 ar
    26   12   45 1
    27   13   14 ar
    28   13   15 1
    29   14   46 1
    30   15   16 1
    31   16   17 1
    32   16   47 1
    33   16   48 1
    34   17   21 1
    35   17   18 2
    36   18   19 1
    37   18   29 1
    38   19   20 1
    39   20   21 2
    40   20   22 1
    41   22   27 ar
    42   22   23 ar
    43   23   24 ar
    44   23   49 1
    45   24   25 ar
    46   24   50 1
    47   25   26 ar
    48   25   28 1
    49   26   27 ar
    50   26   51 1
    51   27   52 1
    52   29   53 1
    53   29   54 1
    54   29   55 1
    55   30   31 1
    56   30   56 1
    57   30   57 1
    58   31   32 2
    59   31   33 1
@<TRIPOS>MOLECULE
CHEMBL484725
   59    62     0     0     0
SMALL
USER_CHARGES

@<TRIPOS>ATOM
      1 C1         -0.0187    1.5258    0.0104 C.3       1 <0>        -0.1425
      2 C2          0.0021   -0.0041    0.0020 C.3       1 <0>         0.0668
      3 O1          0.6709   -0.4649   -1.1737 O.3       1 <0>        -0.3626
      4 C3          0.7457   -1.8880   -1.2798 C.3       1 <0>         0.0328
      5 H1         -0.1179   -2.3349   -0.7873 H         1 <0>         0.0484
      6 C4          0.7554   -2.2896   -2.7561 C.3       1 <0>        -0.0622
      7 C5         -0.5593   -1.9112   -3.3882 C.ar      1 <0>        -0.0776
      8 C6         -1.5634   -2.8267   -3.4766 C.ar      1 <0>        -0.0939
      9 C7         -2.7855   -2.4985   -4.0564 C.ar      1 <0>        -0.2092
     10 C8         -3.0128   -1.2462   -4.5544 C.ar      1 <0>         0.1265
     11 C9         -1.9956   -0.2732   -4.4793 C.ar      1 <0>        -0.0635
     12 C10        -0.7552   -0.6108   -3.8833 C.ar      1 <0>        -0.0098
     13 C11         0.2578    0.3604   -3.8041 C.ar      1 <0>        -0.0721
     14 C12         0.0325    1.6098   -4.2946 C.ar      1 <0>        -0.1244
     15 C13        -1.1898    1.9429   -4.8752 C.ar      1 <0>        -0.1231
     16 C14        -2.1893    1.0244   -4.9796 C.ar      1 <0>        -0.1023
     17 O2         -4.2102   -0.9415   -5.1180 O.3       1 <0>        -0.3114
     18 C15        -5.1913   -1.9797   -5.1583 C.3       1 <0>         0.0677
     19 C16        -6.4642   -1.4529   -5.8238 C.3       1 <0>        -0.0337
     20 C17        -7.4989   -2.5478   -5.8663 C.2       1 <0>        -0.0066
     21 C18        -7.6637   -3.4443   -6.8560 C.2       1 <0>        -0.0321
     22 O3         -8.6911   -4.2430   -6.5054 O.3       1 <0>        -0.1933
     23 C19        -9.1418   -3.8275   -5.3090 C.2       1 <0>         0.2298
     24 N1         -8.4156   -2.8056   -4.9213 N.2       1 <0>        -0.4586
     25 C20       -10.2636   -4.4251   -4.5542 C.ar      1 <0>        -0.0175
     26 C21       -10.6392   -3.8940   -3.3193 C.ar      1 <0>        -0.0704
     27 C22       -11.6873   -4.4562   -2.6202 C.ar      1 <0>        -0.1204
     28 C23       -12.3656   -5.5440   -3.1406 C.ar      1 <0>        -0.1009
     29 C24       -11.9983   -6.0752   -4.3642 C.ar      1 <0>        -0.1213
     30 C25       -10.9554   -5.5192   -5.0759 C.ar      1 <0>        -0.0906
     31 C26        -6.8509   -3.5376   -8.1215 C.3       1 <0>        -0.0724
     32 C27         2.0091   -2.3753   -0.6184 C.2       1 <0>         0.4780
     33 O4          2.2218   -3.5716   -0.5170 O.co2     1 <0>        -0.7004
     34 O5          2.8185   -1.5733   -0.1846 O.co2     1 <0>        -0.6789
     35 H2          1.0039    1.9031    0.0027 H         1 <0>         0.0621
     36 H3         -0.5459    1.8868   -0.8726 H         1 <0>         0.0547
     37 H4         -0.5289    1.8773    0.9072 H         1 <0>         0.0585
     38 H5          0.5293   -0.3651    0.8851 H         1 <0>         0.0449
     39 H6         -1.0205   -0.3814    0.0098 H         1 <0>         0.0284
     40 H7          1.5669   -1.7723   -3.2680 H         1 <0>         0.0759
     41 H8          0.9017   -3.3665   -2.8387 H         1 <0>         0.0885
     42 H9         -1.4091   -3.8236   -3.0908 H         1 <0>         0.1235
     43 H10        -3.5649   -3.2439   -4.1140 H         1 <0>         0.1208
     44 H11         1.2098    0.1166   -3.3562 H         1 <0>         0.1418
     45 H12         0.8125    2.3543   -4.2326 H         1 <0>         0.1193
     46 H13        -1.3431    2.9416   -5.2565 H         1 <0>         0.1166
     47 H14        -3.1310    1.2963   -5.4331 H         1 <0>         0.1242
     48 H15        -4.8045   -2.8231   -5.7303 H         1 <0>         0.0620
     49 H16        -5.4195   -2.3035   -4.1428 H         1 <0>         0.0659
     50 H17        -6.8510   -0.6095   -5.2518 H         1 <0>         0.0946
     51 H18        -6.2360   -1.1291   -6.8393 H         1 <0>         0.0927
     52 H19       -10.1103   -3.0452   -2.9118 H         1 <0>         0.1391
     53 H20       -11.9787   -4.0464   -1.6644 H         1 <0>         0.1329
     54 H21       -13.1851   -5.9805   -2.5891 H         1 <0>         0.1285
     55 H22       -12.5316   -6.9247   -4.7647 H         1 <0>         0.1306
     56 H23       -10.6726   -5.9321   -6.0330 H         1 <0>         0.1300
     57 H24        -5.9990   -4.1977   -7.9584 H         1 <0>         0.0888
     58 H25        -7.4717   -3.9371   -8.9235 H         1 <0>         0.0810
     59 H26        -6.4941   -2.5455   -8.3982 H         1 <0>         0.0964
@<TRIPOS>BOND
     1    1    2 1
     2    1   35 1
     3    1   36 1
     4    1   37 1
     5    2    3 1
     6    2   38 1
     7    2   39 1
     8    3    4 1
     9    4    5 1
    10    4    6 1
    11    4   32 1
    12    6    7 1
    13    6   40 1
    14    6   41 1
    15    7   12 ar
    16    7    8 ar
    17    8    9 ar
    18    8   42 1
    19    9   10 ar
    20    9   43 1
    21   10   11 ar
    22   10   17 1
    23   11   16 ar
    24   11   12 ar
    25   12   13 ar
    26   13   14 ar
    27   13   44 1
    28   14   15 ar
    29   14   45 1
    30   15   16 ar
    31   15   46 1
    32   16   47 1
    33   17   18 1
    34   18   19 1
    35   18   48 1
    36   18   49 1
    37   19   20 1
    38   19   50 1
    39   19   51 1
    40   20   24 1
    41   20   21 2
    42   21   22 1
    43   21   31 1
    44   22   23 1
    45   23   24 2
    46   23   25 1
    47   25   30 ar
    48   25   26 ar
    49   26   27 ar
    50   26   52 1
    51   27   28 ar
    52   27   53 1
    53   28   29 ar
    54   28   54 1
    55   29   30 ar
    56   29   55 1
    57   30   56 1
    58   31   57 1
    59   31   58 1
    60   31   59 1
    61   32   33 2
    62   32   34 1
@<TRIPOS>MOLECULE
CHEMBL508299
   69    73     0     0     0
SMALL
USER_CHARGES

@<TRIPOS>ATOM
      1 C1         -0.0184    1.5028    0.0103 C.3       1 <0>        -0.0727
      2 C2          0.0021   -0.0041    0.0020 C.2       1 <0>        -0.0303
      3 C3         -1.0707   -0.8165    0.0025 C.2       1 <0>        -0.0069
      4 N1         -0.6275   -2.0825   -0.0072 N.2       1 <0>        -0.4579
      5 C4          0.6850   -2.0677   -0.0136 C.2       1 <0>         0.2283
      6 O1          1.0981   -0.7883   -0.0131 O.3       1 <0>        -0.1927
      7 C5          1.5611   -3.2570   -0.0243 C.ar      1 <0>        -0.0156
      8 C6          1.0018   -4.5370   -0.0341 C.ar      1 <0>        -0.0653
      9 C7          1.8192   -5.6448   -0.0440 C.ar      1 <0>        -0.1119
     10 C8          3.2055   -5.4894   -0.0441 C.ar      1 <0>        -0.0260
     11 C9          3.7650   -4.2116   -0.0338 C.ar      1 <0>        -0.1122
     12 C10         2.9494   -3.1024   -0.0302 C.ar      1 <0>        -0.0851
     13 C11         4.0849   -6.6832   -0.0548 C.ar      1 <0>        -0.0512
     14 C12         3.5290   -7.9615   -0.0704 C.ar      1 <0>        -0.1069
     15 C13         4.3524   -9.0689   -0.0808 C.ar      1 <0>        -0.1180
     16 C14         5.7268   -8.9123   -0.0756 C.ar      1 <0>        -0.1161
     17 C15         6.2841   -7.6463   -0.0596 C.ar      1 <0>        -0.1187
     18 C16         5.4706   -6.5315   -0.0550 C.ar      1 <0>        -0.1077
     19 C17        -2.5134   -0.3813    0.0121 C.3       1 <0>        -0.0336
     20 C18        -3.0088   -0.2255   -1.4270 C.3       1 <0>         0.0677
     21 O2         -4.3769    0.1872   -1.4179 O.3       1 <0>        -0.3107
     22 C19        -4.9731    0.3724   -2.6239 C.ar      1 <0>         0.1305
     23 C20        -4.2722    0.1601   -3.7778 C.ar      1 <0>        -0.2125
     24 C21        -4.8689    0.3456   -5.0216 C.ar      1 <0>        -0.0905
     25 C22        -6.1672    0.7430   -5.1257 C.ar      1 <0>        -0.0852
     26 C23        -6.9223    0.9714   -3.9628 C.ar      1 <0>        -0.0085
     27 C24        -6.3208    0.7793   -2.6943 C.ar      1 <0>        -0.0637
     28 C25        -7.0767    1.0031   -1.5323 C.ar      1 <0>        -0.1003
     29 C26        -8.3758    1.3959   -1.6389 C.ar      1 <0>        -0.1208
     30 C27        -8.9695    1.5800   -2.8862 C.ar      1 <0>        -0.1155
     31 C28        -8.2645    1.3826   -4.0336 C.ar      1 <0>        -0.0775
     32 C29        -6.7918    0.9377   -6.4832 C.3       1 <0>        -0.0609
     33 C30        -6.6911    2.4108   -6.8844 C.3       1 <0>         0.0331
     34 H1         -5.6502    2.7305   -6.8350 H         1 <0>         0.0569
     35 C31        -7.2038    2.5845   -8.2908 C.2       1 <0>         0.4777
     36 O3         -8.2077    3.2452   -8.4965 O.co2     1 <0>        -0.6738
     37 O4         -6.6146    2.0645   -9.2230 O.co2     1 <0>        -0.6934
     38 O5         -7.4756    3.2026   -5.9902 O.3       1 <0>        -0.3464
     39 C32        -6.9787    4.5289   -5.7999 C.3       1 <0>         0.0275
     40 C33        -7.8915    5.2811   -4.8295 C.3       1 <0>         0.4599
     41 F1         -7.9182    4.6124   -3.6009 F         1 <0>        -0.1772
     42 F2         -7.4051    6.5795   -4.6431 F         1 <0>        -0.1869
     43 F3         -9.1860    5.3394   -5.3570 F         1 <0>        -0.1714
     44 H2          1.0042    1.8801    0.0026 H         1 <0>         0.0808
     45 H3         -0.5455    1.8639   -0.8728 H         1 <0>         0.0928
     46 H4         -0.5286    1.8543    0.9071 H         1 <0>         0.0933
     47 H5         -0.0714   -4.6576   -0.0336 H         1 <0>         0.1421
     48 H6          1.3870   -6.6345   -0.0512 H         1 <0>         0.1356
     49 H7          4.8384   -4.0924   -0.0333 H         1 <0>         0.1338
     50 H8          3.3828   -2.1132   -0.0271 H         1 <0>         0.1333
     51 H9          2.4561   -8.0850   -0.0741 H         1 <0>         0.1276
     52 H10         3.9229  -10.0598   -0.0926 H         1 <0>         0.1255
     53 H11         6.3673   -9.7819   -0.0837 H         1 <0>         0.1233
     54 H12         7.3578   -7.5300   -0.0549 H         1 <0>         0.1250
     55 H13         5.9067   -5.5435   -0.0473 H         1 <0>         0.1265
     56 H14        -3.1158   -1.1315    0.5245 H         1 <0>         0.0946
     57 H15        -2.6017    0.5726    0.5321 H         1 <0>         0.0928
     58 H16        -2.4064    0.5247   -1.9394 H         1 <0>         0.0616
     59 H17        -2.9205   -1.1794   -1.9470 H         1 <0>         0.0663
     60 H18        -3.2407   -0.1555   -3.7238 H         1 <0>         0.1211
     61 H19        -4.2928    0.1718   -5.9184 H         1 <0>         0.1238
     62 H20        -6.6299    0.8641   -0.5589 H         1 <0>         0.1244
     63 H21        -8.9550    1.5671   -0.7435 H         1 <0>         0.1168
     64 H22       -10.0020    1.8917   -2.9432 H         1 <0>         0.1187
     65 H23        -8.7374    1.5295   -4.9934 H         1 <0>         0.1394
     66 H24        -6.2668    0.3249   -7.2160 H         1 <0>         0.0937
     67 H25        -7.8402    0.6420   -6.4466 H         1 <0>         0.0788
     68 H26        -5.9702    4.4835   -5.3889 H         1 <0>         0.0777
     69 H27        -6.9579    5.0499   -6.7571 H         1 <0>         0.0927
@<TRIPOS>BOND
     1    1    2 1
     2    1   44 1
     3    1   45 1
     4    1   46 1
     5    2    6 1
     6    2    3 2
     7    3    4 1
     8    3   19 1
     9    4    5 2
    10    5    6 1
    11    5    7 1
    12    7   12 ar
    13    7    8 ar
    14    8    9 ar
    15    8   47 1
    16    9   10 ar
    17    9   48 1
    18   10   11 ar
    19   10   13 1
    20   11   12 ar
    21   11   49 1
    22   12   50 1
    23   13   18 ar
    24   13   14 ar
    25   14   15 ar
    26   14   51 1
    27   15   16 ar
    28   15   52 1
    29   16   17 ar
    30   16   53 1
    31   17   18 ar
    32   17   54 1
    33   18   55 1
    34   19   20 1
    35   19   56 1
    36   19   57 1
    37   20   21 1
    38   20   58 1
    39   20   59 1
    40   21   22 1
    41   22   27 ar
    42   22   23 ar
    43   23   24 ar
    44   23   60 1
    45   24   25 ar
    46   24   61 1
    47   25   26 ar
    48   25   32 1
    49   26   31 ar
    50   26   27 ar
    51   27   28 ar
    52   28   29 ar
    53   28   62 1
    54   29   30 ar
    55   29   63 1
    56   30   31 ar
    57   30   64 1
    58   31   65 1
    59   32   33 1
    60   32   66 1
    61   32   67 1
    62   33   34 1
    63   33   35 1
    64   33   38 1
    65   35   36 2
    66   35   37 1
    67   38   39 1
    68   39   40 1
    69   39   68 1
    70   39   69 1
    71   40   41 1
    72   40   42 1
    73   40   43 1
@<TRIPOS>MOLECULE
CHEMBL477298
   68    72     0     0     0
SMALL
USER_CHARGES

@<TRIPOS>ATOM
      1 C1         -0.0184    1.5028    0.0103 C.3       1 <0>        -0.0674
      2 C2          0.0021   -0.0041    0.0020 C.2       1 <0>        -0.0451
      3 C3         -1.0705   -0.8164    0.0025 C.2       1 <0>        -0.0004
      4 N1         -0.6270   -2.0826   -0.0064 N.2       1 <0>        -0.4590
      5 C4          0.6851   -2.0676   -0.0123 C.2       1 <0>         0.2240
      6 O1          1.0981   -0.7883   -0.0131 O.3       1 <0>        -0.1960
      7 C5          1.5619   -3.2577   -0.0227 C.ar      1 <0>        -0.0137
      8 C6          1.0059   -4.5378   -0.0330 C.ar      1 <0>        -0.0707
      9 C7          1.8298   -5.6443   -0.0432 C.ar      1 <0>        -0.1203
     10 C8          3.2044   -5.4871   -0.0433 C.ar      1 <0>        -0.1033
     11 C9          3.7620   -4.2209   -0.0327 C.ar      1 <0>        -0.1218
     12 C10         2.9493   -3.1060   -0.0282 C.ar      1 <0>        -0.0920
     13 C11        -2.5133   -0.3814    0.0119 C.3       1 <0>        -0.0363
     14 C12        -3.0085   -0.2260   -1.4274 C.3       1 <0>        -0.1089
     15 C13        -4.4733    0.2157   -1.4179 C.3       1 <0>        -0.0710
     16 C14        -4.9610    0.3688   -2.8355 C.ar      1 <0>        -0.0978
     17 C15        -4.8340    1.5837   -3.4827 C.ar      1 <0>        -0.1228
     18 C16        -5.2814    1.7242   -4.7831 C.ar      1 <0>        -0.1188
     19 C17        -5.8554    0.6496   -5.4365 C.ar      1 <0>        -0.0663
     20 C18        -5.9816   -0.5655   -4.7895 C.ar      1 <0>        -0.0906
     21 C19        -5.5303   -0.7071   -3.4906 C.ar      1 <0>        -0.1145
     22 C20        -6.3440    0.8031   -6.8538 C.3       1 <0>        -0.0548
     23 C21        -5.2116    0.4597   -7.8236 C.3       1 <0>        -0.1197
     24 C22        -5.6607    0.7306   -9.2364 C.ar      1 <0>        -0.0414
     25 C23        -6.7608    0.0675   -9.7503 C.ar      1 <0>        -0.0863
     26 C24        -7.1785    0.3112  -11.0459 C.ar      1 <0>        -0.1260
     27 C25        -6.4992    1.2187  -11.8336 C.ar      1 <0>        -0.1238
     28 C26        -5.3910    1.8896  -11.3211 C.ar      1 <0>        -0.0658
     29 C27        -4.9774    1.6437  -10.0132 C.ar      1 <0>        -0.1098
     30 C28        -4.6565    2.8660  -12.1633 C.ar      1 <0>        -0.0259
     31 C29        -3.5447    3.5328  -11.6526 C.ar      1 <0>        -0.1154
     32 C30        -2.8649    4.4395  -12.4405 C.ar      1 <0>        -0.1170
     33 C31        -3.2856    4.6868  -13.7347 C.ar      1 <0>        -0.1310
     34 C32        -4.3886    4.0278  -14.2468 C.ar      1 <0>        -0.1194
     35 C33        -5.0726    3.1151  -13.4695 C.ar      1 <0>        -0.1177
     36 C34        -4.8525   -0.9969   -7.6812 C.2       1 <0>         0.5111
     37 O2         -5.6921   -1.8553   -7.8930 O.co2     1 <0>        -0.6901
     38 O3         -3.7224   -1.3171   -7.3541 O.co2     1 <0>        -0.6914
     39 H1          1.0042    1.8801    0.0026 H         1 <0>         0.0770
     40 H2         -0.5455    1.8639   -0.8728 H         1 <0>         0.0917
     41 H3         -0.5286    1.8543    0.9071 H         1 <0>         0.0888
     42 H4         -0.0670   -4.6619   -0.0326 H         1 <0>         0.1392
     43 H5          1.4008   -6.6354   -0.0508 H         1 <0>         0.1322
     44 H6          3.8450   -6.3565   -0.0513 H         1 <0>         0.1275
     45 H7          4.8357   -4.1050   -0.0321 H         1 <0>         0.1295
     46 H8          3.3858   -2.1181   -0.0249 H         1 <0>         0.1293
     47 H9         -3.1156   -1.1316    0.5243 H         1 <0>         0.0817
     48 H10        -2.6018    0.5726    0.5316 H         1 <0>         0.0793
     49 H11        -2.4061    0.5242   -1.9398 H         1 <0>         0.0638
     50 H12        -2.9200   -1.1800   -1.9471 H         1 <0>         0.0703
     51 H13        -5.0756   -0.5344   -0.9055 H         1 <0>         0.0695
     52 H14        -4.5618    1.1697   -0.8982 H         1 <0>         0.0679
     53 H15        -4.3855    2.4232   -2.9723 H         1 <0>         0.1131
     54 H16        -5.1827    2.6735   -5.2885 H         1 <0>         0.1145
     55 H17        -6.4304   -1.4048   -5.2999 H         1 <0>         0.1262
     56 H18        -5.6255   -1.6575   -2.9865 H         1 <0>         0.1152
     57 H19        -7.1842    0.1297   -7.0233 H         1 <0>         0.0762
     58 H20        -6.6640    1.8320   -7.0184 H         1 <0>         0.0580
     59 H21        -4.3396    1.0728   -7.5957 H         1 <0>         0.0674
     60 H22        -7.2952   -0.6434   -9.1374 H         1 <0>         0.1368
     61 H23        -8.0375   -0.2098  -11.4423 H         1 <0>         0.1184
     62 H24        -6.8260    1.4080  -12.8455 H         1 <0>         0.1164
     63 H25        -4.1212    2.1639   -9.6097 H         1 <0>         0.1183
     64 H26        -3.2156    3.3406  -10.6421 H         1 <0>         0.1260
     65 H27        -2.0033    4.9571  -12.0456 H         1 <0>         0.1210
     66 H28        -2.7510    5.3974  -14.3477 H         1 <0>         0.1181
     67 H29        -4.7130    4.2249  -15.2579 H         1 <0>         0.1199
     68 H30        -5.9311    2.5977  -13.8718 H         1 <0>         0.1239
@<TRIPOS>BOND
     1    1    2 1
     2    1   39 1
     3    1   40 1
     4    1   41 1
     5    2    6 1
     6    2    3 2
     7    3    4 1
     8    3   13 1
     9    4    5 2
    10    5    6 1
    11    5    7 1
    12    7   12 ar
    13    7    8 ar
    14    8    9 ar
    15    8   42 1
    16    9   10 ar
    17    9   43 1
    18   10   11 ar
    19   10   44 1
    20   11   12 ar
    21   11   45 1
    22   12   46 1
    23   13   14 1
    24   13   47 1
    25   13   48 1
    26   14   15 1
    27   14   49 1
    28   14   50 1
    29   15   16 1
    30   15   51 1
    31   15   52 1
    32   16   21 ar
    33   16   17 ar
    34   17   18 ar
    35   17   53 1
    36   18   19 ar
    37   18   54 1
    38   19   20 ar
    39   19   22 1
    40   20   21 ar
    41   20   55 1
    42   21   56 1
    43   22   23 1
    44   22   57 1
    45   22   58 1
    46   23   24 1
    47   23   36 1
    48   23   59 1
    49   24   29 ar
    50   24   25 ar
    51   25   26 ar
    52   25   60 1
    53   26   27 ar
    54   26   61 1
    55   27   28 ar
    56   27   62 1
    57   28   29 ar
    58   28   30 1
    59   29   63 1
    60   30   35 ar
    61   30   31 ar
    62   31   32 ar
    63   31   64 1
    64   32   33 ar
    65   32   65 1
    66   33   34 ar
    67   33   66 1
    68   34   35 ar
    69   34   67 1
    70   35   68 1
    71   36   37 2
    72   36   38 1
@<TRIPOS>MOLECULE
CHEMBL477298__1
   68    72     0     0     0
SMALL
USER_CHARGES

@<TRIPOS>ATOM
      1 C1         -0.0633    0.7664    0.0865 C.3       1 <0>        -0.0683
      2 C2         -0.1302   -0.7365   -0.0023 C.2       1 <0>        -0.0438
      3 C3         -1.2480   -1.4836   -0.0536 C.2       1 <0>        -0.0012
      4 N1         -0.8787   -2.7713   -0.1268 N.2       1 <0>        -0.4594
      5 C4          0.4320   -2.8328   -0.1217 C.2       1 <0>         0.2250
      6 O1          0.9185   -1.5816   -0.0509 O.3       1 <0>        -0.1956
      7 C5          1.2384   -4.0699   -0.1891 C.ar      1 <0>        -0.0137
      8 C6          0.6092   -5.3130   -0.2721 C.ar      1 <0>        -0.0707
      9 C7          1.3676   -6.4637   -0.3352 C.ar      1 <0>        -0.1204
     10 C8          2.7489   -6.3874   -0.3162 C.ar      1 <0>        -0.1026
     11 C9          3.3788   -5.1584   -0.2336 C.ar      1 <0>        -0.1212
     12 C10         2.6322   -3.9996   -0.1758 C.ar      1 <0>        -0.0916
     13 C11        -2.6632   -0.9660   -0.0320 C.3       1 <0>        -0.0370
     14 C12        -3.1329   -0.7058   -1.4647 C.3       1 <0>        -0.1062
     15 C13        -4.5696   -0.1803   -1.4429 C.3       1 <0>        -0.0729
     16 C14        -5.0323    0.0760   -2.8540 C.ar      1 <0>        -0.0996
     17 C15        -4.8280    1.3139   -3.4343 C.ar      1 <0>        -0.1168
     18 C16        -5.2523    1.5490   -4.7287 C.ar      1 <0>        -0.1190
     19 C17        -5.8806    0.5461   -5.4430 C.ar      1 <0>        -0.0651
     20 C18        -6.0841   -0.6921   -4.8631 C.ar      1 <0>        -0.1085
     21 C19        -5.6559   -0.9286   -3.5702 C.ar      1 <0>        -0.1134
     22 C20        -6.3441    0.8027   -6.8538 C.3       1 <0>        -0.0531
     23 C21        -5.1798    0.5815   -7.8214 C.3       1 <0>        -0.1175
     24 C22        -4.7833   -0.8724   -7.8063 C.ar      1 <0>        -0.0149
     25 C23        -5.7015   -1.8422   -8.1673 C.ar      1 <0>        -0.1067
     26 C24        -5.3445   -3.1782   -8.1557 C.ar      1 <0>        -0.1193
     27 C25        -4.0685   -3.5511   -7.7838 C.ar      1 <0>        -0.1267
     28 C26        -3.1397   -2.5786   -7.4198 C.ar      1 <0>        -0.0566
     29 C27        -3.5034   -1.2335   -7.4379 C.ar      1 <0>        -0.1007
     30 C28        -1.7666   -2.9734   -7.0187 C.ar      1 <0>        -0.0252
     31 C29        -0.8394   -2.0012   -6.6490 C.ar      1 <0>        -0.1125
     32 C30         0.4361   -2.3741   -6.2764 C.ar      1 <0>        -0.1170
     33 C31         0.7947   -3.7100   -6.2694 C.ar      1 <0>        -0.1290
     34 C32        -0.1217   -4.6792   -6.6354 C.ar      1 <0>        -0.1189
     35 C33        -1.4016   -4.3180   -7.0048 C.ar      1 <0>        -0.1163
     36 C34        -5.6027    0.9724   -9.2140 C.2       1 <0>         0.5030
     37 O2         -6.6980    1.4745   -9.4001 O.co2     1 <0>        -0.6915
     38 O3         -4.8495    0.7865  -10.1546 O.co2     1 <0>        -0.6899
     39 H1          0.9795    1.0831    0.1069 H         1 <0>         0.0775
     40 H2         -0.5590    1.2040   -0.7800 H         1 <0>         0.0913
     41 H3         -0.5619    1.0991    0.9969 H         1 <0>         0.0893
     42 H4         -0.4690   -5.3739   -0.2867 H         1 <0>         0.1381
     43 H5          0.8819   -7.4263   -0.3991 H         1 <0>         0.1318
     44 H6          3.3380   -7.2912   -0.3658 H         1 <0>         0.1276
     45 H7          4.4574   -5.1057   -0.2185 H         1 <0>         0.1297
     46 H8          3.1252   -3.0406   -0.1161 H         1 <0>         0.1291
     47 H9         -3.3135   -1.7057    0.4348 H         1 <0>         0.0815
     48 H10        -2.7018   -0.0373    0.5373 H         1 <0>         0.0797
     49 H11        -2.4825    0.0339   -1.9316 H         1 <0>         0.0631
     50 H12        -3.0943   -1.6345   -2.0341 H         1 <0>         0.0680
     51 H13        -5.2200   -0.9200   -0.9760 H         1 <0>         0.0694
     52 H14        -4.6082    0.7484   -0.8735 H         1 <0>         0.0689
     53 H15        -4.3371    2.0975   -2.8762 H         1 <0>         0.1140
     54 H16        -5.0933    2.5164   -5.1818 H         1 <0>         0.1184
     55 H17        -6.5753   -1.4756   -5.4210 H         1 <0>         0.1168
     56 H18        -5.8116   -1.8971   -3.1184 H         1 <0>         0.1135
     57 H19        -7.1559    0.1181   -7.0997 H         1 <0>         0.0690
     58 H20        -6.6971    1.8304   -6.9390 H         1 <0>         0.0788
     59 H21        -4.3311    1.1927   -7.5144 H         1 <0>         0.0701
     60 H22        -6.7009   -1.5549   -8.4589 H         1 <0>         0.1194
     61 H23        -6.0655   -3.9313   -8.4377 H         1 <0>         0.1172
     62 H24        -3.7908   -4.5947   -7.7748 H         1 <0>         0.1158
     63 H25        -2.7862   -0.4753   -7.1602 H         1 <0>         0.1148
     64 H26        -1.1182   -0.9578   -6.6545 H         1 <0>         0.1241
     65 H27         1.1557   -1.6213   -5.9900 H         1 <0>         0.1185
     66 H28         1.7940   -3.9973   -5.9775 H         1 <0>         0.1166
     67 H29         0.1636   -5.7208   -6.6286 H         1 <0>         0.1192
     68 H30        -2.1178   -5.0760   -7.2860 H         1 <0>         0.1234
@<TRIPOS>BOND
     1    1    2 1
     2    1   39 1
     3    1   40 1
     4    1   41 1
     5    2    6 1
     6    2    3 2
     7    3    4 1
     8    3   13 1
     9    4    5 2
    10    5    6 1
    11    5    7 1
    12    7   12 ar
    13    7    8 ar
    14    8    9 ar
    15    8   42 1
    16    9   10 ar
    17    9   43 1
    18   10   11 ar
    19   10   44 1
    20   11   12 ar
    21   11   45 1
    22   12   46 1
    23   13   14 1
    24   13   47 1
    25   13   48 1
    26   14   15 1
    27   14   49 1
    28   14   50 1
    29   15   16 1
    30   15   51 1
    31   15   52 1
    32   16   21 ar
    33   16   17 ar
    34   17   18 ar
    35   17   53 1
    36   18   19 ar
    37   18   54 1
    38   19   20 ar
    39   19   22 1
    40   20   21 ar
    41   20   55 1
    42   21   56 1
    43   22   23 1
    44   22   57 1
    45   22   58 1
    46   23   24 1
    47   23   36 1
    48   23   59 1
    49   24   29 ar
    50   24   25 ar
    51   25   26 ar
    52   25   60 1
    53   26   27 ar
    54   26   61 1
    55   27   28 ar
    56   27   62 1
    57   28   29 ar
    58   28   30 1
    59   29   63 1
    60   30   35 ar
    61   30   31 ar
    62   31   32 ar
    63   31   64 1
    64   32   33 ar
    65   32   65 1
    66   33   34 ar
    67   33   66 1
    68   34   35 ar
    69   34   67 1
    70   35   68 1
    71   36   37 2
    72   36   38 1
@<TRIPOS>MOLECULE
CHEMBL24458
   47    49     0     0     0
SMALL
USER_CHARGES

@<TRIPOS>ATOM
      1 C1         -0.0173    1.4248    0.0099 C.3       1 <0>         0.0190
      2 O1          0.0021   -0.0041    0.0020 O.3       1 <0>        -0.2792
      3 C2          0.6047   -0.6060   -1.0538 C.ar      1 <0>         0.1946
      4 C3          1.1724    0.1597   -2.0614 C.ar      1 <0>        -0.2178
      5 C4          1.7849   -0.4543   -3.1356 C.ar      1 <0>        -0.0365
      6 C5          1.8378   -1.8364   -3.2162 C.ar      1 <0>        -0.1461
      7 C6          1.2794   -2.6125   -2.2240 C.ar      1 <0>        -0.0287
      8 C7          0.6615   -2.0042   -1.1285 C.ar      1 <0>        -0.1724
      9 C8          0.0666   -2.8292   -0.0598 C.2       1 <0>         0.5628
     10 O2         -0.4750   -2.2961    0.8894 O.2       1 <0>        -0.5133
     11 N1          0.1235   -4.1736   -0.1356 N.am      1 <0>        -0.7277
     12 C9         -0.4673   -4.9927    0.9256 C.3       1 <0>         0.1596
     13 C10        -0.2699   -6.4515    0.6030 C.ar      1 <0>        -0.0782
     14 C11        -1.2189   -7.1300   -0.1384 C.ar      1 <0>        -0.1010
     15 C12        -1.0378   -8.4681   -0.4344 C.ar      1 <0>        -0.0712
     16 C13         0.0926   -9.1276    0.0108 C.ar      1 <0>        -0.1745
     17 C14         1.0421   -8.4488    0.7515 C.ar      1 <0>        -0.0700
     18 C15         0.8631   -7.1096    1.0437 C.ar      1 <0>        -0.0993
     19 C16         0.2896  -10.5866   -0.3110 C.3       1 <0>         0.5068
     20 F1          0.9805  -10.7080   -1.5214 F         1 <0>        -0.1751
     21 F2          1.0279  -11.1938    0.7104 F         1 <0>        -0.1755
     22 F3         -0.9569  -11.2123   -0.4207 F         1 <0>        -0.1760
     23 C17         2.5085   -2.4939   -4.3947 C.3       1 <0>        -0.0492
     24 C18         3.9907   -2.7099   -4.0827 C.3       1 <0>        -0.0728
     25 C19         4.6945   -3.4423   -5.2166 C.2       1 <0>         0.5304
     26 O3          4.7839   -2.9761   -6.3322 O.2       1 <0>        -0.4566
     27 N2          5.2019   -4.6218   -4.9006 N.am      1 <0>        -0.6898
     28 C20         5.1165   -5.1608   -3.6703 C.2       1 <0>         0.5614
     29 O4          5.5495   -6.2309   -3.2888 O.2       1 <0>        -0.4140
     30 S1          4.2186   -3.9364   -2.7283 S.3       1 <0>        -0.1458
     31 H1          1.0053    1.8021    0.0021 H         1 <0>         0.0583
     32 H2         -0.5445    1.7859   -0.8732 H         1 <0>         0.0583
     33 H3         -0.5275    1.7763    0.9067 H         1 <0>         0.1052
     34 H4          1.1349    1.2376   -2.0058 H         1 <0>         0.1394
     35 H5          2.2252    0.1463   -3.9178 H         1 <0>         0.1350
     36 H6          1.3226   -3.6896   -2.2912 H         1 <0>         0.1356
     37 H7          0.5555   -4.5988   -0.8928 H         1 <0>         0.4001
     38 H8          0.0164   -4.7618    1.8747 H         1 <0>         0.0835
     39 H9         -1.5334   -4.7780    0.9995 H         1 <0>         0.0833
     40 H10        -2.1021   -6.6148   -0.4862 H         1 <0>         0.1384
     41 H11        -1.7797   -8.9984   -1.0130 H         1 <0>         0.1391
     42 H12         1.9251   -8.9642    1.0995 H         1 <0>         0.1395
     43 H13         1.6067   -6.5784    1.6192 H         1 <0>         0.1389
     44 H14         2.0350   -3.4555   -4.5923 H         1 <0>         0.0915
     45 H15         2.4113   -1.8539   -5.2717 H         1 <0>         0.1089
     46 H16         4.4857   -1.7667   -3.8512 H         1 <0>         0.1622
     47 H17         5.6596   -5.1252   -5.5920 H         1 <0>         0.4190
@<TRIPOS>BOND
     1    1    2 1
     2    1   31 1
     3    1   32 1
     4    1   33 1
     5    2    3 1
     6    3    8 ar
     7    3    4 ar
     8    4    5 ar
     9    4   34 1
    10    5    6 ar
    11    5   35 1
    12    6    7 ar
    13    6   23 1
    14    7    8 ar
    15    7   36 1
    16    8    9 1
    17    9   10 2
    18    9   11 am
    19   11   12 1
    20   11   37 1
    21   12   13 1
    22   12   38 1
    23   12   39 1
    24   13   18 ar
    25   13   14 ar
    26   14   15 ar
    27   14   40 1
    28   15   16 ar
    29   15   41 1
    30   16   17 ar
    31   16   19 1
    32   17   18 ar
    33   17   42 1
    34   18   43 1
    35   19   20 1
    36   19   21 1
    37   19   22 1
    38   23   24 1
    39   23   44 1
    40   23   45 1
    41   24   30 1
    42   24   25 1
    43   24   46 1
    44   25   26 2
    45   25   27 am
    46   27   28 am
    47   27   47 1
    48   28   29 2
    49   28   30 1
@<TRIPOS>MOLECULE
CHEMBL24458__1
   47    49     0     0     0
SMALL
USER_CHARGES

@<TRIPOS>ATOM
      1 C1         -0.0173    1.4248    0.0099 C.3       1 <0>         0.0188
      2 O1          0.0021   -0.0041    0.0020 O.3       1 <0>        -0.2796
      3 C2          0.6047   -0.6060   -1.0538 C.ar      1 <0>         0.1950
      4 C3          1.1724    0.1597   -2.0614 C.ar      1 <0>        -0.2160
      5 C4          1.7849   -0.4543   -3.1356 C.ar      1 <0>        -0.0300
      6 C5          1.8378   -1.8364   -3.2162 C.ar      1 <0>        -0.1456
      7 C6          1.2794   -2.6125   -2.2240 C.ar      1 <0>        -0.0353
      8 C7          0.6615   -2.0042   -1.1285 C.ar      1 <0>        -0.1744
      9 C8          0.0666   -2.8292   -0.0598 C.2       1 <0>         0.5624
     10 O2         -0.4750   -2.2961    0.8894 O.2       1 <0>        -0.5125
     11 N1          0.1235   -4.1736   -0.1356 N.am      1 <0>        -0.7288
     12 C9         -0.4673   -4.9927    0.9256 C.3       1 <0>         0.1594
     13 C10        -0.2699   -6.4515    0.6030 C.ar      1 <0>        -0.0783
     14 C11        -1.2189   -7.1300   -0.1384 C.ar      1 <0>        -0.1006
     15 C12        -1.0378   -8.4681   -0.4344 C.ar      1 <0>        -0.0704
     16 C13         0.0926   -9.1276    0.0108 C.ar      1 <0>        -0.1742
     17 C14         1.0421   -8.4488    0.7515 C.ar      1 <0>        -0.0706
     18 C15         0.8631   -7.1096    1.0437 C.ar      1 <0>        -0.1008
     19 C16         0.2896  -10.5866   -0.3110 C.3       1 <0>         0.5069
     20 F1          0.9805  -10.7080   -1.5214 F         1 <0>        -0.1750
     21 F2          1.0279  -11.1938    0.7104 F         1 <0>        -0.1757
     22 F3         -0.9569  -11.2123   -0.4207 F         1 <0>        -0.1757
     23 C17         2.5085   -2.4939   -4.3947 C.3       1 <0>        -0.0493
     24 C18         3.9907   -2.7099   -4.0827 C.3       1 <0>        -0.0735
     25 C19         4.7272   -3.3029   -5.2757 C.2       1 <0>         0.5302
     26 O3          4.4507   -4.3915   -5.7322 O.2       1 <0>        -0.4564
     27 N2          5.6891   -2.5486   -5.7800 N.am      1 <0>        -0.6899
     28 C20         6.0150   -1.3372   -5.2921 C.2       1 <0>         0.5613
     29 O4          6.8776   -0.5771   -5.6872 O.2       1 <0>        -0.4154
     30 S1          4.8835   -1.1069   -3.9284 S.3       1 <0>        -0.1428
     31 H1          1.0053    1.8021    0.0021 H         1 <0>         0.0589
     32 H2         -0.5445    1.7859   -0.8732 H         1 <0>         0.0585
     33 H3         -0.5275    1.7763    0.9067 H         1 <0>         0.1052
     34 H4          1.1349    1.2376   -2.0058 H         1 <0>         0.1397
     35 H5          2.2252    0.1463   -3.9178 H         1 <0>         0.1372
     36 H6          1.3226   -3.6896   -2.2912 H         1 <0>         0.1337
     37 H7          0.5555   -4.5988   -0.8928 H         1 <0>         0.3994
     38 H8          0.0164   -4.7618    1.8747 H         1 <0>         0.0833
     39 H9         -1.5334   -4.7780    0.9995 H         1 <0>         0.0833
     40 H10        -2.1021   -6.6148   -0.4862 H         1 <0>         0.1387
     41 H11        -1.7797   -8.9984   -1.0130 H         1 <0>         0.1396
     42 H12         1.9251   -8.9642    1.0995 H         1 <0>         0.1394
     43 H13         1.6067   -6.5784    1.6192 H         1 <0>         0.1386
     44 H14         2.0350   -3.4555   -4.5923 H         1 <0>         0.1077
     45 H15         2.4113   -1.8539   -5.2717 H         1 <0>         0.0927
     46 H16         4.1199   -3.3233   -3.1910 H         1 <0>         0.1616
     47 H17         6.1863   -2.8861   -6.5415 H         1 <0>         0.4189
@<TRIPOS>BOND
     1    1    2 1
     2    1   31 1
     3    1   32 1
     4    1   33 1
     5    2    3 1
     6    3    8 ar
     7    3    4 ar
     8    4    5 ar
     9    4   34 1
    10    5    6 ar
    11    5   35 1
    12    6    7 ar
    13    6   23 1
    14    7    8 ar
    15    7   36 1
    16    8    9 1
    17    9   10 2
    18    9   11 am
    19   11   12 1
    20   11   37 1
    21   12   13 1
    22   12   38 1
    23   12   39 1
    24   13   18 ar
    25   13   14 ar
    26   14   15 ar
    27   14   40 1
    28   15   16 ar
    29   15   41 1
    30   16   17 ar
    31   16   19 1
    32   17   18 ar
    33   17   42 1
    34   18   43 1
    35   19   20 1
    36   19   21 1
    37   19   22 1
    38   23   24 1
    39   23   44 1
    40   23   45 1
    41   24   30 1
    42   24   25 1
    43   24   46 1
    44   25   26 2
    45   25   27 am
    46   27   28 am
    47   27   47 1
    48   28   29 2
    49   28   30 1
@<TRIPOS>MOLECULE
CHEMBL235143
   58    61     0     0     0
SMALL
USER_CHARGES

@<TRIPOS>ATOM
      1 C1          4.9042   -2.8132   -2.1902 C.3       1 <0>        -0.1226
      2 C2          3.5964   -2.0647   -2.2063 C.ar      1 <0>        -0.0468
      3 C3          2.4047   -2.7590   -2.2887 C.ar      1 <0>        -0.1908
      4 C4          1.2011   -2.0692   -2.3035 C.ar      1 <0>         0.1023
      5 C5          1.1975   -0.6831   -2.2354 C.ar      1 <0>        -0.1466
      6 C6          2.3916    0.0061   -2.1531 C.ar      1 <0>        -0.0812
      7 C7          3.5898   -0.6842   -2.1328 C.ar      1 <0>        -0.0920
      8 C8          4.8909    0.0701   -2.0363 C.3       1 <0>        -0.0580
      9 C9          5.4564    0.2933   -3.4403 C.3       1 <0>        -0.1757
     10 C10         6.7575    1.0476   -3.3437 C.2       1 <0>         0.4892
     11 O1          7.1921    1.3762   -2.2530 O.co2     1 <0>        -0.6983
     12 O2          7.3755    1.3292   -4.3563 O.co2     1 <0>        -0.7057
     13 O3          0.0277   -2.7496   -2.3850 O.3       1 <0>        -0.2646
     14 C11         0.0796   -4.1063   -2.4422 C.ar      1 <0>         0.0936
     15 C12         0.0528   -4.8529   -1.2727 C.ar      1 <0>        -0.1160
     16 C13         0.1057   -6.2317   -1.3336 C.ar      1 <0>        -0.1064
     17 C14         0.1853   -6.8683   -2.5587 C.ar      1 <0>        -0.1010
     18 C15         0.2127   -6.1269   -3.7253 C.ar      1 <0>        -0.1019
     19 C16         0.1538   -4.7477   -3.6702 C.ar      1 <0>        -0.1072
     20 C17         0.3000   -6.8241   -5.0585 C.3       1 <0>         0.1633
     21 N1         -1.0505   -7.1001   -5.5546 N.am      1 <0>        -0.7242
     22 C18        -1.2195   -7.7220   -6.7383 C.2       1 <0>         0.5844
     23 O4         -0.2507   -8.0541   -7.3947 O.2       1 <0>        -0.5114
     24 C19        -2.5752   -7.9990   -7.2363 C.2       1 <0>         0.0109
     25 C20        -2.8723   -8.6217   -8.4068 C.2       1 <0>        -0.0623
     26 C21        -4.2826   -8.6914   -8.5123 C.ar      1 <0>        -0.1090
     27 C22        -5.1502   -9.2125   -9.4812 C.ar      1 <0>        -0.0459
     28 C23        -6.5007   -9.1287   -9.2988 C.ar      1 <0>        -0.0626
     29 C24        -7.0248   -8.5301   -8.1585 C.ar      1 <0>        -0.0786
     30 C25        -6.1921   -8.0107   -7.1931 C.ar      1 <0>        -0.1179
     31 C26        -4.8115   -8.0847   -7.3566 C.ar      1 <0>         0.1204
     32 N2         -3.7495   -7.6730   -6.5859 N.pl3     1 <0>        -0.5757
     33 H1         -3.8143   -7.2249   -5.7281 H         1 <0>         0.4196
     34 Cl1        -7.5730   -9.7748  -10.5014 Cl        1 <0>        -0.0714
     35 C27        -1.8791   -9.1437   -9.4128 C.3       1 <0>        -0.0962
     36 H2          5.1756   -3.0485   -1.1610 H         1 <0>         0.0713
     37 H3          4.8010   -3.7373   -2.7590 H         1 <0>         0.0615
     38 H4          5.6820   -2.1954   -2.6389 H         1 <0>         0.0821
     39 H5          2.4102   -3.8376   -2.3420 H         1 <0>         0.1222
     40 H6          0.2619   -0.1438   -2.2471 H         1 <0>         0.1271
     41 H7          2.3894    1.0848   -2.1001 H         1 <0>         0.1311
     42 H8          4.7176    1.0336   -1.5570 H         1 <0>         0.0700
     43 H9          5.6024   -0.5068   -1.4455 H         1 <0>         0.0726
     44 H10         5.6297   -0.6702   -3.9196 H         1 <0>         0.0575
     45 H11         4.7450    0.8702   -4.0311 H         1 <0>         0.0566
     46 H12        -0.0091   -4.3562   -0.3157 H         1 <0>         0.1334
     47 H13         0.0852   -6.8131   -0.4237 H         1 <0>         0.1331
     48 H14         0.2266   -7.9466   -2.6042 H         1 <0>         0.1296
     49 H15         0.1703   -4.1691   -4.5820 H         1 <0>         0.1335
     50 H16         0.8246   -6.1851   -5.7689 H         1 <0>         0.0848
     51 H17         0.8434   -7.7619   -4.9432 H         1 <0>         0.0855
     52 H18        -1.8230   -6.8352   -5.0312 H         1 <0>         0.3970
     53 H19        -4.7518   -9.6788  -10.3702 H         1 <0>         0.1369
     54 H20        -8.0954   -8.4718   -8.0291 H         1 <0>         0.1391
     55 H21        -6.6088   -7.5470   -6.3111 H         1 <0>         0.1339
     56 H22        -1.6304  -10.1779   -9.1749 H         1 <0>         0.0732
     57 H23        -2.3135   -9.0949  -10.4113 H         1 <0>         0.0660
     58 H24        -0.9750   -8.5358   -9.3799 H         1 <0>         0.0885
@<TRIPOS>BOND
     1    1    2 1
     2    1   36 1
     3    1   37 1
     4    1   38 1
     5    2    7 ar
     6    2    3 ar
     7    3    4 ar
     8    3   39 1
     9    4    5 ar
    10    4   13 1
    11    5    6 ar
    12    5   40 1
    13    6    7 ar
    14    6   41 1
    15    7    8 1
    16    8    9 1
    17    8   42 1
    18    8   43 1
    19    9   10 1
    20    9   44 1
    21    9   45 1
    22   10   11 2
    23   10   12 1
    24   13   14 1
    25   14   19 ar
    26   14   15 ar
    27   15   16 ar
    28   15   46 1
    29   16   17 ar
    30   16   47 1
    31   17   18 ar
    32   17   48 1
    33   18   19 ar
    34   18   20 1
    35   19   49 1
    36   20   21 1
    37   20   50 1
    38   20   51 1
    39   21   22 am
    40   21   52 1
    41   22   23 2
    42   22   24 1
    43   24   32 1
    44   24   25 2
    45   25   26 1
    46   25   35 1
    47   26   31 ar
    48   26   27 ar
    49   27   28 ar
    50   27   53 1
    51   28   29 ar
    52   28   34 1
    53   29   30 ar
    54   29   54 1
    55   30   31 ar
    56   30   55 1
    57   31   32 1
    58   32   33 1
    59   35   56 1
    60   35   57 1
    61   35   58 1
@<TRIPOS>MOLECULE
CHEMBL230623
   61    62     0     0     0
SMALL
USER_CHARGES

@<TRIPOS>ATOM
      1 C1         -0.0187    1.5258    0.0104 C.3       1 <0>        -0.1468
      2 C2          0.0021   -0.0041    0.0020 C.3       1 <0>        -0.1204
      3 C3          0.7182   -0.4975   -1.2568 C.3       1 <0>         0.0833
      4 O1          0.7376   -1.9263   -1.2646 O.3       1 <0>        -0.2770
      5 N1          1.3814   -2.4874   -2.3941 N.2       1 <0>        -0.2648
      6 C4          1.4644   -3.7583   -2.5176 C.2       1 <0>         0.1240
      7 C5          0.8770   -4.6579   -1.4609 C.3       1 <0>        -0.1448
      8 C6          2.1496   -4.3554   -3.7197 C.3       1 <0>        -0.1046
      9 C7          3.4054   -5.1052   -3.2708 C.3       1 <0>        -0.0408
     10 C8          4.0230   -5.8045   -4.4543 C.ar      1 <0>        -0.1086
     11 C9          3.6395   -7.0947   -4.7708 C.ar      1 <0>        -0.0843
     12 C10         4.2044   -7.7381   -5.8550 C.ar      1 <0>        -0.1787
     13 C11         5.1569   -7.0884   -6.6266 C.ar      1 <0>         0.1196
     14 C12         5.5396   -5.7938   -6.3071 C.ar      1 <0>        -0.2304
     15 C13         4.9679   -5.1529   -5.2250 C.ar      1 <0>         0.0245
     16 O2          5.7144   -7.7194   -7.6933 O.3       1 <0>        -0.3220
     17 C14         6.6883   -6.9897   -8.4424 C.3       1 <0>         0.0699
     18 C15         7.1992   -7.8562   -9.5953 C.3       1 <0>        -0.0331
     19 C16         8.2262   -7.0867  -10.3852 C.2       1 <0>        -0.0114
     20 C17         7.9818   -6.2883  -11.4375 C.2       1 <0>        -0.0381
     21 O3          9.1681   -5.7976  -11.8470 O.3       1 <0>        -0.1972
     22 C18        10.1165   -6.2991  -11.0446 C.2       1 <0>         0.1932
     23 N2          9.5519   -7.0708  -10.1602 N.2       1 <0>        -0.4730
     24 C19        11.5926   -6.0127  -11.1451 C.3       1 <0>         0.0040
     25 C20        12.1066   -6.4589  -12.5153 C.3       1 <0>        -0.1491
     26 C21        11.8337   -4.5115  -10.9740 C.3       1 <0>        -0.1509
     27 C22         6.6343   -5.9968  -12.0461 C.3       1 <0>        -0.0723
     28 C23         2.5357   -3.2560   -4.6754 C.2       1 <0>         0.4998
     29 O4          3.5166   -3.3844   -5.3881 O.co2     1 <0>        -0.6843
     30 O5          1.8672   -2.2382   -4.7360 O.co2     1 <0>        -0.6660
     31 H1          1.0039    1.9031    0.0027 H         1 <0>         0.0563
     32 H2         -0.5459    1.8868   -0.8726 H         1 <0>         0.0570
     33 H3         -0.5289    1.8773    0.9072 H         1 <0>         0.0575
     34 H4          0.5293   -0.3651    0.8851 H         1 <0>         0.0652
     35 H5         -1.0205   -0.3814    0.0098 H         1 <0>         0.0660
     36 H6          0.1910   -0.1364   -2.1398 H         1 <0>         0.0534
     37 H7          1.7408   -0.1202   -1.2645 H         1 <0>         0.0489
     38 H8         -0.1594   -4.8842   -1.7115 H         1 <0>         0.0704
     39 H9          1.4497   -5.5841   -1.4129 H         1 <0>         0.0706
     40 H10         0.9158   -4.1562   -0.4940 H         1 <0>         0.0679
     41 H11         1.4713   -5.0482   -4.2177 H         1 <0>         0.0846
     42 H12         4.1213   -4.3975   -2.8528 H         1 <0>         0.0638
     43 H13         3.1376   -5.8414   -2.5129 H         1 <0>         0.0565
     44 H14         2.8979   -7.6000   -4.1699 H         1 <0>         0.1173
     45 H15         3.9050   -8.7461   -6.1014 H         1 <0>         0.1173
     46 H16         6.2809   -5.2859   -6.9062 H         1 <0>         0.1141
     47 H17         5.2623   -4.1434   -4.9786 H         1 <0>         0.1408
     48 H18         6.2343   -6.0832   -8.8427 H         1 <0>         0.0608
     49 H19         7.5212   -6.7222   -7.7921 H         1 <0>         0.0624
     50 H20         7.6532   -8.7627   -9.1949 H         1 <0>         0.0908
     51 H21         6.3662   -8.1236  -10.2455 H         1 <0>         0.0896
     52 H22        12.1224   -6.5572  -10.3634 H         1 <0>         0.1126
     53 H23        11.5769   -5.9144  -13.2970 H         1 <0>         0.0623
     54 H24        13.1743   -6.2517  -12.5880 H         1 <0>         0.0727
     55 H25        11.9349   -7.5283  -12.6372 H         1 <0>         0.0609
     56 H26        11.4675   -4.1937   -9.9978 H         1 <0>         0.0632
     57 H27        12.9014   -4.3044  -11.0466 H         1 <0>         0.0729
     58 H28        11.3040   -3.9671  -11.7556 H         1 <0>         0.0627
     59 H29         6.1964   -5.1255  -11.5589 H         1 <0>         0.0889
     60 H30         6.7522   -5.7966  -13.1111 H         1 <0>         0.0785
     61 H31         5.9796   -6.8573  -11.9085 H         1 <0>         0.0945
@<TRIPOS>BOND
     1    1    2 1
     2    1   31 1
     3    1   32 1
     4    1   33 1
     5    2    3 1
     6    2   34 1
     7    2   35 1
     8    3    4 1
     9    3   36 1
    10    3   37 1
    11    4    5 1
    12    5    6 2
    13    6    7 1
    14    6    8 1
    15    7   38 1
    16    7   39 1
    17    7   40 1
    18    8    9 1
    19    8   28 1
    20    8   41 1
    21    9   10 1
    22    9   42 1
    23    9   43 1
    24   10   15 ar
    25   10   11 ar
    26   11   12 ar
    27   11   44 1
    28   12   13 ar
    29   12   45 1
    30   13   14 ar
    31   13   16 1
    32   14   15 ar
    33   14   46 1
    34   15   47 1
    35   16   17 1
    36   17   18 1
    37   17   48 1
    38   17   49 1
    39   18   19 1
    40   18   50 1
    41   18   51 1
    42   19   23 1
    43   19   20 2
    44   20   21 1
    45   20   27 1
    46   21   22 1
    47   22   23 2
    48   22   24 1
    49   24   25 1
    50   24   26 1
    51   24   52 1
    52   25   53 1
    53   25   54 1
    54   25   55 1
    55   26   56 1
    56   26   57 1
    57   26   58 1
    58   27   59 1
    59   27   60 1
    60   27   61 1
    61   28   29 2
    62   28   30 1
@<TRIPOS>MOLECULE
CHEMBL230623__1
   61    62     0     0     0
SMALL
USER_CHARGES

@<TRIPOS>ATOM
      1 C1         -0.0187    1.5258    0.0104 C.3       1 <0>        -0.1470
      2 C2          0.0021   -0.0041    0.0020 C.3       1 <0>        -0.1197
      3 C3          0.7182   -0.4975   -1.2568 C.3       1 <0>         0.0798
      4 O1          0.7376   -1.9263   -1.2646 O.3       1 <0>        -0.2686
      5 N1          1.3814   -2.4874   -2.3941 N.2       1 <0>        -0.2925
      6 C4          1.4644   -3.7583   -2.5176 C.2       1 <0>         0.1383
      7 C5          0.8770   -4.6579   -1.4609 C.3       1 <0>        -0.1448
      8 C6          2.1496   -4.3554   -3.7197 C.3       1 <0>        -0.1054
      9 C7          1.1289   -5.1291   -4.5566 C.3       1 <0>        -0.0492
     10 C8          1.8347   -5.8274   -5.6902 C.ar      1 <0>        -0.0980
     11 C9          2.0016   -5.1818   -6.9014 C.ar      1 <0>        -0.0518
     12 C10         2.6479   -5.8200   -7.9423 C.ar      1 <0>        -0.1468
     13 C11         3.1300   -7.1096   -7.7714 C.ar      1 <0>         0.1167
     14 C12         2.9616   -7.7550   -6.5550 C.ar      1 <0>        -0.2116
     15 C13         2.3192   -7.1106   -5.5155 C.ar      1 <0>        -0.0802
     16 O2          3.7657   -7.7397   -8.7940 O.3       1 <0>        -0.3171
     17 C14         4.2357   -9.0663   -8.5466 C.3       1 <0>         0.0695
     18 C15         4.9190   -9.6081   -9.8037 C.3       1 <0>        -0.0347
     19 C16         5.4146  -11.0071   -9.5428 C.2       1 <0>        -0.0113
     20 C17         6.6214  -11.3430   -9.0575 C.2       1 <0>        -0.0385
     21 O3          6.6566  -12.6877   -8.9781 O.3       1 <0>        -0.1972
     22 C18         5.4783  -13.1536   -9.4131 C.2       1 <0>         0.1937
     23 N2          4.7265  -12.1441   -9.7482 N.2       1 <0>        -0.4731
     24 C19         5.0852  -14.6061   -9.4954 C.3       1 <0>         0.0037
     25 C20         6.0498  -15.3436  -10.4262 C.3       1 <0>        -0.1495
     26 C21         5.1453  -15.2306   -8.0999 C.3       1 <0>        -0.1504
     27 C22         7.7279  -10.3943   -8.6745 C.3       1 <0>        -0.0723
     28 C23         2.7513   -3.2538   -4.5536 C.2       1 <0>         0.5142
     29 O4          3.9530   -3.2314   -4.7586 O.co2     1 <0>        -0.6991
     30 O5          2.0365   -2.3850   -5.0234 O.co2     1 <0>        -0.6775
     31 H1          1.0039    1.9031    0.0027 H         1 <0>         0.0568
     32 H2         -0.5459    1.8868   -0.8726 H         1 <0>         0.0573
     33 H3         -0.5289    1.8773    0.9072 H         1 <0>         0.0580
     34 H4          0.5293   -0.3651    0.8851 H         1 <0>         0.0658
     35 H5         -1.0205   -0.3814    0.0098 H         1 <0>         0.0665
     36 H6          0.1910   -0.1364   -2.1398 H         1 <0>         0.0539
     37 H7          1.7408   -0.1202   -1.2645 H         1 <0>         0.0509
     38 H8         -0.1594   -4.8842   -1.7115 H         1 <0>         0.0738
     39 H9          1.4497   -5.5841   -1.4129 H         1 <0>         0.0702
     40 H10         0.9158   -4.1562   -0.4940 H         1 <0>         0.0690
     41 H11         2.9372   -5.0328   -3.3897 H         1 <0>         0.0834
     42 H12         0.6298   -5.8677   -3.9293 H         1 <0>         0.0605
     43 H13         0.3902   -4.4365   -4.9601 H         1 <0>         0.0774
     44 H14         1.6262   -4.1779   -7.0340 H         1 <0>         0.1359
     45 H15         2.7774   -5.3156   -8.8885 H         1 <0>         0.1263
     46 H16         3.3359   -8.7590   -6.4195 H         1 <0>         0.1189
     47 H17         2.1917   -7.6109   -4.5670 H         1 <0>         0.1196
     48 H18         4.9495   -9.0512   -7.7229 H         1 <0>         0.0600
     49 H19         3.3936   -9.7074   -8.2858 H         1 <0>         0.0625
     50 H20         4.2052   -9.6232  -10.6273 H         1 <0>         0.0923
     51 H21         5.7611   -8.9670  -10.0645 H         1 <0>         0.0915
     52 H22         4.0707  -14.6864   -9.8859 H         1 <0>         0.1128
     53 H23         7.0643  -15.2634  -10.0356 H         1 <0>         0.0624
     54 H24         5.7655  -16.3942  -10.4857 H         1 <0>         0.0730
     55 H25         6.0070  -14.8988  -11.4203 H         1 <0>         0.0614
     56 H26         4.4581  -14.7051   -7.4368 H         1 <0>         0.0623
     57 H27         4.8610  -16.2811   -8.1594 H         1 <0>         0.0732
     58 H28         6.1598  -15.1503   -7.7093 H         1 <0>         0.0626
     59 H29         7.6230  -10.1184   -7.6252 H         1 <0>         0.0876
     60 H30         8.6918  -10.8794   -8.8280 H         1 <0>         0.0791
     61 H31         7.6692   -9.4988   -9.2932 H         1 <0>         0.0955
@<TRIPOS>BOND
     1    1    2 1
     2    1   31 1
     3    1   32 1
     4    1   33 1
     5    2    3 1
     6    2   34 1
     7    2   35 1
     8    3    4 1
     9    3   36 1
    10    3   37 1
    11    4    5 1
    12    5    6 2
    13    6    7 1
    14    6    8 1
    15    7   38 1
    16    7   39 1
    17    7   40 1
    18    8    9 1
    19    8   28 1
    20    8   41 1
    21    9   10 1
    22    9   42 1
    23    9   43 1
    24   10   15 ar
    25   10   11 ar
    26   11   12 ar
    27   11   44 1
    28   12   13 ar
    29   12   45 1
    30   13   14 ar
    31   13   16 1
    32   14   15 ar
    33   14   46 1
    34   15   47 1
    35   16   17 1
    36   17   18 1
    37   17   48 1
    38   17   49 1
    39   18   19 1
    40   18   50 1
    41   18   51 1
    42   19   23 1
    43   19   20 2
    44   20   21 1
    45   20   27 1
    46   21   22 1
    47   22   23 2
    48   22   24 1
    49   24   25 1
    50   24   26 1
    51   24   52 1
    52   25   53 1
    53   25   54 1
    54   25   55 1
    55   26   56 1
    56   26   57 1
    57   26   58 1
    58   27   59 1
    59   27   60 1
    60   27   61 1
    61   28   29 2
    62   28   30 1
@<TRIPOS>MOLECULE
CHEMBL230519
   58    59     0     0     0
SMALL
USER_CHARGES

@<TRIPOS>ATOM
      1 C1         -0.0187    1.5258    0.0104 C.3       1 <0>        -0.1468
      2 C2          0.0021   -0.0041    0.0020 C.3       1 <0>        -0.1204
      3 C3          0.7182   -0.4975   -1.2568 C.3       1 <0>         0.0832
      4 O1          0.7376   -1.9263   -1.2646 O.3       1 <0>        -0.2771
      5 N1          1.3814   -2.4874   -2.3941 N.2       1 <0>        -0.2645
      6 C4          1.4644   -3.7583   -2.5176 C.2       1 <0>         0.1240
      7 C5          0.8770   -4.6579   -1.4609 C.3       1 <0>        -0.1448
      8 C6          2.1496   -4.3554   -3.7197 C.3       1 <0>        -0.1050
      9 C7          3.4054   -5.1052   -3.2708 C.3       1 <0>        -0.0407
     10 C8          4.0230   -5.8045   -4.4543 C.ar      1 <0>        -0.1082
     11 C9          3.6395   -7.0947   -4.7708 C.ar      1 <0>        -0.0835
     12 C10         4.2044   -7.7381   -5.8550 C.ar      1 <0>        -0.1776
     13 C11         5.1569   -7.0884   -6.6266 C.ar      1 <0>         0.1192
     14 C12         5.5396   -5.7938   -6.3071 C.ar      1 <0>        -0.2317
     15 C13         4.9679   -5.1529   -5.2250 C.ar      1 <0>         0.0254
     16 O2          5.7144   -7.7194   -7.6933 O.3       1 <0>        -0.3163
     17 C14         6.6883   -6.9897   -8.4424 C.3       1 <0>         0.1463
     18 C15         7.1915   -7.8432   -9.5779 C.2       1 <0>        -0.0146
     19 C16         8.2370   -8.6855   -9.5336 C.2       1 <0>        -0.0220
     20 O3          8.3455   -9.2473  -10.7536 O.3       1 <0>        -0.1978
     21 C17         7.3711   -8.7443  -11.5232 C.2       1 <0>         0.1925
     22 N2          6.6712   -7.9032  -10.8165 N.2       1 <0>        -0.4627
     23 C18         7.1220   -9.0980  -12.9667 C.3       1 <0>         0.0040
     24 C19         8.3577   -8.7479  -13.7982 C.3       1 <0>        -0.1492
     25 C20         6.8372  -10.5968  -13.0828 C.3       1 <0>        -0.1497
     26 C21         9.1222   -8.9516   -8.3434 C.3       1 <0>        -0.0698
     27 C22         2.5357   -3.2560   -4.6754 C.2       1 <0>         0.4998
     28 O4          3.5166   -3.3844   -5.3881 O.co2     1 <0>        -0.6840
     29 O5          1.8672   -2.2382   -4.7360 O.co2     1 <0>        -0.6657
     30 H1          1.0039    1.9031    0.0027 H         1 <0>         0.0563
     31 H2         -0.5459    1.8868   -0.8726 H         1 <0>         0.0571
     32 H3         -0.5289    1.8773    0.9072 H         1 <0>         0.0574
     33 H4          0.5293   -0.3651    0.8851 H         1 <0>         0.0651
     34 H5         -1.0205   -0.3814    0.0098 H         1 <0>         0.0659
     35 H6          0.1910   -0.1364   -2.1398 H         1 <0>         0.0535
     36 H7          1.7408   -0.1202   -1.2645 H         1 <0>         0.0490
     37 H8         -0.1594   -4.8842   -1.7115 H         1 <0>         0.0703
     38 H9          1.4497   -5.5841   -1.4129 H         1 <0>         0.0705
     39 H10         0.9158   -4.1562   -0.4940 H         1 <0>         0.0679
     40 H11         1.4713   -5.0482   -4.2177 H         1 <0>         0.0846
     41 H12         4.1213   -4.3975   -2.8528 H         1 <0>         0.0642
     42 H13         3.1376   -5.8414   -2.5129 H         1 <0>         0.0564
     43 H14         2.8979   -7.6000   -4.1699 H         1 <0>         0.1173
     44 H15         3.9050   -8.7461   -6.1014 H         1 <0>         0.1162
     45 H16         6.2809   -5.2859   -6.9062 H         1 <0>         0.1160
     46 H17         5.2623   -4.1434   -4.9786 H         1 <0>         0.1420
     47 H18         6.2343   -6.0832   -8.8427 H         1 <0>         0.0804
     48 H19         7.5212   -6.7222   -7.7921 H         1 <0>         0.0774
     49 H20         6.2644   -8.5355  -13.3359 H         1 <0>         0.1137
     50 H21         9.2153   -9.3104  -13.4291 H         1 <0>         0.0620
     51 H22         8.1775   -9.0037  -14.8423 H         1 <0>         0.0728
     52 H23         8.5607   -7.6801  -13.7155 H         1 <0>         0.0620
     53 H24         5.9568  -10.8462  -12.4904 H         1 <0>         0.0626
     54 H25         6.6570  -10.8526  -14.1269 H         1 <0>         0.0729
     55 H26         7.6948  -11.1593  -12.7136 H         1 <0>         0.0620
     56 H27         8.7105   -9.7763   -7.7616 H         1 <0>         0.0892
     57 H28        10.1232   -9.2132   -8.6865 H         1 <0>         0.0790
     58 H29         9.1733   -8.0580   -7.7215 H         1 <0>         0.0941
@<TRIPOS>BOND
     1    1    2 1
     2    1   30 1
     3    1   31 1
     4    1   32 1
     5    2    3 1
     6    2   33 1
     7    2   34 1
     8    3    4 1
     9    3   35 1
    10    3   36 1
    11    4    5 1
    12    5    6 2
    13    6    7 1
    14    6    8 1
    15    7   37 1
    16    7   38 1
    17    7   39 1
    18    8    9 1
    19    8   27 1
    20    8   40 1
    21    9   10 1
    22    9   41 1
    23    9   42 1
    24   10   15 ar
    25   10   11 ar
    26   11   12 ar
    27   11   43 1
    28   12   13 ar
    29   12   44 1
    30   13   14 ar
    31   13   16 1
    32   14   15 ar
    33   14   45 1
    34   15   46 1
    35   16   17 1
    36   17   18 1
    37   17   47 1
    38   17   48 1
    39   18   22 1
    40   18   19 2
    41   19   20 1
    42   19   26 1
    43   20   21 1
    44   21   22 2
    45   21   23 1
    46   23   24 1
    47   23   25 1
    48   23   49 1
    49   24   50 1
    50   24   51 1
    51   24   52 1
    52   25   53 1
    53   25   54 1
    54   25   55 1
    55   26   56 1
    56   26   57 1
    57   26   58 1
    58   27   28 2
    59   27   29 1
@<TRIPOS>MOLECULE
CHEMBL230519__1
   58    59     0     0     0
SMALL
USER_CHARGES

@<TRIPOS>ATOM
      1 C1         -0.0187    1.5258    0.0104 C.3       1 <0>        -0.1470
      2 C2          0.0021   -0.0041    0.0020 C.3       1 <0>        -0.1197
      3 C3          0.7182   -0.4975   -1.2568 C.3       1 <0>         0.0798
      4 O1          0.7376   -1.9263   -1.2646 O.3       1 <0>        -0.2687
      5 N1          1.3814   -2.4874   -2.3941 N.2       1 <0>        -0.2925
      6 C4          1.4644   -3.7583   -2.5176 C.2       1 <0>         0.1384
      7 C5          0.8770   -4.6579   -1.4609 C.3       1 <0>        -0.1447
      8 C6          2.1496   -4.3554   -3.7197 C.3       1 <0>        -0.1057
      9 C7          1.1289   -5.1291   -4.5566 C.3       1 <0>        -0.0491
     10 C8          1.8347   -5.8274   -5.6902 C.ar      1 <0>        -0.0977
     11 C9          2.0016   -5.1818   -6.9014 C.ar      1 <0>        -0.0509
     12 C10         2.6479   -5.8200   -7.9423 C.ar      1 <0>        -0.1458
     13 C11         3.1300   -7.1096   -7.7714 C.ar      1 <0>         0.1164
     14 C12         2.9616   -7.7550   -6.5550 C.ar      1 <0>        -0.2127
     15 C13         2.3192   -7.1106   -5.5155 C.ar      1 <0>        -0.0792
     16 O2          3.7657   -7.7397   -8.7940 O.3       1 <0>        -0.3118
     17 C14         4.2357   -9.0663   -8.5466 C.3       1 <0>         0.1465
     18 C15         4.9087   -9.5999   -9.7848 C.2       1 <0>        -0.0176
     19 C16         4.3138  -10.2758  -10.7817 C.2       1 <0>        -0.0201
     20 O3          5.2675  -10.5666  -11.6881 O.3       1 <0>        -0.1970
     21 C17         6.4260  -10.0678  -11.2365 C.2       1 <0>         0.1948
     22 N2          6.2120   -9.4803  -10.0938 N.2       1 <0>        -0.4630
     23 C18         7.7563  -10.1650  -11.9379 C.3       1 <0>         0.0036
     24 C19         8.1280  -11.6374  -12.1246 C.3       1 <0>        -0.1490
     25 C20         7.6627   -9.4853  -13.3054 C.3       1 <0>        -0.1504
     26 C21         2.8543  -10.6407  -10.8695 C.3       1 <0>        -0.0704
     27 C22         2.7513   -3.2538   -4.5536 C.2       1 <0>         0.5137
     28 O4          3.9530   -3.2314   -4.7586 O.co2     1 <0>        -0.6982
     29 O5          2.0365   -2.3850   -5.0234 O.co2     1 <0>        -0.6781
     30 H1          1.0039    1.9031    0.0027 H         1 <0>         0.0568
     31 H2         -0.5459    1.8868   -0.8726 H         1 <0>         0.0572
     32 H3         -0.5289    1.8773    0.9072 H         1 <0>         0.0580
     33 H4          0.5293   -0.3651    0.8851 H         1 <0>         0.0659
     34 H5         -1.0205   -0.3814    0.0098 H         1 <0>         0.0664
     35 H6          0.1910   -0.1364   -2.1398 H         1 <0>         0.0538
     36 H7          1.7408   -0.1202   -1.2645 H         1 <0>         0.0509
     37 H8         -0.1594   -4.8842   -1.7115 H         1 <0>         0.0737
     38 H9          1.4497   -5.5841   -1.4129 H         1 <0>         0.0704
     39 H10         0.9158   -4.1562   -0.4940 H         1 <0>         0.0689
     40 H11         2.9372   -5.0328   -3.3897 H         1 <0>         0.0838
     41 H12         0.6298   -5.8677   -3.9293 H         1 <0>         0.0608
     42 H13         0.3902   -4.4365   -4.9601 H         1 <0>         0.0773
     43 H14         1.6262   -4.1779   -7.0340 H         1 <0>         0.1359
     44 H15         2.7774   -5.3156   -8.8885 H         1 <0>         0.1251
     45 H16         3.3359   -8.7590   -6.4195 H         1 <0>         0.1208
     46 H17         2.1917   -7.6109   -4.5670 H         1 <0>         0.1209
     47 H18         4.9495   -9.0512   -7.7229 H         1 <0>         0.0795
     48 H19         3.3936   -9.7074   -8.2858 H         1 <0>         0.0772
     49 H20         8.5203   -9.6707  -11.3380 H         1 <0>         0.1142
     50 H21         7.3639  -12.1317  -12.7245 H         1 <0>         0.0620
     51 H22         9.0901  -11.7077  -12.6319 H         1 <0>         0.0732
     52 H23         8.1946  -12.1217  -11.1504 H         1 <0>         0.0615
     53 H24         7.3979   -8.4363  -13.1724 H         1 <0>         0.0634
     54 H25         8.6248   -9.5556  -13.8127 H         1 <0>         0.0734
     55 H26         6.8986   -9.9796  -13.9053 H         1 <0>         0.0621
     56 H27         2.3103   -9.8436  -11.3762 H         1 <0>         0.0902
     57 H28         2.7449  -11.5688  -11.4306 H         1 <0>         0.0796
     58 H29         2.4519  -10.7738   -9.8653 H         1 <0>         0.0932
@<TRIPOS>BOND
     1    1    2 1
     2    1   30 1
     3    1   31 1
     4    1   32 1
     5    2    3 1
     6    2   33 1
     7    2   34 1
     8    3    4 1
     9    3   35 1
    10    3   36 1
    11    4    5 1
    12    5    6 2
    13    6    7 1
    14    6    8 1
    15    7   37 1
    16    7   38 1
    17    7   39 1
    18    8    9 1
    19    8   27 1
    20    8   40 1
    21    9   10 1
    22    9   41 1
    23    9   42 1
    24   10   15 ar
    25   10   11 ar
    26   11   12 ar
    27   11   43 1
    28   12   13 ar
    29   12   44 1
    30   13   14 ar
    31   13   16 1
    32   14   15 ar
    33   14   45 1
    34   15   46 1
    35   16   17 1
    36   17   18 1
    37   17   47 1
    38   17   48 1
    39   18   22 1
    40   18   19 2
    41   19   20 1
    42   19   26 1
    43   20   21 1
    44   21   22 2
    45   21   23 1
    46   23   24 1
    47   23   25 1
    48   23   49 1
    49   24   50 1
    50   24   51 1
    51   24   52 1
    52   25   53 1
    53   25   54 1
    54   25   55 1
    55   26   56 1
    56   26   57 1
    57   26   58 1
    58   27   28 2
    59   27   29 1
@<TRIPOS>MOLECULE
CHEMBL182230
   57    59     0     0     0
SMALL
USER_CHARGES

@<TRIPOS>ATOM
      1 C1         -0.0066   -2.4371    0.6223 C.3       1 <0>         0.0441
      2 O1         -0.3479   -3.8014    0.3692 O.3       1 <0>        -0.3712
      3 C2          0.0850   -4.7071    1.3863 C.3       1 <0>         0.0312
      4 H1          0.1025   -4.1930    2.3472 H         1 <0>         0.0508
      5 C3         -0.8807   -5.8916    1.4591 C.3       1 <0>        -0.0681
      6 C4         -2.2360   -5.4080    1.9065 C.ar      1 <0>        -0.0482
      7 C5         -2.5415   -5.3656    3.2552 C.ar      1 <0>        -0.1215
      8 C6         -3.7804   -4.9234    3.6714 C.ar      1 <0>        -0.0948
      9 C7         -4.7261   -4.5185    2.7288 C.ar      1 <0>        -0.0131
     10 C8         -4.4118   -4.5637    1.3700 C.ar      1 <0>        -0.0942
     11 C9         -3.1674   -5.0030    0.9672 C.ar      1 <0>        -0.1021
     12 C10        -6.0140   -4.0589    3.1539 C.1       1 <0>        -0.1118
     13 C11        -7.0699   -3.6821    3.5025 C.1       1 <0>        -0.1882
     14 C12        -8.3937   -3.2097    3.9395 C.3       1 <0>         0.0059
     15 C13        -9.2297   -2.8308    2.7154 C.3       1 <0>        -0.1161
     16 C14       -10.6057   -2.3398    3.1697 C.3       1 <0>         0.0598
     17 O2        -11.3865   -1.9859    2.0264 O.3       1 <0>        -0.3123
     18 C15       -12.6455   -1.5267    2.2567 C.ar      1 <0>         0.1038
     19 C16       -13.1156   -1.4143    3.5569 C.ar      1 <0>        -0.1712
     20 C17       -14.3944   -0.9479    3.7910 C.ar      1 <0>        -0.1525
     21 C18       -15.2087   -0.5918    2.7257 C.ar      1 <0>         0.0831
     22 C19       -14.7384   -0.7042    1.4255 C.ar      1 <0>        -0.1039
     23 C20       -13.4575   -1.1653    1.1919 C.ar      1 <0>        -0.1142
     24 O3        -16.4677   -0.1330    2.9560 O.3       1 <0>        -0.2612
     25 C21       -16.8838   -0.0319    4.2456 C.ar      1 <0>         0.0844
     26 C22       -16.6789    1.1448    4.9518 C.ar      1 <0>        -0.1269
     27 C23       -17.1034    1.2451    6.2625 C.ar      1 <0>        -0.1065
     28 C24       -17.7316    0.1741    6.8709 C.ar      1 <0>        -0.1184
     29 C25       -17.9366   -0.9998    6.1696 C.ar      1 <0>        -0.1067
     30 C26       -17.5196   -1.1033    4.8567 C.ar      1 <0>        -0.1270
     31 C27         1.4686   -5.2064    1.0585 C.2       1 <0>         0.4778
     32 O4          2.0317   -4.8223    0.0477 O.co2     1 <0>        -0.6796
     33 O5          2.0248   -5.9945    1.8042 O.co2     1 <0>        -0.6985
     34 H2          1.0765   -2.3416    0.6982 H         1 <0>         0.0410
     35 H3         -0.3699   -1.8141   -0.1950 H         1 <0>         0.0721
     36 H4         -0.4661   -2.1149    1.5567 H         1 <0>         0.0231
     37 H5         -0.9659   -6.3520    0.4748 H         1 <0>         0.0768
     38 H6         -0.5031   -6.6249    2.1717 H         1 <0>         0.0917
     39 H7         -1.8087   -5.6796    3.9838 H         1 <0>         0.1279
     40 H8         -4.0177   -4.8911    4.7245 H         1 <0>         0.1211
     41 H9         -5.1394   -4.2516    0.6355 H         1 <0>         0.1216
     42 H10        -2.9214   -5.0346   -0.0840 H         1 <0>         0.1304
     43 H11        -8.8979   -4.0022    4.4927 H         1 <0>         0.0885
     44 H12        -8.2743   -2.3374    4.5821 H         1 <0>         0.0886
     45 H13        -8.7255   -2.0384    2.1623 H         1 <0>         0.0802
     46 H14        -9.3491   -3.7031    2.0728 H         1 <0>         0.0800
     47 H15       -11.1099   -3.1322    3.7228 H         1 <0>         0.0645
     48 H16       -10.4863   -1.4675    3.8123 H         1 <0>         0.0646
     49 H17       -12.4819   -1.6919    4.3861 H         1 <0>         0.1324
     50 H18       -14.7606   -0.8607    4.8032 H         1 <0>         0.1296
     51 H19       -15.3723   -0.4273    0.5961 H         1 <0>         0.1400
     52 H20       -13.0897   -1.2483    0.1798 H         1 <0>         0.1411
     53 H21       -16.1877    1.9814    4.4773 H         1 <0>         0.1312
     54 H22       -16.9442    2.1607    6.8126 H         1 <0>         0.1307
     55 H23       -18.0624    0.2544    7.8959 H         1 <0>         0.1284
     56 H24       -18.4269   -1.8352    6.6474 H         1 <0>         0.1307
     57 H25       -17.6843   -2.0187    4.3079 H         1 <0>         0.1312
@<TRIPOS>BOND
     1    1    2 1
     2    1   34 1
     3    1   35 1
     4    1   36 1
     5    2    3 1
     6    3    4 1
     7    3    5 1
     8    3   31 1
     9    5    6 1
    10    5   37 1
    11    5   38 1
    12    6   11 ar
    13    6    7 ar
    14    7    8 ar
    15    7   39 1
    16    8    9 ar
    17    8   40 1
    18    9   10 ar
    19    9   12 1
    20   10   11 ar
    21   10   41 1
    22   11   42 1
    23   12   13 3
    24   13   14 1
    25   14   15 1
    26   14   43 1
    27   14   44 1
    28   15   16 1
    29   15   45 1
    30   15   46 1
    31   16   17 1
    32   16   47 1
    33   16   48 1
    34   17   18 1
    35   18   23 ar
    36   18   19 ar
    37   19   20 ar
    38   19   49 1
    39   20   21 ar
    40   20   50 1
    41   21   22 ar
    42   21   24 1
    43   22   23 ar
    44   22   51 1
    45   23   52 1
    46   24   25 1
    47   25   30 ar
    48   25   26 ar
    49   26   27 ar
    50   26   53 1
    51   27   28 ar
    52   27   54 1
    53   28   29 ar
    54   28   55 1
    55   29   30 ar
    56   29   56 1
    57   30   57 1
    58   31   32 2
    59   31   33 1
@<TRIPOS>MOLECULE
CHEMBL496744
   49    52     0     0     0
SMALL
USER_CHARGES

@<TRIPOS>ATOM
      1 C1          0.0477    1.3230    0.0565 C.3       1 <0>         0.0255
      2 O1          0.0475   -0.1059    0.0424 O.3       1 <0>        -0.3113
      3 C2         -1.1631   -0.7228    0.0444 C.ar      1 <0>         0.1744
      4 C3         -2.3248    0.0252    0.0538 C.ar      1 <0>        -0.2274
      5 C4         -3.5621   -0.6026    0.0554 C.ar      1 <0>        -0.0419
      6 C5         -3.6537   -1.9771    0.0481 C.ar      1 <0>        -0.1626
      7 C6         -2.4977   -2.7522    0.0385 C.ar      1 <0>         0.1387
      8 C7         -1.2420   -2.1207    0.0310 C.ar      1 <0>        -0.1204
      9 C8         -0.2469   -3.1956    0.0142 C.2       1 <0>        -0.1331
     10 C9         -0.9224   -4.3553    0.0070 C.2       1 <0>         0.0306
     11 N1         -2.2695   -4.1101    0.0298 N.pl3     1 <0>        -0.8274
     12 S1         -3.4484   -5.2730    0.0291 S.o2      1 <0>         2.6801
     13 O2         -4.3716   -4.9148   -0.9900 O.2       1 <0>        -0.9231
     14 O3         -2.7812   -6.5276    0.0459 O.2       1 <0>        -0.9306
     15 C10        -4.3114   -5.1410    1.5596 C.ar      1 <0>        -0.6897
     16 C11        -3.8803   -5.8615    2.6596 C.ar      1 <0>         0.0058
     17 C12        -4.5522   -5.7636    3.8650 C.ar      1 <0>        -0.1401
     18 C13        -5.6577   -4.9458    3.9776 C.ar      1 <0>        -0.0120
     19 C14        -6.0975   -4.2160    2.8722 C.ar      1 <0>        -0.1417
     20 C15        -5.4117   -4.3154    1.6601 C.ar      1 <0>         0.0395
     21 C16        -7.2811   -3.3380    2.9855 C.2       1 <0>         0.5543
     22 O4         -7.6618   -2.7036    2.0211 O.2       1 <0>        -0.5294
     23 N2         -7.9381   -3.2407    4.1582 N.am      1 <0>        -0.6315
     24 C17        -8.9944   -2.3453    4.2915 C.ar      1 <0>         0.1760
     25 C18        -9.8452   -2.1053    3.2204 C.ar      1 <0>        -0.1279
     26 C19       -10.8921   -1.2165    3.3540 C.ar      1 <0>        -0.0978
     27 C20       -11.1047   -0.5566    4.5556 C.ar      1 <0>        -0.0618
     28 C21       -10.2716   -0.7818    5.6302 C.ar      1 <0>        -0.0570
     29 C22        -9.2092   -1.6840    5.5117 C.ar      1 <0>        -0.1498
     30 C23        -8.3189   -1.9339    6.6561 C.2       1 <0>         0.5288
     31 O5         -8.5662   -1.4325    7.7444 O.co2     1 <0>        -0.6717
     32 O6         -7.3314   -2.6431    6.5195 O.co2     1 <0>        -0.6866
     33 Cl1       -12.4264    0.5588    4.7064 Cl        1 <0>        -0.0895
     34 H1          1.0753    1.6863    0.0532 H         1 <0>         0.1004
     35 H2         -0.4721    1.6951   -0.8263 H         1 <0>         0.0572
     36 H3         -0.4602    1.6775    0.9535 H         1 <0>         0.0584
     37 H4         -2.2694    1.1038    0.0604 H         1 <0>         0.1349
     38 H5         -4.4631   -0.0072    0.0629 H         1 <0>         0.1392
     39 H6         -4.6230   -2.4535    0.0502 H         1 <0>         0.1310
     40 H7          0.8266   -3.0773    0.0080 H         1 <0>         0.1589
     41 H8         -0.4706   -5.3362   -0.0056 H         1 <0>         0.1923
     42 H9         -3.0157   -6.5034    2.5767 H         1 <0>         0.1465
     43 H10        -4.2108   -6.3289    4.7196 H         1 <0>         0.1463
     44 H11        -6.1817   -4.8708    4.9190 H         1 <0>         0.1514
     45 H12        -5.7445   -3.7502    0.8020 H         1 <0>         0.1543
     46 H13        -7.6745   -3.7950    4.9093 H         1 <0>         0.4253
     47 H14        -9.6868   -2.6147    2.2813 H         1 <0>         0.1440
     48 H15       -11.5502   -1.0330    2.5175 H         1 <0>         0.1292
     49 H16       -10.4413   -0.2657    6.5636 H         1 <0>         0.1412
@<TRIPOS>BOND
     1    1    2 1
     2    1   34 1
     3    1   35 1
     4    1   36 1
     5    2    3 1
     6    3    8 ar
     7    3    4 ar
     8    4    5 ar
     9    4   37 1
    10    5    6 ar
    11    5   38 1
    12    6    7 ar
    13    6   39 1
    14    7   11 1
    15    7    8 ar
    16    8    9 1
    17    9   10 2
    18    9   40 1
    19   10   11 1
    20   10   41 1
    21   11   12 1
    22   12   13 2
    23   12   14 2
    24   12   15 1
    25   15   20 ar
    26   15   16 ar
    27   16   17 ar
    28   16   42 1
    29   17   18 ar
    30   17   43 1
    31   18   19 ar
    32   18   44 1
    33   19   20 ar
    34   19   21 1
    35   20   45 1
    36   21   22 2
    37   21   23 am
    38   23   24 1
    39   23   46 1
    40   24   29 ar
    41   24   25 ar
    42   25   26 ar
    43   25   47 1
    44   26   27 ar
    45   26   48 1
    46   27   28 ar
    47   27   33 1
    48   28   29 ar
    49   28   49 1
    50   29   30 1
    51   30   31 2
    52   30   32 1
@<TRIPOS>MOLECULE
CHEMBL253310
   48    50     0     0     0
SMALL
USER_CHARGES

@<TRIPOS>ATOM
      1 C1         -0.0184    1.5028    0.0103 C.3       1 <0>        -0.0868
      2 C2          0.0021   -0.0041    0.0020 C.2       1 <0>         0.1477
      3 C3          0.0061   -0.7299   -1.1827 C.2       1 <0>        -0.2707
      4 S1          0.0318   -2.3981   -0.5457 S.3       1 <0>         0.1991
      5 C4          0.0348   -2.0213    1.0945 C.2       1 <0>         0.0740
      6 N1          0.0225   -0.6988    1.1087 N.2       1 <0>        -0.5084
      7 C5          0.0527   -2.9480    2.2457 C.ar      1 <0>         0.0170
      8 C6          0.0756   -4.3277    2.0346 C.ar      1 <0>        -0.0963
      9 C7          0.0922   -5.1872    3.1135 C.ar      1 <0>        -0.0649
     10 C8          0.0855   -4.6845    4.4026 C.ar      1 <0>        -0.1701
     11 C9          0.0623   -3.3181    4.6188 C.ar      1 <0>        -0.0700
     12 C10         0.0524   -2.4475    3.5487 C.ar      1 <0>        -0.0715
     13 C11         0.1032   -5.6295    5.5763 C.3       1 <0>         0.5086
     14 F1          1.4275   -5.8997    5.9376 F         1 <0>        -0.1744
     15 F2         -0.5647   -5.0435    6.6569 F         1 <0>        -0.1756
     16 F3         -0.5368   -6.8227    5.2241 F         1 <0>        -0.1746
     17 C12        -0.0076   -0.2575   -2.5703 C.2       1 <0>         0.6040
     18 O1         -0.0254    0.9362   -2.8066 O.2       1 <0>        -0.5243
     19 N2         -0.0005   -1.1452   -3.5845 N.am      1 <0>        -0.7120
     20 C13        -0.0142   -0.6731   -4.9713 C.3       1 <0>         0.1809
     21 C14        -0.0026   -1.8561   -5.9048 C.ar      1 <0>        -0.2214
     22 C15         1.2012   -2.3845   -6.3338 C.ar      1 <0>        -0.0560
     23 C16         1.2154   -3.4686   -7.1892 C.ar      1 <0>        -0.1746
     24 C17         0.0188   -4.0282   -7.6188 C.ar      1 <0>         0.2873
     25 C18        -1.1886   -3.4949   -7.1859 C.ar      1 <0>        -0.2597
     26 C19        -1.1956   -2.4142   -6.3259 C.ar      1 <0>        -0.0421
     27 N3          0.0295   -5.1244   -8.4843 N.2       1 <0>        -1.0565
     28 S2         -1.3981   -5.7900   -8.9952 S.o2      1 <0>         2.5064
     29 O2         -2.0062   -6.2944   -7.8141 O.2       1 <0>        -0.9572
     30 O3         -2.0261   -4.7643   -9.7521 O.2       1 <0>        -0.9565
     31 C20        -0.9119   -7.1592  -10.0812 C.3       1 <0>        -0.0070
     32 F4         -0.1423   -8.0771   -9.3584 F         1 <0>        -0.1646
     33 F5         -2.0575   -7.7951  -10.5715 F         1 <0>        -0.1836
     34 F6         -0.1607   -6.6614  -11.1514 F         1 <0>        -0.1644
     35 H1          1.0042    1.8801    0.0026 H         1 <0>         0.0815
     36 H2         -0.5455    1.8639   -0.8728 H         1 <0>         0.0977
     37 H3         -0.5286    1.8543    0.9071 H         1 <0>         0.0744
     38 H4          0.0801   -4.7214    1.0289 H         1 <0>         0.1427
     39 H5          0.1099   -6.2549    2.9516 H         1 <0>         0.1468
     40 H6          0.0566   -2.9323    5.6275 H         1 <0>         0.1443
     41 H7          0.0392   -1.3810    3.7188 H         1 <0>         0.1491
     42 H8          0.0136   -2.0966   -3.3961 H         1 <0>         0.4007
     43 H9         -0.9133   -0.0820   -5.1450 H         1 <0>         0.0708
     44 H10         0.8664   -0.0573   -5.1541 H         1 <0>         0.0721
     45 H11         2.1312   -1.9488   -5.9997 H         1 <0>         0.1104
     46 H12         2.1559   -3.8806   -7.5242 H         1 <0>         0.1187
     47 H13        -2.1208   -3.9273   -7.5182 H         1 <0>         0.1020
     48 H14        -2.1339   -2.0019   -5.9855 H         1 <0>         0.1068
@<TRIPOS>BOND
     1    1    2 1
     2    1   35 1
     3    1   36 1
     4    1   37 1
     5    2    6 1
     6    2    3 2
     7    3    4 1
     8    3   17 1
     9    4    5 1
    10    5    6 2
    11    5    7 1
    12    7   12 ar
    13    7    8 ar
    14    8    9 ar
    15    8   38 1
    16    9   10 ar
    17    9   39 1
    18   10   11 ar
    19   10   13 1
    20   11   12 ar
    21   11   40 1
    22   12   41 1
    23   13   14 1
    24   13   15 1
    25   13   16 1
    26   17   18 2
    27   17   19 am
    28   19   20 1
    29   19   42 1
    30   20   21 1
    31   20   43 1
    32   20   44 1
    33   21   26 ar
    34   21   22 ar
    35   22   23 ar
    36   22   45 1
    37   23   24 ar
    38   23   46 1
    39   24   25 ar
    40   24   27 1
    41   25   26 ar
    42   25   47 1
    43   26   48 1
    44   27   28 1
    45   28   29 2
    46   28   30 2
    47   28   31 1
    48   31   32 1
    49   31   33 1
    50   31   34 1
@<TRIPOS>MOLECULE
CHEMBL253310__1
   49    51     0     0     0
SMALL
USER_CHARGES

@<TRIPOS>ATOM
      1 C1         -0.0521    1.6452   -0.1078 C.3       1 <0>        -0.0910
      2 C2          0.0342    0.1408   -0.0912 C.2       1 <0>         0.1629
      3 C3          0.0346   -0.6056   -1.2631 C.2       1 <0>        -0.2876
      4 S1          0.1526   -2.2592   -0.5991 S.3       1 <0>         0.1843
      5 C4          0.1880   -1.8529    1.0337 C.2       1 <0>         0.0952
      6 N1          0.1181   -0.5321    1.0259 N.2       1 <0>        -0.5097
      7 C5          0.2809   -2.7568    2.1993 C.ar      1 <0>         0.0072
      8 C6          0.3581   -4.1378    2.0109 C.ar      1 <0>        -0.0950
      9 C7          0.4446   -4.9760    3.1032 C.ar      1 <0>        -0.0660
     10 C8          0.4544   -4.4507    4.3832 C.ar      1 <0>        -0.1637
     11 C9          0.3777   -3.0829    4.5769 C.ar      1 <0>        -0.0687
     12 C10         0.2976   -2.2331    3.4931 C.ar      1 <0>        -0.0669
     13 C11         0.5485   -5.3725    5.5717 C.3       1 <0>         0.5079
     14 F1          1.8936   -5.5784    5.8967 F         1 <0>        -0.1730
     15 F2         -0.1119   -4.7964    6.6621 F         1 <0>        -0.1736
     16 F3         -0.0487   -6.5985    5.2594 F         1 <0>        -0.1742
     17 C12        -0.0412   -0.1597   -2.6574 C.2       1 <0>         0.6142
     18 O1         -0.1184    1.0277   -2.9132 O.2       1 <0>        -0.5131
     19 N2         -0.0255   -1.0645   -3.6561 N.am      1 <0>        -0.7223
     20 C13        -0.1012   -0.6188   -5.0496 C.3       1 <0>         0.1614
     21 C14        -0.0656   -1.8170   -5.9629 C.ar      1 <0>        -0.1080
     22 C15         1.1468   -2.3005   -6.4196 C.ar      1 <0>        -0.0813
     23 C16         1.1831   -3.3983   -7.2567 C.ar      1 <0>        -0.1148
     24 C17        -0.0002   -4.0170   -7.6398 C.ar      1 <0>         0.1224
     25 C18        -1.2163   -3.5287   -7.1792 C.ar      1 <0>        -0.1393
     26 C19        -1.2451   -2.4339   -6.3379 C.ar      1 <0>        -0.0744
     27 N3          0.0328   -5.1272   -8.4867 N.pl3     1 <0>        -1.0226
     28 S2         -0.8770   -6.4651   -8.1338 S.o2      1 <0>         2.6035
     29 O2         -2.2022   -5.9738   -7.9865 O.2       1 <0>        -0.8655
     30 O3         -0.5603   -7.3992   -9.1567 O.2       1 <0>        -0.8747
     31 C20        -0.2463   -7.0498   -6.5366 C.3       1 <0>        -0.0371
     32 F4         -0.5142   -6.0937   -5.5511 F         1 <0>        -0.1559
     33 F5         -0.8733   -8.2544   -6.2004 F         1 <0>        -0.1576
     34 F6          1.1351   -7.2523   -6.6267 F         1 <0>        -0.1577
     35 H1          0.9522    2.0663   -0.1532 H         1 <0>         0.0848
     36 H2         -0.6208    1.9670   -0.9802 H         1 <0>         0.0978
     37 H3         -0.5503    1.9906    0.7982 H         1 <0>         0.0785
     38 H4          0.3498   -4.5492    1.0124 H         1 <0>         0.1403
     39 H5          0.5043   -6.0447    2.9589 H         1 <0>         0.1475
     40 H6          0.3851   -2.6793    5.5786 H         1 <0>         0.1472
     41 H7          0.2427   -1.1653    3.6454 H         1 <0>         0.1507
     42 H8          0.0361   -2.0108   -3.4523 H         1 <0>         0.4012
     43 H9         -1.0303   -0.0705   -5.2057 H         1 <0>         0.0865
     44 H10         0.7456    0.0312   -5.2698 H         1 <0>         0.0859
     45 H11         2.0664   -1.8188   -6.1216 H         1 <0>         0.1363
     46 H12         2.1303   -3.7752   -7.6133 H         1 <0>         0.1380
     47 H13        -2.1381   -4.0072   -7.4755 H         1 <0>         0.1600
     48 H14        -2.1900   -2.0565   -5.9759 H         1 <0>         0.1388
     49 H15         0.5887   -5.1146   -9.2815 H         1 <0>         0.4414
@<TRIPOS>BOND
     1    1    2 1
     2    1   35 1
     3    1   36 1
     4    1   37 1
     5    2    6 1
     6    2    3 2
     7    3    4 1
     8    3   17 1
     9    4    5 1
    10    5    6 2
    11    5    7 1
    12    7   12 ar
    13    7    8 ar
    14    8    9 ar
    15    8   38 1
    16    9   10 ar
    17    9   39 1
    18   10   11 ar
    19   10   13 1
    20   11   12 ar
    21   11   40 1
    22   12   41 1
    23   13   14 1
    24   13   15 1
    25   13   16 1
    26   17   18 2
    27   17   19 am
    28   19   20 1
    29   19   42 1
    30   20   21 1
    31   20   43 1
    32   20   44 1
    33   21   26 ar
    34   21   22 ar
    35   22   23 ar
    36   22   45 1
    37   23   24 ar
    38   23   46 1
    39   24   25 ar
    40   24   27 1
    41   25   26 ar
    42   25   47 1
    43   26   48 1
    44   27   28 1
    45   27   49 1
    46   28   29 2
    47   28   30 2
    48   28   31 1
    49   31   32 1
    50   31   33 1
    51   31   34 1
@<TRIPOS>MOLECULE
CHEMBL242007
   54    57     0     0     0
SMALL
USER_CHARGES

@<TRIPOS>ATOM
      1 C1         -0.0184    1.5028    0.0103 C.3       1 <0>        -0.0961
      2 C2          0.0021   -0.0041    0.0020 C.ar      1 <0>        -0.1222
      3 C3          0.0057   -0.6878   -1.1980 C.ar      1 <0>        -0.0655
      4 C4          0.0246   -2.0766   -1.2053 C.ar      1 <0>        -0.1381
      5 C5          0.0397   -2.7765   -0.0051 C.ar      1 <0>        -0.1039
      6 C6          0.0360   -2.0909    1.1933 C.ar      1 <0>        -0.1345
      7 C7          0.0229   -0.7036    1.1994 C.ar      1 <0>         0.1788
      8 O1          0.0254   -0.0293    2.3804 O.3       1 <0>        -0.2910
      9 C8          0.0474   -0.8131    3.5751 C.3       1 <0>         0.0348
     10 C9         -1.2580   -1.6363    3.7074 C.3       1 <0>        -0.1408
     11 C10        -2.2592   -0.6003    4.2761 C.3       1 <0>        -0.1187
     12 C11        -1.4193    0.2341    5.2650 C.3       1 <0>        -0.1193
     13 C12         0.0473    0.0988    4.8193 C.3       1 <0>        -0.0950
     14 C13         1.2502   -1.7210    3.5866 C.2       1 <0>         0.4833
     15 O2          2.0403   -1.6980    2.6583 O.co2     1 <0>        -0.6687
     16 O3          1.4332   -2.4785    4.5243 O.co2     1 <0>        -0.6832
     17 S1          0.0286   -2.9502   -2.7355 S.3       1 <0>        -0.0948
     18 C14         0.0549   -4.6962   -2.2439 C.3       1 <0>        -0.0354
     19 C15         0.0604   -5.5647   -3.4755 C.2       1 <0>         0.0848
     20 N1          1.0899   -6.0280   -4.1480 N.2       1 <0>        -0.5038
     21 C16         0.8480   -6.7786   -5.2077 C.2       1 <0>         0.2972
     22 N2         -0.4112   -7.0133   -5.5205 N.2       1 <0>        -0.4706
     23 S2         -1.2481   -6.1876   -4.3256 S.3       1 <0>         0.3220
     24 C17         1.9564   -7.3385   -6.0193 C.ar      1 <0>        -0.0421
     25 C18         3.2799   -7.0810   -5.6659 C.ar      1 <0>        -0.0315
     26 C19         4.3081   -7.6028   -6.4223 C.ar      1 <0>        -0.1269
     27 C20         4.0261   -8.3840   -7.5348 C.ar      1 <0>         0.1225
     28 C21         2.7088   -8.6423   -7.8893 C.ar      1 <0>        -0.1971
     29 C22         1.6764   -8.1279   -7.1334 C.ar      1 <0>        -0.0351
     30 O4          5.0412   -8.8965   -8.2784 O.3       1 <0>        -0.3081
     31 C23         4.6797   -9.6913   -9.4096 C.3       1 <0>         0.6038
     32 F1          3.9161   -8.9228  -10.2947 F         1 <0>        -0.1636
     33 F2          5.8378  -10.1352  -10.0569 F         1 <0>        -0.1304
     34 F3          3.9312  -10.7942   -8.9845 F         1 <0>        -0.1638
     35 H1          1.0042    1.8801    0.0026 H         1 <0>         0.0644
     36 H2         -0.5455    1.8639   -0.8728 H         1 <0>         0.0579
     37 H3         -0.5286    1.8543    0.9071 H         1 <0>         0.0674
     38 H4         -0.0064   -0.1428   -2.1303 H         1 <0>         0.1243
     39 H5          0.0540   -3.8564   -0.0097 H         1 <0>         0.1140
     40 H6          0.0478   -2.6347    2.1263 H         1 <0>         0.1381
     41 H7         -1.5874   -1.9973    2.7331 H         1 <0>         0.0690
     42 H8         -1.1232   -2.4651    4.4023 H         1 <0>         0.0862
     43 H9         -2.6485    0.0319    3.4781 H         1 <0>         0.0622
     44 H10        -3.0737   -1.1033    4.7973 H         1 <0>         0.0604
     45 H11        -1.7264    1.2793    5.2264 H         1 <0>         0.0592
     46 H12        -1.5393   -0.1536    6.2766 H         1 <0>         0.0617
     47 H13         0.6389   -0.3545    5.6146 H         1 <0>         0.0859
     48 H14         0.4519    1.0783    4.5644 H         1 <0>         0.0672
     49 H15         0.9506   -4.8945   -1.6554 H         1 <0>         0.1270
     50 H16        -0.8291   -4.9187   -1.6464 H         1 <0>         0.1207
     51 H17         3.4999   -6.4730   -4.8008 H         1 <0>         0.1552
     52 H18         5.3338   -7.4033   -6.1492 H         1 <0>         0.1480
     53 H19         2.4925   -9.2503   -8.7552 H         1 <0>         0.1396
     54 H20         0.6519   -8.3331   -7.4069 H         1 <0>         0.1444
@<TRIPOS>BOND
     1    1    2 1
     2    1   35 1
     3    1   36 1
     4    1   37 1
     5    2    7 ar
     6    2    3 ar
     7    3    4 ar
     8    3   38 1
     9    4    5 ar
    10    4   17 1
    11    5    6 ar
    12    5   39 1
    13    6    7 ar
    14    6   40 1
    15    7    8 1
    16    8    9 1
    17    9   13 1
    18    9   10 1
    19    9   14 1
    20   10   11 1
    21   10   41 1
    22   10   42 1
    23   11   12 1
    24   11   43 1
    25   11   44 1
    26   12   13 1
    27   12   45 1
    28   12   46 1
    29   13   47 1
    30   13   48 1
    31   14   15 2
    32   14   16 1
    33   17   18 1
    34   18   19 1
    35   18   49 1
    36   18   50 1
    37   19   23 1
    38   19   20 2
    39   20   21 1
    40   21   22 2
    41   21   24 1
    42   22   23 1
    43   24   29 ar
    44   24   25 ar
    45   25   26 ar
    46   25   51 1
    47   26   27 ar
    48   26   52 1
    49   27   28 ar
    50   27   30 1
    51   28   29 ar
    52   28   53 1
    53   29   54 1
    54   30   31 1
    55   31   32 1
    56   31   33 1
    57   31   34 1
@<TRIPOS>MOLECULE
CHEMBL245674
   61    64     0     0     0
SMALL
USER_CHARGES

@<TRIPOS>ATOM
      1 C1          1.1128    2.4549   -1.8869 C.3       1 <0>        -0.0731
      2 C2          1.2599    0.9564   -1.8230 C.2       1 <0>        -0.0302
      3 C3          0.2832    0.0695   -1.5591 C.2       1 <0>        -0.0122
      4 N1          0.8222   -1.1585   -1.5957 N.2       1 <0>        -0.4619
      5 C4          2.0996   -1.0478   -1.8744 C.2       1 <0>         0.2358
      6 O1          2.3930    0.2554   -2.0255 O.3       1 <0>        -0.1915
      7 C5          3.0546   -2.1685   -2.0063 C.ar      1 <0>        -0.0224
      8 C6          2.6196   -3.4837   -1.8363 C.ar      1 <0>        -0.0705
      9 C7          3.5158   -4.5250   -1.9612 C.ar      1 <0>        -0.1207
     10 C8          4.8433   -4.2679   -2.2543 C.ar      1 <0>        -0.0980
     11 C9          5.2811   -2.9664   -2.4236 C.ar      1 <0>        -0.1202
     12 C10         4.3940   -1.9163   -2.3070 C.ar      1 <0>        -0.0892
     13 C11        -1.1596    0.3973   -1.2727 C.3       1 <0>        -0.0340
     14 C12        -1.9476    0.4193   -2.5839 C.3       1 <0>         0.0656
     15 O2         -3.3157    0.7301   -2.3123 O.3       1 <0>        -0.3077
     16 C13        -4.1580    0.7896   -3.3772 C.ar      1 <0>         0.1572
     17 C14        -3.6788    0.5480   -4.6565 C.ar      1 <0>        -0.2127
     18 C15        -4.5372    0.6086   -5.7372 C.ar      1 <0>        -0.0566
     19 C16        -5.8728    0.9102   -5.5447 C.ar      1 <0>        -0.1813
     20 C17        -6.3527    1.1518   -4.2708 C.ar      1 <0>        -0.0457
     21 C18        -5.4997    1.0863   -3.1861 C.ar      1 <0>        -0.1492
     22 C19        -6.8068    0.9761   -6.7255 C.3       1 <0>         0.0263
     23 N2         -7.3932   -0.3501   -6.9607 N.4       1 <0>        -0.3501
     24 C20        -8.1851   -0.3230   -8.1976 C.3       1 <0>         0.0359
     25 C21        -8.6635   -1.7156   -8.5184 C.ar      1 <0>         0.0724
     26 C22        -9.9283   -2.1110   -8.1251 C.ar      1 <0>        -0.1358
     27 C23       -10.3587   -3.3941   -8.4251 C.ar      1 <0>        -0.0718
     28 C24        -9.4971   -4.2354   -9.1127 C.ar      1 <0>        -0.1493
     29 C25        -8.2469   -3.7701   -9.4734 C.ar      1 <0>         0.0990
     30 N3         -7.8729   -2.5409   -9.1758 N.ar      1 <0>        -0.4730
     31 C26        -8.2612   -0.7089   -5.8313 C.3       1 <0>        -0.0950
     32 C27        -9.3406    0.3314   -5.6769 C.2       1 <0>         0.4962
     33 O3         -9.4174    1.2527   -6.4718 O.co2     1 <0>        -0.6641
     34 O4        -10.1370    0.2517   -4.7572 O.co2     1 <0>        -0.6320
     35 H1          2.0766    2.9047   -2.1256 H         1 <0>         0.0825
     36 H2          0.3887    2.7164   -2.6585 H         1 <0>         0.0905
     37 H3          0.7668    2.8274   -0.9227 H         1 <0>         0.0942
     38 H4          1.5837   -3.6857   -1.6071 H         1 <0>         0.1380
     39 H5          3.1806   -5.5432   -1.8295 H         1 <0>         0.1335
     40 H6          5.5409   -5.0866   -2.3510 H         1 <0>         0.1301
     41 H7          6.3188   -2.7723   -2.6515 H         1 <0>         0.1322
     42 H8          4.7360   -0.9011   -2.4442 H         1 <0>         0.1305
     43 H9         -1.5792   -0.3589   -0.6092 H         1 <0>         0.0966
     44 H10        -1.2221    1.3750   -0.7948 H         1 <0>         0.0951
     45 H11        -1.5280    1.1755   -3.2474 H         1 <0>         0.0656
     46 H12        -1.8851   -0.5584   -3.0618 H         1 <0>         0.0692
     47 H13        -2.6356    0.3131   -4.8075 H         1 <0>         0.1329
     48 H14        -4.1646    0.4206   -6.7334 H         1 <0>         0.1304
     49 H15        -7.3963    1.3875   -4.1230 H         1 <0>         0.1433
     50 H16        -5.8760    1.2708   -2.1907 H         1 <0>         0.1411
     51 H17        -7.6014    1.6936   -6.5206 H         1 <0>         0.1767
     52 H18        -6.2527    1.2904   -7.6100 H         1 <0>         0.1204
     53 H19        -9.0442    0.3347   -8.0647 H         1 <0>         0.1824
     54 H20        -7.5677    0.0467   -9.0163 H         1 <0>         0.1285
     55 H21       -10.5728   -1.4290   -7.5904 H         1 <0>         0.1484
     56 H22       -11.3416   -3.7307   -8.1300 H         1 <0>         0.1452
     57 H23        -9.7991   -5.2417   -9.3629 H         1 <0>         0.1437
     58 H24        -7.5700   -4.4191  -10.0091 H         1 <0>         0.1642
     59 H25        -8.7176   -1.6810   -6.0183 H         1 <0>         0.1176
     60 H26        -7.6683   -0.7556   -4.9178 H         1 <0>         0.1248
     61 H27        -6.6557   -1.0331   -7.0484 H         1 <0>         0.4019
@<TRIPOS>BOND
     1    1    2 1
     2    1   35 1
     3    1   36 1
     4    1   37 1
     5    2    6 1
     6    2    3 2
     7    3    4 1
     8    3   13 1
     9    4    5 2
    10    5    6 1
    11    5    7 1
    12    7   12 ar
    13    7    8 ar
    14    8    9 ar
    15    8   38 1
    16    9   10 ar
    17    9   39 1
    18   10   11 ar
    19   10   40 1
    20   11   12 ar
    21   11   41 1
    22   12   42 1
    23   13   14 1
    24   13   43 1
    25   13   44 1
    26   14   15 1
    27   14   45 1
    28   14   46 1
    29   15   16 1
    30   16   21 ar
    31   16   17 ar
    32   17   18 ar
    33   17   47 1
    34   18   19 ar
    35   18   48 1
    36   19   20 ar
    37   19   22 1
    38   20   21 ar
    39   20   49 1
    40   21   50 1
    41   22   23 1
    42   22   51 1
    43   22   52 1
    44   23   24 1
    45   23   31 1
    46   23   61 1
    47   24   25 1
    48   24   53 1
    49   24   54 1
    50   25   30 ar
    51   25   26 ar
    52   26   27 ar
    53   26   55 1
    54   27   28 ar
    55   27   56 1
    56   28   29 ar
    57   28   57 1
    58   29   30 ar
    59   29   58 1
    60   31   32 1
    61   31   59 1
    62   31   60 1
    63   32   33 2
    64   32   34 1
@<TRIPOS>MOLECULE
CHEMBL397120
   69    73     0     0     0
SMALL
USER_CHARGES

@<TRIPOS>ATOM
      1 C1          0.5470    1.1658   -1.0066 C.3       1 <0>        -0.0724
      2 C2          0.6645   -0.3249   -1.1937 C.2       1 <0>        -0.0317
      3 C3         -0.3421   -1.2164   -1.1480 C.2       1 <0>        -0.0119
      4 N1          0.1775   -2.4345   -1.3629 N.2       1 <0>        -0.4616
      5 C4          1.4723   -2.3132   -1.5384 C.2       1 <0>         0.2376
      6 O1          1.7966   -1.0121   -1.4436 O.3       1 <0>        -0.1916
      7 C5          2.4150   -3.4208   -1.8026 C.ar      1 <0>        -0.0234
      8 C6          1.9479   -4.7331   -1.8897 C.ar      1 <0>        -0.0697
      9 C7          2.8329   -5.7621   -2.1369 C.ar      1 <0>        -0.1203
     10 C8          4.1809   -5.4955   -2.2983 C.ar      1 <0>        -0.0975
     11 C9          4.6506   -4.1969   -2.2127 C.ar      1 <0>        -0.1205
     12 C10         3.7753   -3.1581   -1.9716 C.ar      1 <0>        -0.0893
     13 C11        -1.7950   -0.9026   -0.8993 C.3       1 <0>        -0.0338
     14 C12        -2.4945   -0.6344   -2.2333 C.3       1 <0>         0.0645
     15 O2         -3.8721   -0.3369   -1.9974 O.3       1 <0>        -0.3062
     16 C13        -4.6414   -0.0724   -3.0861 C.ar      1 <0>         0.1624
     17 C14        -4.0831   -0.1044   -4.3557 C.ar      1 <0>        -0.2079
     18 C15        -4.8673    0.1644   -5.4608 C.ar      1 <0>        -0.0491
     19 C16        -6.2074    0.4655   -5.3023 C.ar      1 <0>        -0.1865
     20 C17        -6.7661    0.4984   -4.0379 C.ar      1 <0>        -0.0519
     21 C18        -5.9876    0.2244   -2.9301 C.ar      1 <0>        -0.1475
     22 C19        -7.0604    0.7587   -6.5095 C.3       1 <0>         0.0425
     23 N2         -7.6521   -0.4908   -7.0062 N.4       1 <0>        -0.3589
     24 C20        -8.3855   -0.2244   -8.2508 C.3       1 <0>         0.0879
     25 C21        -7.4160    0.1968   -9.3249 C.2       1 <0>        -0.0760
     26 C22        -6.7096   -0.6346  -10.1154 C.2       1 <0>        -0.1426
     27 C23        -5.9331    0.1709  -10.9724 C.2       1 <0>        -0.1859
     28 C24        -6.2115    1.4630  -10.6541 C.2       1 <0>         0.0552
     29 O3         -7.1170    1.4634   -9.6570 O.3       1 <0>        -0.1545
     30 C25        -5.6267    2.6594  -11.2949 C.ar      1 <0>        -0.0247
     31 C26        -4.2437    2.7645  -11.4534 C.ar      1 <0>        -0.0784
     32 C27        -3.7042    3.8839  -12.0523 C.ar      1 <0>        -0.1133
     33 C28        -4.5301    4.9018  -12.4959 C.ar      1 <0>        -0.0903
     34 C29        -5.9013    4.8052  -12.3421 C.ar      1 <0>        -0.1101
     35 C30        -6.4555    3.6875  -11.7499 C.ar      1 <0>        -0.0154
     36 Cl1        -8.1771    3.5638  -11.5649 Cl        1 <0>        -0.0505
     37 C31        -8.5760   -1.0293   -5.9991 C.3       1 <0>        -0.0901
     38 C32        -9.0557   -2.3901   -6.4341 C.2       1 <0>         0.4884
     39 O4         -8.5846   -2.9130   -7.4296 O.co2     1 <0>        -0.6733
     40 O5         -9.9150   -2.9680   -5.7906 O.co2     1 <0>        -0.6377
     41 H1          1.5317    1.6230   -1.1038 H         1 <0>         0.0824
     42 H2         -0.1203    1.5757   -1.7648 H         1 <0>         0.0895
     43 H3          0.1445    1.3771   -0.0159 H         1 <0>         0.0938
     44 H4          0.8959   -4.9425   -1.7635 H         1 <0>         0.1385
     45 H5          2.4728   -6.7781   -2.2042 H         1 <0>         0.1340
     46 H6          4.8696   -6.3046   -2.4916 H         1 <0>         0.1303
     47 H7          5.7041   -3.9956   -2.3389 H         1 <0>         0.1321
     48 H8          4.1425   -2.1443   -1.9098 H         1 <0>         0.1302
     49 H9         -2.2699   -1.7494   -0.4038 H         1 <0>         0.0976
     50 H10        -1.8725   -0.0200   -0.2645 H         1 <0>         0.0947
     51 H11        -2.0195    0.2124   -2.7288 H         1 <0>         0.0660
     52 H12        -2.4169   -1.5171   -2.8681 H         1 <0>         0.0715
     53 H13        -3.0362   -0.3388   -4.4800 H         1 <0>         0.1356
     54 H14        -4.4331    0.1396   -6.4494 H         1 <0>         0.1309
     55 H15        -7.8130    0.7342   -3.9167 H         1 <0>         0.1396
     56 H16        -6.4254    0.2459   -1.9431 H         1 <0>         0.1428
     57 H17        -7.8547    1.4522   -6.2333 H         1 <0>         0.1292
     58 H18        -6.4441    1.2044   -7.2903 H         1 <0>         0.1249
     59 H19        -8.9067   -1.1283   -8.5660 H         1 <0>         0.1754
     60 H20        -9.1098    0.5726   -8.0823 H         1 <0>         0.1304
     61 H21        -6.7336   -1.7142  -10.0958 H         1 <0>         0.1679
     62 H22        -5.2489   -0.1719  -11.7344 H         1 <0>         0.1600
     63 H23        -3.5976    1.9713  -11.1074 H         1 <0>         0.1392
     64 H24        -2.6343    3.9662  -12.1749 H         1 <0>         0.1388
     65 H25        -4.1020    5.7758  -12.9640 H         1 <0>         0.1393
     66 H26        -6.5402    5.6034  -12.6902 H         1 <0>         0.1413
     67 H27        -8.0610   -1.1144   -5.0422 H         1 <0>         0.1299
     68 H28        -9.4295   -0.3596   -5.8940 H         1 <0>         0.1247
     69 H29        -6.9201   -1.1620   -7.1842 H         1 <0>         0.4255
@<TRIPOS>BOND
     1    1    2 1
     2    1   41 1
     3    1   42 1
     4    1   43 1
     5    2    6 1
     6    2    3 2
     7    3    4 1
     8    3   13 1
     9    4    5 2
    10    5    6 1
    11    5    7 1
    12    7   12 ar
    13    7    8 ar
    14    8    9 ar
    15    8   44 1
    16    9   10 ar
    17    9   45 1
    18   10   11 ar
    19   10   46 1
    20   11   12 ar
    21   11   47 1
    22   12   48 1
    23   13   14 1
    24   13   49 1
    25   13   50 1
    26   14   15 1
    27   14   51 1
    28   14   52 1
    29   15   16 1
    30   16   21 ar
    31   16   17 ar
    32   17   18 ar
    33   17   53 1
    34   18   19 ar
    35   18   54 1
    36   19   20 ar
    37   19   22 1
    38   20   21 ar
    39   20   55 1
    40   21   56 1
    41   22   23 1
    42   22   57 1
    43   22   58 1
    44   23   24 1
    45   23   37 1
    46   23   69 1
    47   24   25 1
    48   24   59 1
    49   24   60 1
    50   25   29 1
    51   25   26 2
    52   26   27 1
    53   26   61 1
    54   27   28 2
    55   27   62 1
    56   28   29 1
    57   28   30 1
    58   30   35 ar
    59   30   31 ar
    60   31   32 ar
    61   31   63 1
    62   32   33 ar
    63   32   64 1
    64   33   34 ar
    65   33   65 1
    66   34   35 ar
    67   34   66 1
    68   35   36 1
    69   37   38 1
    70   37   67 1
    71   37   68 1
    72   38   39 2
    73   38   40 1
@<TRIPOS>MOLECULE
CHEMBL178513
   57    60     0     0     0
SMALL
USER_CHARGES

@<TRIPOS>ATOM
      1 C1         -0.0187    1.5258    0.0104 C.3       1 <0>        -0.1534
      2 C2          0.0021   -0.0041    0.0020 C.3       1 <0>         0.0457
      3 C3         -1.4346   -0.5404    0.0397 C.3       1 <0>        -0.1325
      4 C4         -2.1423    0.0658    1.2540 C.3       1 <0>        -0.0713
      5 C5         -1.2689   -0.0778    2.4748 C.ar      1 <0>        -0.1985
      6 C6         -1.8483    0.0527    3.7266 C.ar      1 <0>        -0.0469
      7 C7         -1.0809   -0.0688    4.8672 C.ar      1 <0>        -0.2540
      8 C8          0.2797   -0.3223    4.7625 C.ar      1 <0>         0.1561
      9 C9          0.8618   -0.4546    3.5133 C.ar      1 <0>        -0.1923
     10 C10         0.0869   -0.3346    2.3649 C.ar      1 <0>         0.1872
     11 O1          0.6920   -0.4821    1.1575 O.3       1 <0>        -0.2744
     12 O2          1.0386   -0.4409    5.8836 O.3       1 <0>        -0.3112
     13 C11         0.3703   -0.2931    7.1381 C.3       1 <0>         0.0672
     14 C12         1.3796   -0.4576    8.2761 C.3       1 <0>        -0.1203
     15 C13         0.6642   -0.2993    9.6192 C.3       1 <0>         0.0635
     16 O3          1.6069   -0.4530   10.6821 O.3       1 <0>        -0.2993
     17 C14         1.1305   -0.3404   11.9510 C.ar      1 <0>         0.1082
     18 C15        -0.2169   -0.0930   12.1665 C.ar      1 <0>        -0.1570
     19 C16        -0.7010    0.0209   13.4552 C.ar      1 <0>        -0.1046
     20 C17         0.1603   -0.1115   14.5344 C.ar      1 <0>         0.1068
     21 C18         1.5079   -0.3589   14.3199 C.ar      1 <0>        -0.1648
     22 C19         1.9917   -0.4787   13.0305 C.ar      1 <0>        -0.0304
     23 Cl1         3.6772   -0.7955   12.7614 Cl        1 <0>        -0.0485
     24 O4         -0.3166    0.0016   15.8028 O.3       1 <0>        -0.3072
     25 C20         0.6266   -0.1459   16.8661 C.3       1 <0>         0.0887
     26 C21        -0.0898    0.0120   18.2088 C.3       1 <0>        -0.1583
     27 C22         0.3173    1.1932   19.0920 C.3       1 <0>        -0.1755
     28 C23         0.7287   -0.2288   19.4788 C.3       1 <0>        -0.1692
     29 C24         0.6955   -0.4953   -1.2425 C.2       1 <0>         0.5157
     30 O5          1.6969   -1.1847   -1.1506 O.co2     1 <0>        -0.6698
     31 O6          0.2551   -0.2034   -2.3413 O.co2     1 <0>        -0.6807
     32 H1          1.0039    1.9031    0.0027 H         1 <0>         0.0571
     33 H2         -0.5459    1.8868   -0.8726 H         1 <0>         0.0748
     34 H3         -0.5289    1.8773    0.9072 H         1 <0>         0.0505
     35 H4         -1.9582   -0.2529   -0.8721 H         1 <0>         0.0874
     36 H5         -1.4190   -1.6267    0.1280 H         1 <0>         0.0679
     37 H6         -2.3376    1.1223    1.0700 H         1 <0>         0.0734
     38 H7         -3.0862   -0.4533    1.4203 H         1 <0>         0.0720
     39 H8         -2.9067    0.2504    3.8102 H         1 <0>         0.1216
     40 H9         -1.5386    0.0336    5.8400 H         1 <0>         0.1218
     41 H10         1.9205   -0.6513    3.4305 H         1 <0>         0.1363
     42 H11        -0.0823    0.6969    7.1942 H         1 <0>         0.0645
     43 H12        -0.4058   -1.0531    7.2280 H         1 <0>         0.0646
     44 H13         1.8323   -1.4476    8.2200 H         1 <0>         0.0881
     45 H14         2.1558    0.3024    8.1861 H         1 <0>         0.0879
     46 H15         0.2115    0.6906    9.6753 H         1 <0>         0.0683
     47 H16        -0.1120   -1.0593    9.7092 H         1 <0>         0.0684
     48 H17        -0.8878    0.0109   11.3265 H         1 <0>         0.1459
     49 H18        -1.7505    0.2135   13.6226 H         1 <0>         0.1413
     50 H19         2.1785   -0.4620   15.1602 H         1 <0>         0.1434
     51 H20         1.0834   -1.1341   16.8121 H         1 <0>         0.0683
     52 H21         1.3995    0.6172   16.7747 H         1 <0>         0.0653
     53 H22        -1.1375   -0.2882   18.2208 H         1 <0>         0.1175
     54 H23         1.0955    1.8577   18.7166 H         1 <0>         0.0972
     55 H24        -0.4627    1.6703   19.6853 H         1 <0>         0.0988
     56 H25         0.2193   -0.6872   20.3265 H         1 <0>         0.1014
     57 H26         1.7775   -0.4998   19.3578 H         1 <0>         0.0976
@<TRIPOS>BOND
     1    1    2 1
     2    1   32 1
     3    1   33 1
     4    1   34 1
     5    2   11 1
     6    2    3 1
     7    2   29 1
     8    3    4 1
     9    3   35 1
    10    3   36 1
    11    4    5 1
    12    4   37 1
    13    4   38 1
    14    5   10 ar
    15    5    6 ar
    16    6    7 ar
    17    6   39 1
    18    7    8 ar
    19    7   40 1
    20    8    9 ar
    21    8   12 1
    22    9   10 ar
    23    9   41 1
    24   10   11 1
    25   12   13 1
    26   13   14 1
    27   13   42 1
    28   13   43 1
    29   14   15 1
    30   14   44 1
    31   14   45 1
    32   15   16 1
    33   15   46 1
    34   15   47 1
    35   16   17 1
    36   17   22 ar
    37   17   18 ar
    38   18   19 ar
    39   18   48 1
    40   19   20 ar
    41   19   49 1
    42   20   21 ar
    43   20   24 1
    44   21   22 ar
    45   21   50 1
    46   22   23 1
    47   24   25 1
    48   25   26 1
    49   25   51 1
    50   25   52 1
    51   26   28 1
    52   26   27 1
    53   26   53 1
    54   27   28 1
    55   27   54 1
    56   27   55 1
    57   28   56 1
    58   28   57 1
    59   29   30 2
    60   29   31 1
@<TRIPOS>MOLECULE
CHEMBL189116
   38    40     0     0     0
SMALL
USER_CHARGES

@<TRIPOS>ATOM
      1 C1          0.4809    1.6736   -0.7129 C.ar      1 <0>        -0.1327
      2 C2          1.7145    2.2751   -0.5475 C.ar      1 <0>        -0.1225
      3 C3          2.8410    1.4989   -0.3494 C.ar      1 <0>        -0.1037
      4 C4          2.7339    0.1211   -0.3163 C.ar      1 <0>        -0.0708
      5 C5          1.5003   -0.4804   -0.4808 C.ar      1 <0>        -0.1196
      6 C6          0.3739    0.2957   -0.6802 C.ar      1 <0>        -0.1229
      7 C7          3.9622   -0.7251   -0.1013 C.3       1 <0>        -0.0636
      8 C8          4.1635   -0.9606    1.3970 C.3       1 <0>         0.0218
      9 H1          3.2578   -1.3934    1.8217 H         1 <0>         0.0680
     10 C9          5.3180   -1.9063    1.6063 C.2       1 <0>         0.4808
     11 O1          6.3286   -1.5197    2.1684 O.co2     1 <0>        -0.6695
     12 O2          5.2416   -3.0579    1.2135 O.co2     1 <0>        -0.6883
     13 O3          4.4442    0.2837    2.0412 O.3       1 <0>        -0.2863
     14 C10         4.1525    0.3724    3.3656 C.ar      1 <0>         0.1850
     15 C11         4.2899    1.5865    4.0250 C.ar      1 <0>        -0.1627
     16 C12         3.9950    1.6807    5.3685 C.ar      1 <0>        -0.0620
     17 C13         3.5578    0.5533    6.0658 C.ar      1 <0>        -0.0826
     18 C14         3.4210   -0.6654    5.3993 C.ar      1 <0>        -0.0472
     19 C15         3.7125   -0.7499    4.0543 C.ar      1 <0>        -0.2000
     20 C16         3.2409    0.6498    7.5067 C.2       1 <0>        -0.0599
     21 C17         2.8085   -0.3278    8.3622 C.2       1 <0>        -0.1824
     22 C18         2.5759    0.0010    9.6802 C.2       1 <0>        -0.1411
     23 C19         2.7815    1.2788   10.0893 C.2       1 <0>        -0.1987
     24 S1          3.3300    2.0694    8.5856 S.3       1 <0>         0.0345
     25 H2         -0.3999    2.2802   -0.8632 H         1 <0>         0.1154
     26 H3          1.7981    3.3516   -0.5734 H         1 <0>         0.1173
     27 H4          3.8048    1.9689   -0.2209 H         1 <0>         0.1229
     28 H5          1.4167   -1.5569   -0.4552 H         1 <0>         0.1214
     29 H6         -0.5899   -0.1743   -0.8091 H         1 <0>         0.1172
     30 H7          3.8363   -1.6831   -0.6059 H         1 <0>         0.0968
     31 H8          4.8331   -0.2116   -0.5086 H         1 <0>         0.0791
     32 H9          4.6286    2.4583    3.4848 H         1 <0>         0.1309
     33 H10         4.1024    2.6254    5.8808 H         1 <0>         0.1238
     34 H11         3.0830   -1.5399    5.9353 H         1 <0>         0.1234
     35 H12         3.6027   -1.6915    3.5368 H         1 <0>         0.1331
     36 H13         2.6523   -1.3370    8.0108 H         1 <0>         0.1330
     37 H14         2.2340   -0.7485   10.3787 H         1 <0>         0.1303
     38 H15         2.6506    1.7063   11.0724 H         1 <0>         0.1819
@<TRIPOS>BOND
     1    1    6 ar
     2    1    2 ar
     3    1   25 1
     4    2    3 ar
     5    2   26 1
     6    3    4 ar
     7    3   27 1
     8    4    5 ar
     9    4    7 1
    10    5    6 ar
    11    5   28 1
    12    6   29 1
    13    7    8 1
    14    7   30 1
    15    7   31 1
    16    8    9 1
    17    8   10 1
    18    8   13 1
    19   10   11 2
    20   10   12 1
    21   13   14 1
    22   14   19 ar
    23   14   15 ar
    24   15   16 ar
    25   15   32 1
    26   16   17 ar
    27   16   33 1
    28   17   18 ar
    29   17   20 1
    30   18   19 ar
    31   18   34 1
    32   19   35 1
    33   20   24 1
    34   20   21 2
    35   21   22 1
    36   21   36 1
    37   22   23 2
    38   22   37 1
    39   23   24 1
    40   23   38 1
@<TRIPOS>MOLECULE
CHEMBL191149
   61    63     0     0     0
SMALL
USER_CHARGES

@<TRIPOS>ATOM
      1 C1         -1.5306    0.6608   -1.1049 C.3       1 <0>        -0.1479
      2 C2         -1.0637   -0.7637   -0.7985 C.3       1 <0>        -0.1046
      3 C3         -2.2686   -1.6227   -0.4097 C.3       1 <0>        -0.1005
      4 C4         -1.8087   -3.0258   -0.1079 C.ar      1 <0>        -0.1089
      5 C5         -1.9557   -4.0050   -1.0477 C.ar      1 <0>        -0.0044
      6 C6         -1.5298   -5.3061   -0.7705 C.ar      1 <0>        -0.2549
      7 C7         -0.9508   -5.6070    0.4739 C.ar      1 <0>         0.1194
      8 C8         -0.8085   -4.5999    1.4199 C.ar      1 <0>        -0.1412
      9 C9         -1.2309   -3.3147    1.1262 C.ar      1 <0>         0.1983
     10 O1         -1.0857   -2.3301    2.0494 O.3       1 <0>        -0.2896
     11 C10        -1.8250   -2.4662    3.2647 C.3       1 <0>         0.0608
     12 H1         -2.1814   -3.4918    3.3603 H         1 <0>         0.0707
     13 C11        -0.9350   -2.1326    4.4341 C.ar      1 <0>        -0.0556
     14 C12        -0.0500   -1.0740    4.3493 C.ar      1 <0>        -0.0878
     15 C13         0.7664   -0.7680    5.4220 C.ar      1 <0>        -0.1216
     16 C14         0.6975   -1.5203    6.5797 C.ar      1 <0>        -0.0872
     17 C15        -0.1881   -2.5783    6.6648 C.ar      1 <0>        -0.1172
     18 C16        -1.0076   -2.8816    5.5937 C.ar      1 <0>        -0.1030
     19 C17         1.5883   -1.1873    7.7488 C.3       1 <0>        -0.0532
     20 C18         0.7262   -0.8501    8.9670 C.3       1 <0>        -0.1437
     21 C19         2.4780   -2.3897    8.0708 C.3       1 <0>        -0.1417
     22 C20        -3.0020   -1.5252    3.2447 C.2       1 <0>         0.4950
     23 O2         -3.8509   -1.5921    4.1173 O.co2     1 <0>        -0.6798
     24 O3         -3.1054   -0.6970    2.3559 O.co2     1 <0>        -0.6584
     25 C21        -0.1898   -4.9041    2.7600 C.3       1 <0>        -0.0852
     26 C22         1.3010   -4.5618    2.7229 C.3       1 <0>        -0.1108
     27 C23         1.9291   -4.8707    4.0834 C.3       1 <0>        -0.1487
     28 O4         -0.6327   -6.9169    0.4802 O.3       1 <0>        -0.0593
     29 N1         -0.9937   -7.5033   -0.7541 N.am      1 <0>        -0.4812
     30 C24        -1.5430   -6.5558   -1.5428 C.2       1 <0>         0.5586
     31 O5         -1.9676   -6.7074   -2.6747 O.2       1 <0>        -0.5095
     32 C25        -0.8029   -8.9096   -1.1179 C.3       1 <0>         0.1233
     33 H2         -0.6722    1.2728   -1.3819 H         1 <0>         0.0446
     34 H3         -2.2433    0.6401   -1.9294 H         1 <0>         0.0462
     35 H4         -2.0089    1.0842   -0.2217 H         1 <0>         0.0648
     36 H5         -0.5855   -1.1871   -1.6817 H         1 <0>         0.0449
     37 H6         -0.3510   -0.7430    0.0259 H         1 <0>         0.0654
     38 H7         -2.7469   -1.1993    0.4735 H         1 <0>         0.1361
     39 H8         -2.9813   -1.6434   -1.2341 H         1 <0>         0.0584
     40 H9         -2.4010   -3.7741   -2.0042 H         1 <0>         0.1379
     41 H10         0.0038   -0.4863    3.4448 H         1 <0>         0.1255
     42 H11         1.4583    0.0585    5.3555 H         1 <0>         0.1153
     43 H12        -0.2417   -3.1662    7.5692 H         1 <0>         0.1155
     44 H13        -1.7021   -3.7059    5.6615 H         1 <0>         0.1172
     45 H14         2.2129   -0.3302    7.4971 H         1 <0>         0.0730
     46 H15         0.1016   -1.7072    9.2186 H         1 <0>         0.0562
     47 H16         1.3705   -0.6092    9.8126 H         1 <0>         0.0526
     48 H17         0.0924    0.0065    8.7376 H         1 <0>         0.0564
     49 H18         3.0921   -2.6300    7.2029 H         1 <0>         0.0547
     50 H19         3.1223   -2.1489    8.9163 H         1 <0>         0.0525
     51 H20         1.8534   -3.2468    8.3224 H         1 <0>         0.0557
     52 H21        -0.6802   -4.3088    3.5301 H         1 <0>         0.0904
     53 H22        -0.3139   -5.9633    2.9854 H         1 <0>         0.0678
     54 H23         1.7914   -5.1572    1.9528 H         1 <0>         0.0545
     55 H24         1.4251   -3.5027    2.4975 H         1 <0>         0.0687
     56 H25         1.4387   -4.2754    4.8536 H         1 <0>         0.0605
     57 H26         1.8050   -5.9299    4.3089 H         1 <0>         0.0485
     58 H27         2.9912   -4.6268    4.0570 H         1 <0>         0.0506
     59 H28        -0.3375   -9.4398   -0.2871 H         1 <0>         0.0936
     60 H29        -1.7694   -9.3614   -1.3415 H         1 <0>         0.0813
     61 H30        -0.1600   -8.9738   -1.9957 H         1 <0>         0.0811
@<TRIPOS>BOND
     1    1    2 1
     2    1   33 1
     3    1   34 1
     4    1   35 1
     5    2    3 1
     6    2   36 1
     7    2   37 1
     8    3    4 1
     9    3   38 1
    10    3   39 1
    11    4    9 ar
    12    4    5 ar
    13    5    6 ar
    14    5   40 1
    15    6   30 1
    16    6    7 ar
    17    7    8 ar
    18    7   28 1
    19    8    9 ar
    20    8   25 1
    21    9   10 1
    22   10   11 1
    23   11   12 1
    24   11   13 1
    25   11   22 1
    26   13   18 ar
    27   13   14 ar
    28   14   15 ar
    29   14   41 1
    30   15   16 ar
    31   15   42 1
    32   16   17 ar
    33   16   19 1
    34   17   18 ar
    35   17   43 1
    36   18   44 1
    37   19   20 1
    38   19   21 1
    39   19   45 1
    40   20   46 1
    41   20   47 1
    42   20   48 1
    43   21   49 1
    44   21   50 1
    45   21   51 1
    46   22   23 2
    47   22   24 1
    48   25   26 1
    49   25   52 1
    50   25   53 1
    51   26   27 1
    52   26   54 1
    53   26   55 1
    54   27   56 1
    55   27   57 1
    56   27   58 1
    57   28   29 1
    58   29   30 am
    59   29   32 1
    60   30   31 2
    61   32   59 1
    62   32   60 1
    63   32   61 1
@<TRIPOS>MOLECULE
CHEMBL111271
   69    72     0     0     0
SMALL
USER_CHARGES

@<TRIPOS>ATOM
      1 C1          0.3723    1.6617    0.4347 C.3       1 <0>        -0.1525
      2 C2          0.3494    0.1347    0.5279 C.3       1 <0>        -0.1166
      3 C3          0.6416   -0.4647   -0.8491 C.3       1 <0>        -0.0725
      4 C4          0.6190   -1.9688   -0.7573 C.ar      1 <0>        -0.0736
      5 C5          1.7953   -2.6666   -0.5629 C.ar      1 <0>        -0.1034
      6 C6          1.7745   -4.0509   -0.4784 C.ar      1 <0>         0.0851
      7 C7          0.5722   -4.7346   -0.5890 C.ar      1 <0>        -0.1574
      8 C8         -0.6036   -4.0368   -0.7833 C.ar      1 <0>        -0.1681
      9 C9         -0.5834   -2.6519   -0.8622 C.ar      1 <0>         0.1076
     10 O1         -1.7418   -1.9645   -1.0479 O.3       1 <0>        -0.3047
     11 C10        -2.9429   -2.7323   -1.1473 C.3       1 <0>         0.0644
     12 C11        -4.1331   -1.7931   -1.3527 C.3       1 <0>        -0.1195
     13 C12        -5.4191   -2.6151   -1.4592 C.3       1 <0>         0.0669
     14 O2         -6.5307   -1.7379   -1.6511 O.3       1 <0>        -0.3113
     15 C13        -7.7571   -2.3120   -1.7658 C.ar      1 <0>         0.1561
     16 C14        -7.8893   -3.6915   -1.6894 C.ar      1 <0>        -0.2545
     17 C15        -9.1361   -4.2712   -1.8078 C.ar      1 <0>        -0.0469
     18 C16       -10.2596   -3.4839   -2.0015 C.ar      1 <0>        -0.1985
     19 C17       -10.1338   -2.1074   -2.0750 C.ar      1 <0>         0.1881
     20 C18        -8.8784   -1.5218   -1.9534 C.ar      1 <0>        -0.1926
     21 O3        -11.2108   -1.2986   -2.2528 O.3       1 <0>        -0.2710
     22 C19       -12.4181   -1.8904   -2.7345 C.3       1 <0>         0.0495
     23 C20       -12.7168   -3.1360   -1.8905 C.3       1 <0>        -0.1342
     24 C21       -11.6025   -4.1576   -2.1306 C.3       1 <0>        -0.0713
     25 C22       -12.2463   -2.2907   -4.2011 C.3       1 <0>        -0.1259
     26 C23       -11.9224   -1.0489   -5.0342 C.3       1 <0>        -0.1427
     27 C24       -13.5521   -0.9062   -2.6058 C.2       1 <0>         0.5194
     28 O4        -13.3471    0.2031   -2.1433 O.co2     1 <0>        -0.6699
     29 O5        -14.6746   -1.2194   -2.9641 O.co2     1 <0>        -0.6815
     30 O6          2.9321   -4.7379   -0.2876 O.3       1 <0>        -0.2571
     31 C25         2.8657   -6.0937   -0.2190 C.ar      1 <0>         0.0758
     32 C26         2.9883   -6.8543   -1.3728 C.ar      1 <0>        -0.0967
     33 C27         2.9211   -8.2322   -1.3014 C.ar      1 <0>        -0.1400
     34 C28         2.7314   -8.8543   -0.0790 C.ar      1 <0>         0.1016
     35 C29         2.6089   -8.0966    1.0734 C.ar      1 <0>        -0.1400
     36 C30         2.6810   -6.7188    1.0058 C.ar      1 <0>        -0.0967
     37 F1          2.6654  -10.2020   -0.0108 F         1 <0>        -0.1345
     38 H1          1.3550    1.9904    0.0964 H         1 <0>         0.0528
     39 H2         -0.3859    1.9938   -0.2745 H         1 <0>         0.0563
     40 H3          0.1641    2.0888    1.4157 H         1 <0>         0.0544
     41 H4          1.1076   -0.1974    1.2371 H         1 <0>         0.0599
     42 H5         -0.6333   -0.1939    0.8662 H         1 <0>         0.0656
     43 H6         -0.1166   -0.1326   -1.5583 H         1 <0>         0.0806
     44 H7          1.6243   -0.1361   -1.1873 H         1 <0>         0.0723
     45 H8          2.7311   -2.1343   -0.4772 H         1 <0>         0.1392
     46 H9          0.5559   -5.8125   -0.5236 H         1 <0>         0.1287
     47 H10        -1.5393   -4.5690   -0.8698 H         1 <0>         0.1327
     48 H11        -2.8686   -3.4152   -1.9936 H         1 <0>         0.0652
     49 H12        -3.0855   -3.3043   -0.2304 H         1 <0>         0.0654
     50 H13        -4.2074   -1.1102   -0.5064 H         1 <0>         0.0872
     51 H14        -3.9905   -1.2211   -2.2696 H         1 <0>         0.0870
     52 H15        -5.3448   -3.2980   -2.3055 H         1 <0>         0.0638
     53 H16        -5.5616   -3.1871   -0.5423 H         1 <0>         0.0639
     54 H17        -7.0174   -4.3106   -1.5379 H         1 <0>         0.1211
     55 H18        -9.2365   -5.3449   -1.7494 H         1 <0>         0.1211
     56 H19        -8.7773   -0.4480   -2.0095 H         1 <0>         0.1359
     57 H20       -12.7467   -2.8662   -0.8349 H         1 <0>         0.0680
     58 H21       -13.6752   -3.5609   -2.1890 H         1 <0>         0.0870
     59 H22       -11.7035   -4.5761   -3.1320 H         1 <0>         0.0730
     60 H23       -11.6791   -4.9577   -1.3943 H         1 <0>         0.0717
     61 H24       -11.4316   -3.0095   -4.2885 H         1 <0>         0.0552
     62 H25       -13.1694   -2.7418   -4.5651 H         1 <0>         0.0778
     63 H26       -12.7372   -0.3301   -4.9468 H         1 <0>         0.0615
     64 H27       -10.9993   -0.5978   -4.6701 H         1 <0>         0.0531
     65 H28       -11.8000   -1.3341   -6.0790 H         1 <0>         0.0443
     66 H29         3.1359   -6.3693   -2.3264 H         1 <0>         0.1426
     67 H30         3.0161   -8.8245   -2.1995 H         1 <0>         0.1444
     68 H31         2.4609   -8.5833    2.0261 H         1 <0>         0.1445
     69 H32         2.5894   -6.1282    1.9054 H         1 <0>         0.1426
@<TRIPOS>BOND
     1    1    2 1
     2    1   38 1
     3    1   39 1
     4    1   40 1
     5    2    3 1
     6    2   41 1
     7    2   42 1
     8    3    4 1
     9    3   43 1
    10    3   44 1
    11    4    9 ar
    12    4    5 ar
    13    5    6 ar
    14    5   45 1
    15    6    7 ar
    16    6   30 1
    17    7    8 ar
    18    7   46 1
    19    8    9 ar
    20    8   47 1
    21    9   10 1
    22   10   11 1
    23   11   12 1
    24   11   48 1
    25   11   49 1
    26   12   13 1
    27   12   50 1
    28   12   51 1
    29   13   14 1
    30   13   52 1
    31   13   53 1
    32   14   15 1
    33   15   20 ar
    34   15   16 ar
    35   16   17 ar
    36   16   54 1
    37   17   18 ar
    38   17   55 1
    39   18   24 1
    40   18   19 ar
    41   19   20 ar
    42   19   21 1
    43   20   56 1
    44   21   22 1
    45   22   23 1
    46   22   25 1
    47   22   27 1
    48   23   24 1
    49   23   57 1
    50   23   58 1
    51   24   59 1
    52   24   60 1
    53   25   26 1
    54   25   61 1
    55   25   62 1
    56   26   63 1
    57   26   64 1
    58   26   65 1
    59   27   28 2
    60   27   29 1
    61   30   31 1
    62   31   36 ar
    63   31   32 ar
    64   32   33 ar
    65   32   66 1
    66   33   34 ar
    67   33   67 1
    68   34   35 ar
    69   34   37 1
    70   35   36 ar
    71   35   68 1
    72   36   69 1
@<TRIPOS>MOLECULE
CHEMBL111271__1
   69    72     0     0     0
SMALL
USER_CHARGES

@<TRIPOS>ATOM
      1 C1          0.3723    1.6617    0.4347 C.3       1 <0>        -0.1524
      2 C2          0.3494    0.1347    0.5279 C.3       1 <0>        -0.1165
      3 C3          0.6416   -0.4647   -0.8491 C.3       1 <0>        -0.0724
      4 C4          0.6190   -1.9688   -0.7573 C.ar      1 <0>        -0.0743
      5 C5          1.7953   -2.6666   -0.5629 C.ar      1 <0>        -0.1035
      6 C6          1.7745   -4.0509   -0.4784 C.ar      1 <0>         0.0843
      7 C7          0.5722   -4.7346   -0.5890 C.ar      1 <0>        -0.1570
      8 C8         -0.6036   -4.0368   -0.7833 C.ar      1 <0>        -0.1680
      9 C9         -0.5834   -2.6519   -0.8622 C.ar      1 <0>         0.1084
     10 O1         -1.7418   -1.9645   -1.0479 O.3       1 <0>        -0.3049
     11 C10        -2.9429   -2.7323   -1.1473 C.3       1 <0>         0.0641
     12 C11        -4.1331   -1.7931   -1.3527 C.3       1 <0>        -0.1187
     13 C12        -5.4191   -2.6151   -1.4592 C.3       1 <0>         0.0670
     14 O2         -6.5307   -1.7379   -1.6511 O.3       1 <0>        -0.3129
     15 C13        -7.7571   -2.3120   -1.7658 C.ar      1 <0>         0.1521
     16 C14        -7.8893   -3.6915   -1.6894 C.ar      1 <0>        -0.2545
     17 C15        -9.1361   -4.2712   -1.8078 C.ar      1 <0>        -0.0494
     18 C16       -10.2596   -3.4839   -2.0015 C.ar      1 <0>        -0.1838
     19 C17       -10.1338   -2.1074   -2.0750 C.ar      1 <0>         0.2203
     20 C18        -8.8784   -1.5218   -1.9534 C.ar      1 <0>        -0.1890
     21 O3        -11.2108   -1.2986   -2.2528 O.3       1 <0>        -0.2954
     22 C19       -12.4181   -1.8904   -2.7345 C.3       1 <0>         0.0411
     23 C20       -12.7168   -3.1360   -1.8905 C.3       1 <0>        -0.1306
     24 C21       -11.6025   -4.1576   -2.1306 C.3       1 <0>        -0.0704
     25 C22       -13.5694   -0.8912   -2.6038 C.3       1 <0>        -0.0887
     26 C23       -13.3133    0.3050   -3.5226 C.3       1 <0>        -0.1452
     27 C24       -12.2489   -2.2847   -4.1791 C.2       1 <0>         0.4949
     28 O4        -11.1901   -2.0784   -4.7473 O.co2     1 <0>        -0.6729
     29 O5        -13.1708   -2.8100   -4.7796 O.co2     1 <0>        -0.6894
     30 O6          2.9321   -4.7379   -0.2876 O.3       1 <0>        -0.2573
     31 C25         2.8657   -6.0937   -0.2190 C.ar      1 <0>         0.0760
     32 C26         2.9883   -6.8543   -1.3728 C.ar      1 <0>        -0.0966
     33 C27         2.9211   -8.2322   -1.3014 C.ar      1 <0>        -0.1398
     34 C28         2.7314   -8.8543   -0.0790 C.ar      1 <0>         0.1015
     35 C29         2.6089   -8.0966    1.0734 C.ar      1 <0>        -0.1402
     36 C30         2.6810   -6.7188    1.0058 C.ar      1 <0>        -0.0969
     37 F1          2.6654  -10.2020   -0.0108 F         1 <0>        -0.1346
     38 H1          1.3550    1.9904    0.0964 H         1 <0>         0.0527
     39 H2         -0.3859    1.9938   -0.2745 H         1 <0>         0.0564
     40 H3          0.1641    2.0888    1.4157 H         1 <0>         0.0539
     41 H4          1.1076   -0.1974    1.2371 H         1 <0>         0.0597
     42 H5         -0.6333   -0.1939    0.8662 H         1 <0>         0.0657
     43 H6         -0.1166   -0.1326   -1.5583 H         1 <0>         0.0808
     44 H7          1.6243   -0.1361   -1.1873 H         1 <0>         0.0720
     45 H8          2.7311   -2.1343   -0.4772 H         1 <0>         0.1389
     46 H9          0.5559   -5.8125   -0.5236 H         1 <0>         0.1286
     47 H10        -1.5393   -4.5690   -0.8698 H         1 <0>         0.1331
     48 H11        -2.8686   -3.4152   -1.9936 H         1 <0>         0.0659
     49 H12        -3.0855   -3.3043   -0.2304 H         1 <0>         0.0652
     50 H13        -4.2074   -1.1102   -0.5064 H         1 <0>         0.0858
     51 H14        -3.9905   -1.2211   -2.2696 H         1 <0>         0.0870
     52 H15        -5.3448   -3.2980   -2.3055 H         1 <0>         0.0640
     53 H16        -5.5616   -3.1871   -0.5423 H         1 <0>         0.0626
     54 H17        -7.0174   -4.3106   -1.5379 H         1 <0>         0.1194
     55 H18        -9.2365   -5.3449   -1.7494 H         1 <0>         0.1193
     56 H19        -8.7773   -0.4480   -2.0095 H         1 <0>         0.1310
     57 H20       -12.7467   -2.8662   -0.8349 H         1 <0>         0.0606
     58 H21       -13.6752   -3.5609   -2.1890 H         1 <0>         0.0827
     59 H22       -11.7035   -4.5761   -3.1320 H         1 <0>         0.0791
     60 H23       -11.6791   -4.9577   -1.3943 H         1 <0>         0.0685
     61 H24       -14.5040   -1.3746   -2.8885 H         1 <0>         0.0808
     62 H25       -13.6375   -0.5483   -1.5714 H         1 <0>         0.0562
     63 H26       -12.3788    0.7884   -3.2379 H         1 <0>         0.0556
     64 H27       -13.2452   -0.0379   -4.5551 H         1 <0>         0.0610
     65 H28       -14.1336    1.0168   -3.4296 H         1 <0>         0.0452
     66 H29         3.1359   -6.3693   -2.3264 H         1 <0>         0.1427
     67 H30         3.0161   -8.8245   -2.1995 H         1 <0>         0.1445
     68 H31         2.4609   -8.5833    2.0261 H         1 <0>         0.1443
     69 H32         2.5894   -6.1282    1.9054 H         1 <0>         0.1424
@<TRIPOS>BOND
     1    1    2 1
     2    1   38 1
     3    1   39 1
     4    1   40 1
     5    2    3 1
     6    2   41 1
     7    2   42 1
     8    3    4 1
     9    3   43 1
    10    3   44 1
    11    4    9 ar
    12    4    5 ar
    13    5    6 ar
    14    5   45 1
    15    6    7 ar
    16    6   30 1
    17    7    8 ar
    18    7   46 1
    19    8    9 ar
    20    8   47 1
    21    9   10 1
    22   10   11 1
    23   11   12 1
    24   11   48 1
    25   11   49 1
    26   12   13 1
    27   12   50 1
    28   12   51 1
    29   13   14 1
    30   13   52 1
    31   13   53 1
    32   14   15 1
    33   15   20 ar
    34   15   16 ar
    35   16   17 ar
    36   16   54 1
    37   17   18 ar
    38   17   55 1
    39   18   24 1
    40   18   19 ar
    41   19   20 ar
    42   19   21 1
    43   20   56 1
    44   21   22 1
    45   22   23 1
    46   22   25 1
    47   22   27 1
    48   23   24 1
    49   23   57 1
    50   23   58 1
    51   24   59 1
    52   24   60 1
    53   25   26 1
    54   25   61 1
    55   25   62 1
    56   26   63 1
    57   26   64 1
    58   26   65 1
    59   27   28 2
    60   27   29 1
    61   30   31 1
    62   31   36 ar
    63   31   32 ar
    64   32   33 ar
    65   32   66 1
    66   33   34 ar
    67   33   67 1
    68   34   35 ar
    69   34   37 1
    70   35   36 ar
    71   35   68 1
    72   36   69 1
@<TRIPOS>MOLECULE
CHEMBL202631
   75    78     0     0     0
SMALL
USER_CHARGES

@<TRIPOS>ATOM
      1 C1         -0.0187    1.5258    0.0104 C.3       1 <0>        -0.1463
      2 C2          0.0021   -0.0041    0.0020 C.3       1 <0>        -0.0937
      3 C3          0.7421   -0.5109    1.2415 C.3       1 <0>        -0.1321
      4 C4          0.0259   -0.0175    2.5003 C.3       1 <0>        -0.1153
      5 C5          0.7628   -2.0407    1.2331 C.3       1 <0>        -0.0531
      6 C6          1.4917   -2.5400    2.4540 C.ar      1 <0>        -0.0903
      7 C7          2.8581   -2.7459    2.4060 C.ar      1 <0>        -0.0548
      8 C8          3.5285   -3.2039    3.5237 C.ar      1 <0>        -0.1468
      9 C9          2.8296   -3.4568    4.6951 C.ar      1 <0>         0.1111
     10 C10         1.4587   -3.2490    4.7409 C.ar      1 <0>        -0.2132
     11 C11         0.7938   -2.7859    3.6220 C.ar      1 <0>        -0.0801
     12 O1          3.4868   -3.9078    5.7958 O.3       1 <0>        -0.3159
     13 C12         2.7032   -4.1469    6.9667 C.3       1 <0>         0.0663
     14 C13         3.6094   -4.6465    8.0936 C.3       1 <0>        -0.1198
     15 C14         2.7705   -4.9024    9.3472 C.3       1 <0>         0.0638
     16 O2          3.6169   -5.3691   10.3998 O.3       1 <0>        -0.3058
     17 C15         3.0246   -5.6455   11.5909 C.ar      1 <0>         0.1761
     18 C16         1.6536   -5.4746   11.7365 C.ar      1 <0>        -0.2358
     19 C17         1.0429   -5.7530   12.9430 C.ar      1 <0>        -0.0263
     20 C18         1.8069   -6.2056   14.0114 C.ar      1 <0>        -0.1630
     21 C19         3.1900   -6.3788   13.8660 C.ar      1 <0>         0.1781
     22 C20         3.7921   -6.1026   12.6534 C.ar      1 <0>        -0.1796
     23 O3          3.9114   -6.8219   14.9271 O.3       1 <0>        -0.3020
     24 C21         3.4874   -6.4061   16.2257 C.3       1 <0>         0.1535
     25 C22         2.0055   -6.6185   16.3916 C.2       1 <0>        -0.1735
     26 C23         1.1920   -6.5162   15.3258 C.2       1 <0>        -0.0202
     27 C24        -0.2726   -6.7072   15.4596 C.ar      1 <0>        -0.0430
     28 C25        -0.8980   -7.7838   14.8325 C.ar      1 <0>        -0.0687
     29 C26        -2.2609   -7.9568   14.9609 C.ar      1 <0>        -0.1164
     30 C27        -3.0067   -7.0640   15.7098 C.ar      1 <0>        -0.0698
     31 C28        -2.3917   -5.9938   16.3337 C.ar      1 <0>        -0.1810
     32 C29        -1.0281   -5.8143   16.2174 C.ar      1 <0>        -0.0548
     33 C30        -3.2111   -5.0251   17.1469 C.3       1 <0>         0.5087
     34 F1         -4.5544   -5.4148   17.1218 F         1 <0>        -0.1762
     35 F2         -2.7516   -5.0201   18.4683 F         1 <0>        -0.1763
     36 F3         -3.0878   -3.7409   16.6056 F         1 <0>        -0.1746
     37 C31         4.2354   -7.2183   17.2848 C.3       1 <0>        -0.1376
     38 C32         3.8081   -4.9215   16.4099 C.3       1 <0>        -0.1742
     39 C33         2.1559    0.0107    1.2308 C.2       1 <0>         0.5132
     40 O4          2.5538    0.7121    2.1453 O.co2     1 <0>        -0.6948
     41 O5          2.9018   -0.2687    0.3078 O.co2     1 <0>        -0.7027
     42 H1          1.0039    1.9031    0.0027 H         1 <0>         0.0589
     43 H2         -0.5459    1.8868   -0.8726 H         1 <0>         0.0396
     44 H3         -0.5289    1.8773    0.9072 H         1 <0>         0.0499
     45 H4         -1.0205   -0.3814    0.0098 H         1 <0>         0.0428
     46 H5          0.5123   -0.3556   -0.8948 H         1 <0>         0.0606
     47 H6         -0.9967   -0.3948    2.5081 H         1 <0>         0.0263
     48 H7          0.5531   -0.3786    3.3834 H         1 <0>         0.0534
     49 H8          0.0111    1.0724    2.5063 H         1 <0>         0.0509
     50 H9         -0.2598   -2.4180    1.2409 H         1 <0>         0.0540
     51 H10         1.2730   -2.3923    0.3363 H         1 <0>         0.0711
     52 H11         3.4017   -2.5488    1.4938 H         1 <0>         0.1356
     53 H12         4.5957   -3.3652    3.4854 H         1 <0>         0.1246
     54 H13         0.9124   -3.4452    5.6516 H         1 <0>         0.1185
     55 H14        -0.2728   -2.6198    3.6584 H         1 <0>         0.1182
     56 H15         2.2178   -3.2206    7.2744 H         1 <0>         0.0636
     57 H16         1.9452   -4.8994    6.7492 H         1 <0>         0.0620
     58 H17         4.0948   -5.5727    7.7859 H         1 <0>         0.0864
     59 H18         4.3674   -3.8940    8.3110 H         1 <0>         0.0875
     60 H19         2.2851   -3.9762    9.6549 H         1 <0>         0.0701
     61 H20         2.0125   -5.6550    9.1298 H         1 <0>         0.0692
     62 H21         1.0636   -5.1224   10.9032 H         1 <0>         0.1345
     63 H22        -0.0229   -5.6194   13.0557 H         1 <0>         0.1294
     64 H23         4.8569   -6.2382   12.5338 H         1 <0>         0.1432
     65 H24         1.5974   -6.8524   17.3639 H         1 <0>         0.1339
     66 H25        -0.3169   -8.4810   14.2471 H         1 <0>         0.1351
     67 H26        -2.7464   -8.7905   14.4756 H         1 <0>         0.1393
     68 H27        -4.0732   -7.2031   15.8072 H         1 <0>         0.1404
     69 H28        -0.5481   -4.9810   16.7090 H         1 <0>         0.1358
     70 H29         5.3075   -7.0520   17.1800 H         1 <0>         0.0722
     71 H30         3.9143   -6.9036   18.2778 H         1 <0>         0.0809
     72 H31         4.0172   -8.2778   17.1512 H         1 <0>         0.0684
     73 H32         3.2847   -4.3398   15.6511 H         1 <0>         0.0627
     74 H33         3.4858   -4.6003   17.4004 H         1 <0>         0.0754
     75 H34         4.8824   -4.7666   16.3094 H         1 <0>         0.0723
@<TRIPOS>BOND
     1    1    2 1
     2    1   42 1
     3    1   43 1
     4    1   44 1
     5    2    3 1
     6    2   45 1
     7    2   46 1
     8    3    4 1
     9    3    5 1
    10    3   39 1
    11    4   47 1
    12    4   48 1
    13    4   49 1
    14    5    6 1
    15    5   50 1
    16    5   51 1
    17    6   11 ar
    18    6    7 ar
    19    7    8 ar
    20    7   52 1
    21    8    9 ar
    22    8   53 1
    23    9   10 ar
    24    9   12 1
    25   10   11 ar
    26   10   54 1
    27   11   55 1
    28   12   13 1
    29   13   14 1
    30   13   56 1
    31   13   57 1
    32   14   15 1
    33   14   58 1
    34   14   59 1
    35   15   16 1
    36   15   60 1
    37   15   61 1
    38   16   17 1
    39   17   22 ar
    40   17   18 ar
    41   18   19 ar
    42   18   62 1
    43   19   20 ar
    44   19   63 1
    45   20   26 1
    46   20   21 ar
    47   21   22 ar
    48   21   23 1
    49   22   64 1
    50   23   24 1
    51   24   25 1
    52   24   37 1
    53   24   38 1
    54   25   26 2
    55   25   65 1
    56   26   27 1
    57   27   32 ar
    58   27   28 ar
    59   28   29 ar
    60   28   66 1
    61   29   30 ar
    62   29   67 1
    63   30   31 ar
    64   30   68 1
    65   31   32 ar
    66   31   33 1
    67   32   69 1
    68   33   34 1
    69   33   35 1
    70   33   36 1
    71   37   70 1
    72   37   71 1
    73   37   72 1
    74   38   73 1
    75   38   74 1
    76   38   75 1
    77   39   40 2
    78   39   41 1
@<TRIPOS>MOLECULE
CHEMBL295416
   34    35     0     0     0
SMALL
USER_CHARGES

@<TRIPOS>ATOM
      1 C1          1.1628    1.2415   -0.1816 C.3       1 <0>        -0.1125
      2 C2          0.5396   -0.1274   -0.0881 C.ar      1 <0>        -0.0708
      3 C3         -0.0758   -0.6832   -1.1950 C.ar      1 <0>        -0.1399
      4 C4         -0.6489   -1.9389   -1.1136 C.ar      1 <0>        -0.0956
      5 C5         -0.6081   -2.6426    0.0743 C.ar      1 <0>        -0.1245
      6 C6          0.0094   -2.0875    1.1876 C.ar      1 <0>         0.1624
      7 C7          0.5885   -0.8277    1.1009 C.ar      1 <0>        -0.1269
      8 C8          1.2642   -0.2236    2.3049 C.3       1 <0>        -0.1134
      9 N1          0.0525   -2.7970    2.3913 N.pl3     1 <0>        -0.6432
     10 C9         -0.0333   -4.1809    2.3838 C.ar      1 <0>         0.4504
     11 C10        -0.1233   -4.8911    3.5821 C.ar      1 <0>        -0.2937
     12 C11        -0.2076   -6.2706    3.5268 C.ar      1 <0>         0.2686
     13 N2         -0.2005   -6.8736    2.3458 N.ar      1 <0>        -0.5558
     14 C12        -0.1140   -6.1729    1.2242 C.ar      1 <0>         0.3382
     15 N3         -0.0367   -4.8500    1.2351 N.ar      1 <0>        -0.5436
     16 S1         -0.1079   -7.0210   -0.3202 S.3       1 <0>         0.0845
     17 C13        -0.2344   -8.7712    0.1397 C.3       1 <0>        -0.1742
     18 C14        -0.2397   -9.6189   -1.1062 C.2       1 <0>         0.5136
     19 O1         -0.1649   -9.0913   -2.2028 O.co2     1 <0>        -0.6747
     20 O2         -0.3186  -10.8323   -1.0176 O.co2     1 <0>        -0.6767
     21 Cl1        -0.3208   -7.2023    4.9872 Cl        1 <0>        -0.0203
     22 H1          2.2036    1.1465   -0.4911 H         1 <0>         0.0688
     23 H2          0.6192    1.8390   -0.9134 H         1 <0>         0.0653
     24 H3          1.1164    1.7291    0.7921 H         1 <0>         0.0654
     25 H4         -0.1091   -0.1351   -2.1250 H         1 <0>         0.1195
     26 H5         -1.1293   -2.3698   -1.9796 H         1 <0>         0.1264
     27 H6         -1.0562   -3.6232    0.1373 H         1 <0>         0.1517
     28 H7          0.5364    0.3468    2.8820 H         1 <0>         0.0672
     29 H8          1.6782   -1.0180    2.9259 H         1 <0>         0.0600
     30 H9          2.0668    0.4373    1.9776 H         1 <0>         0.0719
     31 H10         0.1425   -2.3212    3.2317 H         1 <0>         0.4195
     32 H11        -0.1267   -4.3752    4.5310 H         1 <0>         0.1489
     33 H12         0.6171   -9.0457    0.7624 H         1 <0>         0.0917
     34 H13        -1.1582   -8.9351    0.6946 H         1 <0>         0.0918
@<TRIPOS>BOND
     1    1    2 1
     2    1   22 1
     3    1   23 1
     4    1   24 1
     5    2    7 ar
     6    2    3 ar
     7    3    4 ar
     8    3   25 1
     9    4    5 ar
    10    4   26 1
    11    5    6 ar
    12    5   27 1
    13    6    7 ar
    14    6    9 1
    15    7    8 1
    16    8   28 1
    17    8   29 1
    18    8   30 1
    19    9   10 1
    20    9   31 1
    21   10   15 ar
    22   10   11 ar
    23   11   12 ar
    24   11   32 1
    25   12   13 ar
    26   12   21 1
    27   13   14 ar
    28   14   15 ar
    29   14   16 1
    30   16   17 1
    31   17   18 1
    32   17   33 1
    33   17   34 1
    34   18   19 2
    35   18   20 1
@<TRIPOS>MOLECULE
CHEMBL201036
   69    73     0     0     0
SMALL
USER_CHARGES

@<TRIPOS>ATOM
      1 C1         -0.1702    1.0613   -0.8243 C.3       1 <0>        -0.1524
      2 C2          0.0245   -0.4164   -0.4789 C.3       1 <0>        -0.1171
      3 C3          0.5819   -0.5392    0.9407 C.3       1 <0>        -0.0710
      4 C4          0.7738   -1.9947    1.2809 C.ar      1 <0>        -0.1238
      5 C5         -0.2675   -2.7241    1.8743 C.ar      1 <0>         0.0161
      6 C6         -1.5048   -2.1163    2.1624 C.ar      1 <0>        -0.1225
      7 C7         -2.4989   -2.8387    2.7363 C.ar      1 <0>        -0.0617
      8 C8         -2.3131   -4.1982    3.0513 C.ar      1 <0>        -0.1745
      9 C9         -1.1060   -4.8249    2.7792 C.ar      1 <0>        -0.0395
     10 C10        -0.0673   -4.0935    2.1866 C.ar      1 <0>        -0.0984
     11 C11         1.1701   -4.6980    1.8962 C.ar      1 <0>        -0.0592
     12 C12         2.1617   -3.9683    1.3206 C.ar      1 <0>        -0.1892
     13 C13         1.9703   -2.6185    1.0060 C.ar      1 <0>         0.1511
     14 O1          2.9769   -1.9148    0.4265 O.3       1 <0>        -0.3022
     15 C14         4.1937   -2.6175    0.1663 C.3       1 <0>         0.0621
     16 C15         5.2020   -1.6679   -0.4836 C.3       1 <0>        -0.1189
     17 C16         6.5048   -2.4203   -0.7621 C.3       1 <0>         0.0659
     18 O2          7.4467   -1.5334   -1.3691 O.3       1 <0>        -0.3089
     19 C17         8.6645   -2.0476   -1.6831 C.ar      1 <0>         0.1703
     20 C18         8.9480   -3.3742   -1.4205 C.ar      1 <0>        -0.2536
     21 C19        10.1908   -3.9014   -1.7407 C.ar      1 <0>        -0.0751
     22 C20        11.1601   -3.1148   -2.3233 C.ar      1 <0>        -0.1483
     23 C21        10.8982   -1.7756   -2.5976 C.ar      1 <0>         0.1493
     24 C22         9.6386   -1.2383   -2.2803 C.ar      1 <0>        -0.1353
     25 C23         9.6804    0.1663   -2.6937 C.2       1 <0>        -0.2060
     26 C24        10.8973    0.3856   -3.2156 C.2       1 <0>         0.0598
     27 N1         11.6423   -0.7620   -3.1589 N.pl3     1 <0>        -0.4399
     28 C25        13.0201   -0.8956   -3.6384 C.3       1 <0>         0.0321
     29 C26        13.0117   -1.4178   -5.0520 C.2       1 <0>         0.4805
     30 O3         11.9528   -1.6562   -5.6075 O.co2     1 <0>        -0.6712
     31 O4         14.0636   -1.6018   -5.6402 O.co2     1 <0>        -0.6924
     32 C27        -3.4104   -4.9619    3.6759 C.2       1 <0>         0.4396
     33 O5         -4.5125   -4.4609    3.7884 O.2       1 <0>        -0.4475
     34 C28        -3.1697   -6.3354    4.1647 C.ar      1 <0>        -0.1550
     35 C29        -1.9316   -6.6782    4.7128 C.ar      1 <0>        -0.0877
     36 C30        -1.7139   -7.9622    5.1670 C.ar      1 <0>        -0.1277
     37 C31        -2.7185   -8.9099    5.0803 C.ar      1 <0>        -0.0937
     38 C32        -3.9475   -8.5773    4.5380 C.ar      1 <0>        -0.1269
     39 C33        -4.1812   -7.2953    4.0860 C.ar      1 <0>        -0.0675
     40 H1          0.7877    1.5778   -0.7642 H         1 <0>         0.0563
     41 H2         -0.5673    1.1487   -1.8356 H         1 <0>         0.0542
     42 H3         -0.8699    1.5101   -0.1192 H         1 <0>         0.0525
     43 H4         -0.9334   -0.9330   -0.5390 H         1 <0>         0.0598
     44 H5          0.7242   -0.8652   -1.1840 H         1 <0>         0.0645
     45 H6          1.5399   -0.0227    1.0008 H         1 <0>         0.0797
     46 H7         -0.1177   -0.0904    1.6458 H         1 <0>         0.0718
     47 H8         -1.6620   -1.0742    1.9264 H         1 <0>         0.1361
     48 H9         -3.4446   -2.3650    2.9548 H         1 <0>         0.1335
     49 H10        -0.9674   -5.8680    3.0224 H         1 <0>         0.1435
     50 H11         1.3315   -5.7398    2.1308 H         1 <0>         0.1344
     51 H12         3.1091   -4.4375    1.1001 H         1 <0>         0.1352
     52 H13         4.6024   -2.9956    1.1034 H         1 <0>         0.0676
     53 H14         3.9947   -3.4519   -0.5062 H         1 <0>         0.0682
     54 H15         4.7933   -1.2898   -1.4206 H         1 <0>         0.0870
     55 H16         5.4010   -0.8335    0.1889 H         1 <0>         0.0861
     56 H17         6.9135   -2.7984    0.1750 H         1 <0>         0.0625
     57 H18         6.3059   -3.2547   -1.4346 H         1 <0>         0.0633
     58 H19         8.1988   -4.0035   -0.9634 H         1 <0>         0.1187
     59 H20        10.4007   -4.9398   -1.5306 H         1 <0>         0.1204
     60 H21        12.1237   -3.5373   -2.5671 H         1 <0>         0.1158
     61 H22         8.8830    0.8884   -2.5975 H         1 <0>         0.1411
     62 H23        11.2411    1.3293   -3.6126 H         1 <0>         0.1607
     63 H24        13.5095    0.0781   -3.6136 H         1 <0>         0.0883
     64 H25        13.5621   -1.5910   -2.9974 H         1 <0>         0.0839
     65 H26        -1.1465   -5.9397    4.7803 H         1 <0>         0.1355
     66 H27        -0.7570   -8.2286    5.5910 H         1 <0>         0.1308
     67 H28        -2.5425   -9.9139    5.4372 H         1 <0>         0.1279
     68 H29        -4.7269   -9.3221    4.4728 H         1 <0>         0.1299
     69 H30        -5.1424   -7.0358    3.6675 H         1 <0>         0.1310
@<TRIPOS>BOND
     1    1    2 1
     2    1   40 1
     3    1   41 1
     4    1   42 1
     5    2    3 1
     6    2   43 1
     7    2   44 1
     8    3    4 1
     9    3   45 1
    10    3   46 1
    11    4   13 ar
    12    4    5 ar
    13    5   10 ar
    14    5    6 ar
    15    6    7 ar
    16    6   47 1
    17    7    8 ar
    18    7   48 1
    19    8    9 ar
    20    8   32 1
    21    9   10 ar
    22    9   49 1
    23   10   11 ar
    24   11   12 ar
    25   11   50 1
    26   12   13 ar
    27   12   51 1
    28   13   14 1
    29   14   15 1
    30   15   16 1
    31   15   52 1
    32   15   53 1
    33   16   17 1
    34   16   54 1
    35   16   55 1
    36   17   18 1
    37   17   56 1
    38   17   57 1
    39   18   19 1
    40   19   24 ar
    41   19   20 ar
    42   20   21 ar
    43   20   58 1
    44   21   22 ar
    45   21   59 1
    46   22   23 ar
    47   22   60 1
    48   23   27 1
    49   23   24 ar
    50   24   25 1
    51   25   26 2
    52   25   61 1
    53   26   27 1
    54   26   62 1
    55   27   28 1
    56   28   29 1
    57   28   63 1
    58   28   64 1
    59   29   30 2
    60   29   31 1
    61   32   33 2
    62   32   34 1
    63   34   39 ar
    64   34   35 ar
    65   35   36 ar
    66   35   65 1
    67   36   37 ar
    68   36   66 1
    69   37   38 ar
    70   37   67 1
    71   38   39 ar
    72   38   68 1
    73   39   69 1
@<TRIPOS>MOLECULE
CHEMBL280065
   62    61     0     0     0
SMALL
USER_CHARGES

@<TRIPOS>ATOM
      1 C1          0.1245    1.2913    1.2265 C.3       1 <0>        -0.1543
      2 C2          0.1194   -0.2123    0.9436 C.3       1 <0>        -0.1261
      3 C3         -1.3223   -0.7245    0.9342 C.3       1 <0>        -0.1214
      4 C4         -1.3274   -2.2282    0.6513 C.3       1 <0>        -0.1210
      5 C5         -2.7691   -2.7404    0.6419 C.3       1 <0>        -0.1206
      6 C6         -2.7742   -4.2440    0.3590 C.3       1 <0>        -0.1206
      7 C7         -4.2159   -4.7563    0.3496 C.3       1 <0>        -0.1139
      8 C8         -4.2210   -6.2599    0.0667 C.3       1 <0>        -0.1018
      9 C9         -5.6410   -6.7645    0.0574 C.2       1 <0>        -0.1601
     10 C10        -6.0832   -7.4576   -0.9625 C.2       1 <0>        -0.1598
     11 C11        -5.1311   -7.8959   -2.0452 C.3       1 <0>        -0.1018
     12 C12        -5.2475   -9.4083   -2.2451 C.3       1 <0>        -0.1142
     13 C13        -4.2809   -9.8534   -3.3444 C.3       1 <0>        -0.1199
     14 C14        -4.3973  -11.3658   -3.5443 C.3       1 <0>        -0.1205
     15 C15        -3.4307  -11.8109   -4.6435 C.3       1 <0>        -0.1200
     16 C16        -3.5471  -13.3233   -4.8434 C.3       1 <0>        -0.1051
     17 C17        -2.5805  -13.7684   -5.9427 C.3       1 <0>        -0.1404
     18 C18        -2.6952  -15.2580   -6.1396 C.2       1 <0>         0.5101
     19 O1         -3.4734  -15.9005   -5.4669 O.2       1 <0>        -0.5410
     20 N1         -1.9329  -15.8764   -7.0632 N.am      1 <0>        -0.7288
     21 C19        -2.0444  -17.3245   -7.2546 C.3       1 <0>         0.1176
     22 C20        -1.0777  -17.7696   -8.3539 C.3       1 <0>         0.0628
     23 O2          0.2670  -17.5475   -7.9243 O.3       1 <0>        -0.5723
     24 H1          1.1516    1.6563    1.2332 H         1 <0>         0.0534
     25 H2         -0.4399    1.8089    0.4508 H         1 <0>         0.0533
     26 H3         -0.3345    1.4800    2.1969 H         1 <0>         0.0533
     27 H4          0.5784   -0.4010   -0.0269 H         1 <0>         0.0602
     28 H5          0.6838   -0.7299    1.7192 H         1 <0>         0.0603
     29 H6         -1.7813   -0.5358    1.9046 H         1 <0>         0.0606
     30 H7         -1.8867   -0.2070    0.1585 H         1 <0>         0.0605
     31 H8         -0.8684   -2.4169   -0.3192 H         1 <0>         0.0605
     32 H9         -0.7630   -2.7457    1.4270 H         1 <0>         0.0606
     33 H10        -3.2281   -2.5517    1.6123 H         1 <0>         0.0607
     34 H11        -3.3335   -2.2229   -0.1338 H         1 <0>         0.0606
     35 H12        -2.3152   -4.4327   -0.6115 H         1 <0>         0.0608
     36 H13        -2.2098   -4.7616    1.1347 H         1 <0>         0.0611
     37 H14        -4.6749   -4.5676    1.3201 H         1 <0>         0.0611
     38 H15        -4.7803   -4.2387   -0.4261 H         1 <0>         0.0615
     39 H16        -3.7620   -6.4486   -0.9038 H         1 <0>         0.0758
     40 H17        -3.6566   -6.7775    0.8424 H         1 <0>         0.0678
     41 H18        -6.2941   -6.5546    0.8916 H         1 <0>         0.1071
     42 H19        -7.1301   -7.7148   -1.0273 H         1 <0>         0.1072
     43 H20        -5.3798   -7.3862   -2.9760 H         1 <0>         0.0676
     44 H21        -4.1107   -7.6453   -1.7551 H         1 <0>         0.0757
     45 H22        -4.9988   -9.9181   -1.3143 H         1 <0>         0.0619
     46 H23        -6.2679   -9.6590   -2.5352 H         1 <0>         0.0615
     47 H24        -4.5296   -9.3437   -4.2752 H         1 <0>         0.0611
     48 H25        -3.2605   -9.6028   -3.0543 H         1 <0>         0.0609
     49 H26        -4.1486  -11.8756   -2.6135 H         1 <0>         0.0624
     50 H27        -5.4177  -11.6165   -3.8344 H         1 <0>         0.0623
     51 H28        -3.6794  -11.3012   -5.5743 H         1 <0>         0.0619
     52 H29        -2.4103  -11.5602   -4.3534 H         1 <0>         0.0621
     53 H30        -3.2984  -13.8330   -3.9126 H         1 <0>         0.0695
     54 H31        -4.5675  -13.5740   -5.1335 H         1 <0>         0.0693
     55 H32        -2.8292  -13.2586   -6.8735 H         1 <0>         0.0929
     56 H33        -1.5601  -13.5177   -5.6526 H         1 <0>         0.0936
     57 H34        -1.3104  -15.3626   -7.6012 H         1 <0>         0.4035
     58 H35        -1.7957  -17.8343   -6.3238 H         1 <0>         0.0751
     59 H36        -3.0647  -17.5752   -7.5447 H         1 <0>         0.0822
     60 H37        -1.2234  -18.8304   -8.5582 H         1 <0>         0.0647
     61 H38        -1.2691  -17.1954   -9.2603 H         1 <0>         0.0540
     62 H39         0.9352  -17.8075   -8.5731 H         1 <0>         0.3841
@<TRIPOS>BOND
     1    1    2 1
     2    1   24 1
     3    1   25 1
     4    1   26 1
     5    2    3 1
     6    2   27 1
     7    2   28 1
     8    3    4 1
     9    3   29 1
    10    3   30 1
    11    4    5 1
    12    4   31 1
    13    4   32 1
    14    5    6 1
    15    5   33 1
    16    5   34 1
    17    6    7 1
    18    6   35 1
    19    6   36 1
    20    7    8 1
    21    7   37 1
    22    7   38 1
    23    8    9 1
    24    8   39 1
    25    8   40 1
    26    9   10 2
    27    9   41 1
    28   10   11 1
    29   10   42 1
    30   11   12 1
    31   11   43 1
    32   11   44 1
    33   12   13 1
    34   12   45 1
    35   12   46 1
    36   13   14 1
    37   13   47 1
    38   13   48 1
    39   14   15 1
    40   14   49 1
    41   14   50 1
    42   15   16 1
    43   15   51 1
    44   15   52 1
    45   16   17 1
    46   16   53 1
    47   16   54 1
    48   17   18 1
    49   17   55 1
    50   17   56 1
    51   18   19 2
    52   18   20 am
    53   20   21 1
    54   20   57 1
    55   21   22 1
    56   21   58 1
    57   21   59 1
    58   22   23 1
    59   22   60 1
    60   22   61 1
    61   23   62 1
@<TRIPOS>MOLECULE
CHEMBL470322
   67    70     0     0     0
SMALL
USER_CHARGES

@<TRIPOS>ATOM
      1 C1         -2.3160    0.6463    1.1017 C.3       1 <0>        -0.0954
      2 C2         -1.9989   -0.8260    1.0483 C.ar      1 <0>        -0.1426
      3 C3         -1.8494   -1.4572   -0.1717 C.ar      1 <0>        -0.0742
      4 C4         -1.5590   -2.8079   -0.2214 C.ar      1 <0>        -0.1655
      5 C5         -1.4169   -3.5305    0.9490 C.ar      1 <0>        -0.0787
      6 C6         -1.5650   -2.9041    2.1711 C.ar      1 <0>        -0.1560
      7 C7         -1.8512   -1.5474    2.2238 C.ar      1 <0>         0.1798
      8 O1         -1.9918   -0.9276    3.4250 O.3       1 <0>        -0.2984
      9 C8         -1.6964   -1.6985    4.5913 C.3       1 <0>         0.0291
     10 C9         -0.2476   -2.1861    4.5270 C.3       1 <0>        -0.1732
     11 C10        -1.8880   -0.8319    5.8376 C.3       1 <0>        -0.1147
     12 C11        -2.6232   -2.8850    4.6573 C.2       1 <0>         0.4816
     13 O2         -3.4592   -3.0547    3.7862 O.co2     1 <0>        -0.6683
     14 O3         -2.5370   -3.6753    5.5817 O.co2     1 <0>        -0.6859
     15 C12        -1.3975   -3.4940   -1.5534 C.3       1 <0>         0.1735
     16 N1          0.0052   -3.4265   -1.9706 N.am      1 <0>        -0.7084
     17 C13         0.3880   -3.9781   -3.1392 C.2       1 <0>         0.6011
     18 O4         -0.4307   -4.5317   -3.8471 O.2       1 <0>        -0.5376
     19 C14         1.8026   -3.9101   -3.5599 C.2       1 <0>        -0.0102
     20 C15         2.3468   -4.4344   -4.7525 C.2       1 <0>        -0.1669
     21 C16         3.6798   -4.1343   -4.7071 C.2       1 <0>         0.0607
     22 N2          3.8938   -3.4657   -3.5380 N.pl3     1 <0>        -0.2803
     23 N3          2.7892   -3.3435   -2.8938 N.2       1 <0>        -0.2546
     24 C17         5.1909   -2.9561   -3.0865 C.3       1 <0>         0.0785
     25 C18         4.6952   -4.4710   -5.7294 C.ar      1 <0>        -0.0788
     26 C19         4.4578   -5.5044   -6.6366 C.ar      1 <0>        -0.0397
     27 C20         5.4051   -5.8156   -7.5881 C.ar      1 <0>        -0.1934
     28 C21         6.5964   -5.1010   -7.6445 C.ar      1 <0>         0.2262
     29 C22         6.8358   -4.0712   -6.7415 C.ar      1 <0>        -0.1946
     30 C23         5.8896   -3.7520   -5.7917 C.ar      1 <0>        -0.0708
     31 N4          7.5540   -5.4183   -8.6091 N.pl3     1 <0>        -0.6308
     32 C24         8.8619   -4.7441   -8.6285 C.3       1 <0>         0.0851
     33 C25         9.9568   -5.8149   -8.6959 C.3       1 <0>         0.0455
     34 O5          9.6827   -6.7005   -9.7843 O.3       1 <0>        -0.3796
     35 C26         8.4574   -7.4255   -9.6546 C.3       1 <0>         0.0453
     36 C27         7.2878   -6.4412   -9.6329 C.3       1 <0>         0.0839
     37 H1         -1.3878    1.2174    1.1211 H         1 <0>         0.0580
     38 H2         -2.8960    0.9252    0.2220 H         1 <0>         0.0568
     39 H3         -2.8936    0.8611    2.0008 H         1 <0>         0.0670
     40 H4         -1.9599   -0.8950   -1.0872 H         1 <0>         0.1187
     41 H5         -1.1904   -4.5857    0.9075 H         1 <0>         0.1152
     42 H6         -1.4539   -3.4689    3.0849 H         1 <0>         0.1408
     43 H7          0.4266   -1.3423    4.6739 H         1 <0>         0.0503
     44 H8         -0.0784   -2.9267    5.3086 H         1 <0>         0.0748
     45 H9         -0.0588   -2.6366    3.5526 H         1 <0>         0.0674
     46 H10        -2.8957   -0.4165    5.8399 H         1 <0>         0.0568
     47 H11        -1.7442   -1.4415    6.7297 H         1 <0>         0.0782
     48 H12        -1.1605   -0.0202    5.8310 H         1 <0>         0.0502
     49 H13        -1.7001   -4.5373   -1.4638 H         1 <0>         0.0740
     50 H14        -2.0217   -2.9972   -2.2961 H         1 <0>         0.0732
     51 H15         0.6585   -2.9848   -1.4057 H         1 <0>         0.4076
     52 H16         1.8212   -4.9615   -5.5350 H         1 <0>         0.1628
     53 H17         5.3371   -1.9456   -3.4681 H         1 <0>         0.0864
     54 H18         5.2157   -2.9401   -1.9969 H         1 <0>         0.0999
     55 H19         5.9851   -3.6034   -3.4585 H         1 <0>         0.0992
     56 H20         3.5327   -6.0601   -6.5930 H         1 <0>         0.1314
     57 H21         5.2220   -6.6155   -8.2902 H         1 <0>         0.1282
     58 H22         7.7622   -3.5180   -6.7874 H         1 <0>         0.1261
     59 H23         6.0740   -2.9488   -5.0936 H         1 <0>         0.1275
     60 H24         8.9279   -4.0961   -9.5024 H         1 <0>         0.0720
     61 H25         8.9830   -4.1518   -7.7216 H         1 <0>         0.0936
     62 H26        10.9243   -5.3371   -8.8501 H         1 <0>         0.1054
     63 H27         9.9727   -6.3786   -7.7631 H         1 <0>         0.0564
     64 H28         8.3462   -8.1064  -10.4985 H         1 <0>         0.1062
     65 H29         8.4679   -7.9950   -8.7253 H         1 <0>         0.0564
     66 H30         6.3672   -6.9721   -9.3908 H         1 <0>         0.0953
     67 H31         7.1927   -5.9669  -10.6097 H         1 <0>         0.0723
@<TRIPOS>BOND
     1    1    2 1
     2    1   37 1
     3    1   38 1
     4    1   39 1
     5    2    7 ar
     6    2    3 ar
     7    3    4 ar
     8    3   40 1
     9    4    5 ar
    10    4   15 1
    11    5    6 ar
    12    5   41 1
    13    6    7 ar
    14    6   42 1
    15    7    8 1
    16    8    9 1
    17    9   10 1
    18    9   11 1
    19    9   12 1
    20   10   43 1
    21   10   44 1
    22   10   45 1
    23   11   46 1
    24   11   47 1
    25   11   48 1
    26   12   13 2
    27   12   14 1
    28   15   16 1
    29   15   49 1
    30   15   50 1
    31   16   17 am
    32   16   51 1
    33   17   18 2
    34   17   19 1
    35   19   23 2
    36   19   20 1
    37   20   21 2
    38   20   52 1
    39   21   22 1
    40   21   25 1
    41   22   23 1
    42   22   24 1
    43   24   53 1
    44   24   54 1
    45   24   55 1
    46   25   30 ar
    47   25   26 ar
    48   26   27 ar
    49   26   56 1
    50   27   28 ar
    51   27   57 1
    52   28   29 ar
    53   28   31 1
    54   29   30 ar
    55   29   58 1
    56   30   59 1
    57   31   36 1
    58   31   32 1
    59   32   33 1
    60   32   60 1
    61   32   61 1
    62   33   34 1
    63   33   62 1
    64   33   63 1
    65   34   35 1
    66   35   36 1
    67   35   64 1
    68   35   65 1
    69   36   66 1
    70   36   67 1
@<TRIPOS>MOLECULE
CHEMBL513035
   66    69     0     0     0
SMALL
USER_CHARGES

@<TRIPOS>ATOM
      1 C1         -2.1073    0.4171    0.2419 C.3       1 <0>        -0.0954
      2 C2         -1.7965   -1.0571    0.2756 C.ar      1 <0>        -0.1427
      3 C3         -1.5172   -1.7318   -0.8973 C.ar      1 <0>        -0.0740
      4 C4         -1.2325   -3.0842   -0.8672 C.ar      1 <0>        -0.1654
      5 C5         -1.2259   -3.7652    0.3364 C.ar      1 <0>        -0.0785
      6 C6         -1.5040   -3.0952    1.5118 C.ar      1 <0>        -0.1563
      7 C7         -1.7849   -1.7366    1.4848 C.ar      1 <0>         0.1798
      8 O1         -2.0533   -1.0740    2.6405 O.3       1 <0>        -0.2985
      9 C8         -1.8955   -1.8042    3.8587 C.3       1 <0>         0.0292
     10 C9         -0.4529   -2.3009    3.9723 C.3       1 <0>        -0.1734
     11 C10        -2.2160   -0.8926    5.0449 C.3       1 <0>        -0.1147
     12 C11        -2.8345   -2.9829    3.8630 C.2       1 <0>         0.4816
     13 O2         -3.5705   -3.1795    2.9112 O.co2     1 <0>        -0.6682
     14 O3         -2.8580   -3.7400    4.8184 O.co2     1 <0>        -0.6860
     15 C12        -0.9292   -3.8179   -2.1482 C.3       1 <0>         0.1735
     16 N1          0.5115   -3.7695   -2.4093 N.am      1 <0>        -0.7086
     17 C13         1.0176   -4.3636   -3.5081 C.2       1 <0>         0.6013
     18 O4          0.2784   -4.9395   -4.2827 O.2       1 <0>        -0.5378
     19 C14         2.4705   -4.3148   -3.7714 C.2       1 <0>        -0.0105
     20 C15         3.1398   -4.8830   -4.8772 C.2       1 <0>        -0.1681
     21 C16         4.4616   -4.5855   -4.6948 C.2       1 <0>         0.0627
     22 N2          4.5494   -3.8763   -3.5333 N.pl3     1 <0>        -0.2806
     23 N3          3.3812   -3.7279   -3.0203 N.2       1 <0>        -0.2553
     24 C17         5.7921   -3.3548   -2.9588 C.3       1 <0>         0.0780
     25 C18         5.5816   -4.9614   -5.5856 C.ar      1 <0>        -0.0817
     26 C19         5.4344   -6.0173   -6.4861 C.ar      1 <0>        -0.0404
     27 C20         6.4791   -6.3650   -7.3151 C.ar      1 <0>        -0.1897
     28 C21         7.6788   -5.6650   -7.2548 C.ar      1 <0>         0.2428
     29 C22         7.8284   -4.6129   -6.3582 C.ar      1 <0>        -0.1919
     30 C23         6.7850   -4.2571   -5.5310 C.ar      1 <0>        -0.0722
     31 N4          8.7350   -6.0193   -8.0955 N.pl3     1 <0>        -0.6347
     32 C24         8.7124   -7.1016   -9.0903 C.3       1 <0>         0.1111
     33 C25        10.1026   -7.1382   -9.7592 C.3       1 <0>        -0.1326
     34 C26        11.0117   -6.4460   -8.7096 C.3       1 <0>        -0.1343
     35 C27        10.0561   -5.3662   -8.1374 C.3       1 <0>         0.1101
     36 H1         -1.1830    0.9858    0.3441 H         1 <0>         0.0580
     37 H2         -2.5843    0.6663   -0.7059 H         1 <0>         0.0568
     38 H3         -2.7794    0.6656    1.0633 H         1 <0>         0.0670
     39 H4         -1.5217   -1.2022   -1.8386 H         1 <0>         0.1187
     40 H5         -1.0035   -4.8218    0.3573 H         1 <0>         0.1153
     41 H6         -1.4988   -3.6274    2.4515 H         1 <0>         0.1406
     42 H7          0.2064   -1.4580    4.1797 H         1 <0>         0.0503
     43 H8         -0.3811   -3.0262    4.7828 H         1 <0>         0.0748
     44 H9         -0.1561   -2.7724    3.0355 H         1 <0>         0.0675
     45 H10        -3.2138   -0.4719    4.9207 H         1 <0>         0.0568
     46 H11        -2.1777   -1.4707    5.9682 H         1 <0>         0.0781
     47 H12        -1.4846   -0.0856    5.0910 H         1 <0>         0.0502
     48 H13        -1.2471   -4.8564   -2.0561 H         1 <0>         0.0739
     49 H14        -1.4639   -3.3459   -2.9725 H         1 <0>         0.0731
     50 H15         1.1013   -3.3100   -1.7913 H         1 <0>         0.4076
     51 H16         2.7004   -5.4359   -5.6943 H         1 <0>         0.1626
     52 H17         5.9793   -2.3534   -3.3462 H         1 <0>         0.0863
     53 H18         5.7012   -3.3134   -1.8734 H         1 <0>         0.0994
     54 H19         6.6203   -4.0098   -3.2294 H         1 <0>         0.1001
     55 H20         4.5028   -6.5617   -6.5332 H         1 <0>         0.1308
     56 H21         6.3658   -7.1823   -8.0120 H         1 <0>         0.1245
     57 H22         8.7615   -4.0710   -6.3132 H         1 <0>         0.1228
     58 H23         6.9001   -3.4367   -4.8381 H         1 <0>         0.1274
     59 H24         8.5127   -8.0534   -8.5981 H         1 <0>         0.0628
     60 H25         7.9460   -6.9011   -9.8389 H         1 <0>         0.0628
     61 H26        10.4224   -8.1664   -9.9281 H         1 <0>         0.0822
     62 H27        10.0959   -6.5769  -10.6936 H         1 <0>         0.0763
     63 H28        11.3204   -7.1489   -7.9358 H         1 <0>         0.0764
     64 H29        11.8778   -5.9861   -9.1854 H         1 <0>         0.0834
     65 H30        10.0281   -4.4955   -8.7925 H         1 <0>         0.0628
     66 H31        10.3684   -5.0771   -7.1339 H         1 <0>         0.0718
@<TRIPOS>BOND
     1    1    2 1
     2    1   36 1
     3    1   37 1
     4    1   38 1
     5    2    7 ar
     6    2    3 ar
     7    3    4 ar
     8    3   39 1
     9    4    5 ar
    10    4   15 1
    11    5    6 ar
    12    5   40 1
    13    6    7 ar
    14    6   41 1
    15    7    8 1
    16    8    9 1
    17    9   10 1
    18    9   11 1
    19    9   12 1
    20   10   42 1
    21   10   43 1
    22   10   44 1
    23   11   45 1
    24   11   46 1
    25   11   47 1
    26   12   13 2
    27   12   14 1
    28   15   16 1
    29   15   48 1
    30   15   49 1
    31   16   17 am
    32   16   50 1
    33   17   18 2
    34   17   19 1
    35   19   23 2
    36   19   20 1
    37   20   21 2
    38   20   51 1
    39   21   22 1
    40   21   25 1
    41   22   23 1
    42   22   24 1
    43   24   52 1
    44   24   53 1
    45   24   54 1
    46   25   30 ar
    47   25   26 ar
    48   26   27 ar
    49   26   55 1
    50   27   28 ar
    51   27   56 1
    52   28   29 ar
    53   28   31 1
    54   29   30 ar
    55   29   57 1
    56   30   58 1
    57   31   35 1
    58   31   32 1
    59   32   33 1
    60   32   59 1
    61   32   60 1
    62   33   34 1
    63   33   61 1
    64   33   62 1
    65   34   35 1
    66   34   63 1
    67   34   64 1
    68   35   65 1
    69   35   66 1
@<TRIPOS>MOLECULE
CHEMBL193082
   67    69     0     0     0
SMALL
USER_CHARGES

@<TRIPOS>ATOM
      1 C1          1.6801    0.7498   -0.8093 C.3       1 <0>        -0.1481
      2 C2          1.2139   -0.6886   -0.5756 C.3       1 <0>        -0.1035
      3 C3          1.4926   -1.5245   -1.8264 C.3       1 <0>        -0.1015
      4 C4          1.0334   -2.9413   -1.5963 C.ar      1 <0>        -0.0527
      5 C5          1.9523   -3.9190   -1.2677 C.ar      1 <0>        -0.0957
      6 C6          1.5291   -5.2213   -1.0563 C.ar      1 <0>         0.0538
      7 C7          0.1777   -5.5464   -1.1747 C.ar      1 <0>         0.0415
      8 C8         -0.7404   -4.5624   -1.5045 C.ar      1 <0>        -0.0836
      9 C9         -0.3129   -3.2601   -1.7093 C.ar      1 <0>         0.1362
     10 O1         -1.2141   -2.2929   -2.0271 O.3       1 <0>        -0.2876
     11 C10        -1.8985   -2.4283   -3.2742 C.3       1 <0>         0.0593
     12 H1         -1.7754   -3.4449   -3.6477 H         1 <0>         0.0687
     13 C11        -3.3644   -2.1398   -3.0767 C.ar      1 <0>        -0.0543
     14 C12        -3.7599   -1.1055   -2.2492 C.ar      1 <0>        -0.0880
     15 C13        -5.1045   -0.8409   -2.0681 C.ar      1 <0>        -0.1220
     16 C14        -6.0536   -1.6102   -2.7148 C.ar      1 <0>        -0.0880
     17 C15        -5.6581   -2.6439   -3.5430 C.ar      1 <0>        -0.1172
     18 C16        -4.3134   -2.9058   -3.7275 C.ar      1 <0>        -0.1038
     19 C17        -7.5196   -1.3224   -2.5165 C.3       1 <0>        -0.0529
     20 C18        -8.1591   -0.9813   -3.8639 C.3       1 <0>        -0.1436
     21 C19        -8.2057   -2.5547   -1.9237 C.3       1 <0>        -0.1418
     22 C20        -1.3246   -1.4541   -4.2705 C.2       1 <0>         0.4950
     23 O2         -1.6595   -1.5112   -5.4414 O.co2     1 <0>        -0.6813
     24 O3         -0.5253   -0.6088   -3.9056 O.co2     1 <0>        -0.6609
     25 C21        -2.2018   -4.9065   -1.6340 C.3       1 <0>        -0.0898
     26 C22        -2.9161   -4.6026   -0.3156 C.3       1 <0>        -0.1094
     27 C23        -4.3999   -4.9518   -0.4471 C.3       1 <0>        -0.1487
     28 O4          0.0582   -6.8719   -0.9168 O.3       1 <0>        -0.2360
     29 C24         1.2704   -7.3802   -0.6451 C.2       1 <0>         0.6344
     30 O5          1.4992   -8.5433   -0.3736 O.2       1 <0>        -0.4990
     31 N1          2.1948   -6.4023   -0.7205 N.am      1 <0>        -0.5404
     32 C25         3.6342   -6.5509   -0.4920 C.3       1 <0>         0.1585
     33 C26         3.8752   -7.0545    0.9325 C.3       1 <0>        -0.1694
     34 C27         4.2083   -7.5563   -1.4923 C.3       1 <0>        -0.1704
     35 H2          2.7497    0.7555   -1.0191 H         1 <0>         0.0455
     36 H3          1.1413    1.1733   -1.6569 H         1 <0>         0.0654
     37 H4          1.4815    1.3454    0.0818 H         1 <0>         0.0450
     38 H5          1.7527   -1.1120    0.2720 H         1 <0>         0.0445
     39 H6          0.1443   -0.6942   -0.3658 H         1 <0>         0.0675
     40 H7          0.9538   -1.1011   -2.6740 H         1 <0>         0.1382
     41 H8          2.5622   -1.5188   -2.0363 H         1 <0>         0.0578
     42 H9          2.9989   -3.6688   -1.1761 H         1 <0>         0.1341
     43 H10        -3.0184   -0.5045   -1.7440 H         1 <0>         0.1253
     44 H11        -5.4136   -0.0333   -1.4210 H         1 <0>         0.1148
     45 H12        -6.3996   -3.2452   -4.0480 H         1 <0>         0.1152
     46 H13        -4.0043   -3.7111   -4.3775 H         1 <0>         0.1169
     47 H14        -7.6354   -0.4792   -1.8355 H         1 <0>         0.0727
     48 H15        -8.0433   -1.8244   -4.5449 H         1 <0>         0.0562
     49 H16        -9.2194   -0.7730   -3.7205 H         1 <0>         0.0524
     50 H17        -7.6703   -0.1033   -4.2862 H         1 <0>         0.0562
     51 H18        -7.7500   -2.7977   -0.9638 H         1 <0>         0.0548
     52 H19        -9.2660   -2.3465   -1.7803 H         1 <0>         0.0523
     53 H20        -8.0898   -3.3979   -2.6047 H         1 <0>         0.0558
     54 H21        -2.6455   -4.3123   -2.4330 H         1 <0>         0.0916
     55 H22        -2.3064   -5.9659   -1.8681 H         1 <0>         0.0706
     56 H23        -2.4725   -5.1967    0.4834 H         1 <0>         0.0551
     57 H24        -2.8116   -3.5431   -0.0815 H         1 <0>         0.0693
     58 H25        -4.9088   -4.7353    0.4922 H         1 <0>         0.0508
     59 H26        -4.8436   -4.3577   -1.2460 H         1 <0>         0.0603
     60 H27        -4.5045   -6.0112   -0.6812 H         1 <0>         0.0493
     61 H28         4.1246   -5.5865   -0.6242 H         1 <0>         0.1014
     62 H29         3.3848   -8.0190    1.0648 H         1 <0>         0.0733
     63 H30         4.9461   -7.1651    1.1026 H         1 <0>         0.0764
     64 H31         3.4662   -6.3383    1.6452 H         1 <0>         0.0614
     65 H32         4.0366   -7.1976   -2.5071 H         1 <0>         0.0624
     66 H33         5.2793   -7.6669   -1.3222 H         1 <0>         0.0765
     67 H34         3.7179   -8.5208   -1.3600 H         1 <0>         0.0734
@<TRIPOS>BOND
     1    1    2 1
     2    1   35 1
     3    1   36 1
     4    1   37 1
     5    2    3 1
     6    2   38 1
     7    2   39 1
     8    3    4 1
     9    3   40 1
    10    3   41 1
    11    4    9 ar
    12    4    5 ar
    13    5    6 ar
    14    5   42 1
    15    6   31 1
    16    6    7 ar
    17    7    8 ar
    18    7   28 1
    19    8    9 ar
    20    8   25 1
    21    9   10 1
    22   10   11 1
    23   11   12 1
    24   11   13 1
    25   11   22 1
    26   13   18 ar
    27   13   14 ar
    28   14   15 ar
    29   14   43 1
    30   15   16 ar
    31   15   44 1
    32   16   17 ar
    33   16   19 1
    34   17   18 ar
    35   17   45 1
    36   18   46 1
    37   19   20 1
    38   19   21 1
    39   19   47 1
    40   20   48 1
    41   20   49 1
    42   20   50 1
    43   21   51 1
    44   21   52 1
    45   21   53 1
    46   22   23 2
    47   22   24 1
    48   25   26 1
    49   25   54 1
    50   25   55 1
    51   26   27 1
    52   26   56 1
    53   26   57 1
    54   27   58 1
    55   27   59 1
    56   27   60 1
    57   28   29 1
    58   29   30 2
    59   29   31 am
    60   31   32 1
    61   32   33 1
    62   32   34 1
    63   32   61 1
    64   33   62 1
    65   33   63 1
    66   33   64 1
    67   34   65 1
    68   34   66 1
    69   34   67 1
@<TRIPOS>MOLECULE
CHEMBL198288
   59    62     0     0     0
SMALL
USER_CHARGES

@<TRIPOS>ATOM
      1 C1         -0.0187    1.5258    0.0104 C.3       1 <0>        -0.1442
      2 C2          0.0021   -0.0041    0.0020 C.3       1 <0>        -0.1045
      3 C3          0.7182   -0.4975   -1.2568 C.3       1 <0>        -0.1399
      4 C4          0.6303   -2.0233   -1.3286 C.3       1 <0>        -0.0272
      5 C5          1.2865   -2.5369   -2.6277 C.3       1 <0>        -0.1159
      6 C6          0.0900   -2.6006   -3.6006 C.3       1 <0>        -0.0788
      7 C7         -1.1263   -2.7946   -2.7206 C.ar      1 <0>        -0.0572
      8 C8         -0.8159   -2.4626   -1.4144 C.ar      1 <0>        -0.1035
      9 C9         -1.7820   -2.5639   -0.4272 C.ar      1 <0>        -0.0686
     10 C10        -3.0552   -2.9957   -0.7407 C.ar      1 <0>        -0.2095
     11 C11        -3.3689   -3.3293   -2.0500 C.ar      1 <0>         0.1179
     12 C12        -2.4017   -3.2273   -3.0380 C.ar      1 <0>        -0.1409
     13 O1         -4.6207   -3.7556   -2.3634 O.3       1 <0>        -0.3169
     14 C13        -5.5651   -3.8366   -1.2940 C.3       1 <0>         0.0697
     15 C14        -6.9077   -4.3317   -1.8356 C.3       1 <0>        -0.0344
     16 C15        -7.9036   -4.4170   -0.7079 C.2       1 <0>        -0.0104
     17 C16        -8.1222   -5.4846    0.0776 C.2       1 <0>        -0.0353
     18 O2         -9.0878   -5.1420    0.9528 O.3       1 <0>        -0.1977
     19 C17        -9.4449   -3.8772    0.6927 C.2       1 <0>         0.1919
     20 N1         -8.7297   -3.4363   -0.3027 N.2       1 <0>        -0.4650
     21 C18       -10.4964   -3.0921    1.4335 C.3       1 <0>         0.0206
     22 C19       -11.8350   -3.2966    0.7723 C.ar      1 <0>        -0.1037
     23 C20       -12.2404   -2.4503   -0.2429 C.ar      1 <0>        -0.0681
     24 C21       -13.4676   -2.6372   -0.8503 C.ar      1 <0>        -0.1536
     25 C22       -14.2911   -3.6726   -0.4419 C.ar      1 <0>         0.1027
     26 C23       -13.8840   -4.5196    0.5750 C.ar      1 <0>        -0.1552
     27 C24       -12.6542   -4.3340    1.1774 C.ar      1 <0>        -0.0768
     28 F1        -15.4912   -3.8560   -1.0347 F         1 <0>        -0.1388
     29 C25        -7.4199   -6.8154   -0.0048 C.3       1 <0>        -0.0723
     30 C26         2.1652   -0.0794   -1.2080 C.2       1 <0>         0.5046
     31 O3          2.8790   -0.4588   -0.2952 O.co2     1 <0>        -0.6986
     32 O4          2.6222    0.6383   -2.0813 O.co2     1 <0>        -0.7026
     33 H1          1.0039    1.9031    0.0027 H         1 <0>         0.0580
     34 H2         -0.5459    1.8868   -0.8726 H         1 <0>         0.0453
     35 H3         -0.5289    1.8773    0.9072 H         1 <0>         0.0407
     36 H4          0.5293   -0.3651    0.8851 H         1 <0>         0.0610
     37 H5         -1.0205   -0.3814    0.0098 H         1 <0>         0.0490
     38 H6          0.2444   -0.0644   -2.1377 H         1 <0>         0.0582
     39 H7          1.1105   -2.4705   -0.4582 H         1 <0>         0.0800
     40 H8          2.0396   -1.8347   -2.9852 H         1 <0>         0.0872
     41 H9          1.7178   -3.5268   -2.4787 H         1 <0>         0.0647
     42 H10         0.0074   -1.6688   -4.1600 H         1 <0>         0.0826
     43 H11         0.2017   -3.4435   -4.2827 H         1 <0>         0.0711
     44 H12        -1.5382   -2.3042    0.5923 H         1 <0>         0.1223
     45 H13        -3.8056   -3.0740    0.0321 H         1 <0>         0.1219
     46 H14        -2.6442   -3.4866   -4.0580 H         1 <0>         0.1240
     47 H15        -5.1996   -4.5318   -0.5383 H         1 <0>         0.0600
     48 H16        -5.6946   -2.8504   -0.8481 H         1 <0>         0.0646
     49 H17        -7.2732   -3.6364   -2.5913 H         1 <0>         0.0932
     50 H18        -6.7782   -5.3178   -2.2815 H         1 <0>         0.0908
     51 H19       -10.5454   -3.4354    2.4669 H         1 <0>         0.1058
     52 H20       -10.2397   -2.0329    1.4144 H         1 <0>         0.1196
     53 H21       -11.5981   -1.6425   -0.5610 H         1 <0>         0.1393
     54 H22       -13.7843   -1.9757   -1.6431 H         1 <0>         0.1384
     55 H23       -14.5257   -5.3274    0.8946 H         1 <0>         0.1373
     56 H24       -12.3345   -4.9973    1.9675 H         1 <0>         0.1351
     57 H25        -6.5354   -6.7995    0.6320 H         1 <0>         0.0874
     58 H26        -8.0944   -7.6036    0.3298 H         1 <0>         0.0798
     59 H27        -7.1219   -7.0057   -1.0359 H         1 <0>         0.0948
@<TRIPOS>BOND
     1    1    2 1
     2    1   33 1
     3    1   34 1
     4    1   35 1
     5    2    3 1
     6    2   36 1
     7    2   37 1
     8    3    4 1
     9    3   30 1
    10    3   38 1
    11    4    8 1
    12    4    5 1
    13    4   39 1
    14    5    6 1
    15    5   40 1
    16    5   41 1
    17    6    7 1
    18    6   42 1
    19    6   43 1
    20    7   12 ar
    21    7    8 ar
    22    8    9 ar
    23    9   10 ar
    24    9   44 1
    25   10   11 ar
    26   10   45 1
    27   11   12 ar
    28   11   13 1
    29   12   46 1
    30   13   14 1
    31   14   15 1
    32   14   47 1
    33   14   48 1
    34   15   16 1
    35   15   49 1
    36   15   50 1
    37   16   20 1
    38   16   17 2
    39   17   18 1
    40   17   29 1
    41   18   19 1
    42   19   20 2
    43   19   21 1
    44   21   22 1
    45   21   51 1
    46   21   52 1
    47   22   27 ar
    48   22   23 ar
    49   23   24 ar
    50   23   53 1
    51   24   25 ar
    52   24   54 1
    53   25   26 ar
    54   25   28 1
    55   26   27 ar
    56   26   55 1
    57   27   56 1
    58   29   57 1
    59   29   58 1
    60   29   59 1
    61   30   31 2
    62   30   32 1
@<TRIPOS>MOLECULE
CHEMBL198288__1
   59    62     0     0     0
SMALL
USER_CHARGES

@<TRIPOS>ATOM
      1 C1         -0.0187    1.5258    0.0104 C.3       1 <0>        -0.1450
      2 C2          0.0021   -0.0041    0.0020 C.3       1 <0>        -0.1006
      3 C3          0.7182   -0.4975   -1.2568 C.3       1 <0>        -0.1488
      4 C4          0.6303   -2.0233   -1.3286 C.3       1 <0>        -0.0283
      5 C5         -0.8421   -2.4697   -1.4498 C.3       1 <0>        -0.1156
      6 C6         -0.7376   -3.7139   -2.3571 C.3       1 <0>        -0.0757
      7 C7          0.5163   -3.5014   -3.1781 C.ar      1 <0>        -0.0718
      8 C8          1.3029   -2.5295   -2.5869 C.ar      1 <0>        -0.1054
      9 C9          2.5071   -2.1674   -3.1674 C.ar      1 <0>        -0.0499
     10 C10         2.9271   -2.7727   -4.3348 C.ar      1 <0>        -0.2071
     11 C11         2.1399   -3.7476   -4.9297 C.ar      1 <0>         0.1170
     12 C12         0.9344   -4.1096   -4.3485 C.ar      1 <0>        -0.1496
     13 O1          2.5489   -4.3458   -6.0794 O.3       1 <0>        -0.3186
     14 C13         3.8013   -3.9218   -6.6213 C.3       1 <0>         0.0680
     15 C14         4.0913   -4.7012   -7.9056 C.3       1 <0>        -0.0327
     16 C15         5.4122   -4.2541   -8.4771 C.2       1 <0>        -0.0108
     17 C16         5.5989   -3.2519   -9.3519 C.2       1 <0>        -0.0338
     18 O2          6.9213   -3.1852   -9.6020 O.3       1 <0>        -0.1977
     19 C17         7.5222   -4.1415   -8.8814 C.2       1 <0>         0.1904
     20 N1          6.6170   -4.7828   -8.1989 N.2       1 <0>        -0.4646
     21 C18         9.0022   -4.4245   -8.8595 C.3       1 <0>         0.0204
     22 C19         9.3372   -5.4303   -9.9307 C.ar      1 <0>        -0.1020
     23 C20         9.3032   -6.7822   -9.6436 C.ar      1 <0>        -0.0682
     24 C21         9.6098   -7.7054  -10.6252 C.ar      1 <0>        -0.1539
     25 C22         9.9510   -7.2760  -11.8965 C.ar      1 <0>         0.1015
     26 C23         9.9847   -5.9217  -12.1828 C.ar      1 <0>        -0.1552
     27 C24         9.6726   -5.0005  -11.2011 C.ar      1 <0>        -0.0768
     28 F1         10.2513   -8.1776  -12.8567 F         1 <0>        -0.1395
     29 C25         4.5304   -2.3686   -9.9427 C.3       1 <0>        -0.0728
     30 C26         2.1652   -0.0794   -1.2080 C.2       1 <0>         0.5059
     31 O3          2.8790   -0.4588   -0.2952 O.co2     1 <0>        -0.6991
     32 O4          2.6222    0.6383   -2.0813 O.co2     1 <0>        -0.7016
     33 H1          1.0039    1.9031    0.0027 H         1 <0>         0.0579
     34 H2         -0.5459    1.8868   -0.8726 H         1 <0>         0.0456
     35 H3         -0.5289    1.8773    0.9072 H         1 <0>         0.0415
     36 H4          0.5293   -0.3651    0.8851 H         1 <0>         0.0622
     37 H5         -1.0205   -0.3814    0.0098 H         1 <0>         0.0463
     38 H6          0.2444   -0.0644   -2.1377 H         1 <0>         0.0586
     39 H7          1.0912   -2.4699   -0.4476 H         1 <0>         0.0848
     40 H8         -1.2481   -2.7351   -0.4737 H         1 <0>         0.0714
     41 H9         -1.4443   -1.6944   -1.9233 H         1 <0>         0.0701
     42 H10        -0.6455   -4.6162   -1.7526 H         1 <0>         0.0767
     43 H11        -1.6091   -3.7814   -3.0083 H         1 <0>         0.0699
     44 H12         3.1204   -1.4084   -2.7045 H         1 <0>         0.1486
     45 H13         3.8668   -2.4875   -4.7844 H         1 <0>         0.1214
     46 H14         0.3202   -4.8685   -4.8103 H         1 <0>         0.1206
     47 H15         3.7583   -2.8559   -6.8451 H         1 <0>         0.0614
     48 H16         4.5931   -4.1092   -5.8960 H         1 <0>         0.0649
     49 H17         4.1344   -5.7671   -7.6819 H         1 <0>         0.0919
     50 H18         3.2996   -4.5138   -8.6309 H         1 <0>         0.0900
     51 H19         9.5515   -3.5012   -9.0435 H         1 <0>         0.1060
     52 H20         9.2811   -4.8252   -7.8849 H         1 <0>         0.1196
     53 H21         9.0374   -7.1169   -8.6518 H         1 <0>         0.1394
     54 H22         9.5835   -8.7615  -10.4006 H         1 <0>         0.1380
     55 H23        10.2510   -5.5856  -13.1740 H         1 <0>         0.1370
     56 H24         9.6945   -3.9443  -11.4254 H         1 <0>         0.1354
     57 H25         4.3866   -1.4962   -9.3053 H         1 <0>         0.0891
     58 H26         4.8356   -2.0452  -10.9379 H         1 <0>         0.0793
     59 H27         3.5960   -2.9257  -10.0124 H         1 <0>         0.0945
@<TRIPOS>BOND
     1    1    2 1
     2    1   33 1
     3    1   34 1
     4    1   35 1
     5    2    3 1
     6    2   36 1
     7    2   37 1
     8    3    4 1
     9    3   30 1
    10    3   38 1
    11    4    8 1
    12    4    5 1
    13    4   39 1
    14    5    6 1
    15    5   40 1
    16    5   41 1
    17    6    7 1
    18    6   42 1
    19    6   43 1
    20    7   12 ar
    21    7    8 ar
    22    8    9 ar
    23    9   10 ar
    24    9   44 1
    25   10   11 ar
    26   10   45 1
    27   11   12 ar
    28   11   13 1
    29   12   46 1
    30   13   14 1
    31   14   15 1
    32   14   47 1
    33   14   48 1
    34   15   16 1
    35   15   49 1
    36   15   50 1
    37   16   20 1
    38   16   17 2
    39   17   18 1
    40   17   29 1
    41   18   19 1
    42   19   20 2
    43   19   21 1
    44   21   22 1
    45   21   51 1
    46   21   52 1
    47   22   27 ar
    48   22   23 ar
    49   23   24 ar
    50   23   53 1
    51   24   25 ar
    52   24   54 1
    53   25   26 ar
    54   25   28 1
    55   26   27 ar
    56   26   55 1
    57   27   56 1
    58   29   57 1
    59   29   58 1
    60   29   59 1
    61   30   31 2
    62   30   32 1
@<TRIPOS>MOLECULE
CHEMBL198288__2
   59    62     0     0     0
SMALL
USER_CHARGES

@<TRIPOS>ATOM
      1 C1         -0.0187    1.5258    0.0104 C.3       1 <0>        -0.1508
      2 C2          0.0021   -0.0041    0.0020 C.3       1 <0>        -0.0925
      3 C3          0.7182   -0.4975   -1.2568 C.3       1 <0>        -0.1452
      4 C4          0.8493   -2.0210   -1.2049 C.3       1 <0>        -0.0258
      5 C5          1.7201   -2.4429   -0.0026 C.3       1 <0>        -0.1209
      6 C6          3.1299   -2.5216   -0.6259 C.3       1 <0>        -0.0736
      7 C7          2.8988   -2.8144   -2.0930 C.ar      1 <0>        -0.0710
      8 C8          1.5876   -2.5265   -2.4260 C.ar      1 <0>        -0.0980
      9 C9          1.1461   -2.7193   -3.7246 C.ar      1 <0>         0.0073
     10 C10         2.0092   -3.1986   -4.6895 C.ar      1 <0>        -0.2189
     11 C11         3.3245   -3.4881   -4.3579 C.ar      1 <0>         0.1186
     12 C12         3.7663   -3.2945   -3.0581 C.ar      1 <0>        -0.1584
     13 O1          4.1776   -3.9608   -5.3042 O.3       1 <0>        -0.3203
     14 C13         3.6526   -4.1360   -6.6217 C.3       1 <0>         0.0700
     15 C14         4.7516   -4.6716   -7.5416 C.3       1 <0>        -0.0339
     16 C15         4.1979   -4.8563   -8.9310 C.2       1 <0>        -0.0080
     17 C16         3.6154   -5.9675   -9.4109 C.2       1 <0>        -0.0373
     18 O2          3.2655   -5.7123  -10.6870 O.3       1 <0>        -0.1985
     19 C17         3.6364   -4.4562  -10.9689 C.2       1 <0>         0.1908
     20 N1          4.1926   -3.9365   -9.9120 N.2       1 <0>        -0.4638
     21 C18         3.4372   -3.7577  -12.2893 C.3       1 <0>         0.0203
     22 C19         4.6359   -3.9978  -13.1704 C.ar      1 <0>        -0.1020
     23 C20         5.7093   -3.1277  -13.1286 C.ar      1 <0>        -0.0680
     24 C21         6.8093   -3.3472  -13.9359 C.ar      1 <0>        -0.1536
     25 C22         6.8360   -4.4390  -14.7868 C.ar      1 <0>         0.1015
     26 C23         5.7604   -5.3098  -14.8279 C.ar      1 <0>        -0.1555
     27 C24         4.6637   -5.0913  -14.0159 C.ar      1 <0>        -0.0770
     28 F1          7.9107   -4.6543  -15.5768 F         1 <0>        -0.1396
     29 C25         3.3951   -7.2572   -8.6631 C.3       1 <0>        -0.0711
     30 C26        -0.0771   -0.1029   -2.4745 C.2       1 <0>         0.4958
     31 O3         -1.1200    0.5157   -2.3473 O.co2     1 <0>        -0.6952
     32 O4          0.3224   -0.4021   -3.5868 O.co2     1 <0>        -0.6875
     33 H1          1.0039    1.9031    0.0027 H         1 <0>         0.0334
     34 H2         -0.5459    1.8868   -0.8726 H         1 <0>         0.0840
     35 H3         -0.5289    1.8773    0.9072 H         1 <0>         0.0340
     36 H4          0.5293   -0.3651    0.8851 H         1 <0>         0.0388
     37 H5         -1.0205   -0.3814    0.0098 H         1 <0>         0.0571
     38 H6          1.7103   -0.0491   -1.3098 H         1 <0>         0.0592
     39 H7         -0.1360   -2.4827   -1.1407 H         1 <0>         0.0667
     40 H8          1.6858   -1.6893    0.7841 H         1 <0>         0.0776
     41 H9          1.4099   -3.4161    0.3779 H         1 <0>         0.0647
     42 H10         3.6495   -1.5708   -0.5072 H         1 <0>         0.0752
     43 H11         3.7027   -3.3265   -0.1652 H         1 <0>         0.0672
     44 H12         0.1221   -2.4940   -3.9832 H         1 <0>         0.1291
     45 H13         1.6607   -3.3482   -5.7008 H         1 <0>         0.1170
     46 H14         4.7901   -3.5193   -2.7981 H         1 <0>         0.1166
     47 H15         2.8258   -4.8457   -6.5919 H         1 <0>         0.0587
     48 H16         3.2960   -3.1784   -7.0009 H         1 <0>         0.0652
     49 H17         5.5784   -3.9619   -7.5714 H         1 <0>         0.0921
     50 H18         5.1082   -5.6292   -7.1623 H         1 <0>         0.0893
     51 H19         2.5440   -4.1490  -12.7763 H         1 <0>         0.1058
     52 H20         3.3193   -2.6874  -12.1199 H         1 <0>         0.1201
     53 H21         5.6881   -2.2759  -12.4650 H         1 <0>         0.1398
     54 H22         7.6477   -2.6671  -13.9032 H         1 <0>         0.1381
     55 H23         5.7800   -6.1617  -15.4916 H         1 <0>         0.1369
     56 H24         3.8264   -5.7729  -14.0445 H         1 <0>         0.1351
     57 H25         2.4269   -7.2265   -8.1632 H         1 <0>         0.0875
     58 H26         3.4158   -8.0917   -9.3640 H         1 <0>         0.0787
     59 H27         4.1831   -7.3861   -7.9212 H         1 <0>         0.0943
@<TRIPOS>BOND
     1    1    2 1
     2    1   33 1
     3    1   34 1
     4    1   35 1
     5    2    3 1
     6    2   36 1
     7    2   37 1
     8    3    4 1
     9    3   30 1
    10    3   38 1
    11    4    8 1
    12    4    5 1
    13    4   39 1
    14    5    6 1
    15    5   40 1
    16    5   41 1
    17    6    7 1
    18    6   42 1
    19    6   43 1
    20    7   12 ar
    21    7    8 ar
    22    8    9 ar
    23    9   10 ar
    24    9   44 1
    25   10   11 ar
    26   10   45 1
    27   11   12 ar
    28   11   13 1
    29   12   46 1
    30   13   14 1
    31   14   15 1
    32   14   47 1
    33   14   48 1
    34   15   16 1
    35   15   49 1
    36   15   50 1
    37   16   20 1
    38   16   17 2
    39   17   18 1
    40   17   29 1
    41   18   19 1
    42   19   20 2
    43   19   21 1
    44   21   22 1
    45   21   51 1
    46   21   52 1
    47   22   27 ar
    48   22   23 ar
    49   23   24 ar
    50   23   53 1
    51   24   25 ar
    52   24   54 1
    53   25   26 ar
    54   25   28 1
    55   26   27 ar
    56   26   55 1
    57   27   56 1
    58   29   57 1
    59   29   58 1
    60   29   59 1
    61   30   31 2
    62   30   32 1
@<TRIPOS>MOLECULE
CHEMBL198288__3
   59    62     0     0     0
SMALL
USER_CHARGES

@<TRIPOS>ATOM
      1 C1         -0.2908    1.4106   -2.5151 C.3       1 <0>        -0.1491
      2 C2         -0.1208   -0.1094   -2.4759 C.3       1 <0>        -0.0913
      3 C3          0.7182   -0.4975   -1.2568 C.3       1 <0>        -0.1536
      4 C4          0.7520   -2.0214   -1.1251 C.3       1 <0>        -0.0273
      5 C5          1.5769   -2.6400   -2.2735 C.3       1 <0>        -0.1153
      6 C6          2.2479   -3.8482   -1.5863 C.3       1 <0>        -0.0760
      7 C7          2.3347   -3.4733   -0.1223 C.ar      1 <0>        -0.0604
      8 C8          1.4747   -2.4232    0.1431 C.ar      1 <0>        -0.0711
      9 C9          1.3862   -1.9096    1.4263 C.ar      1 <0>        -0.0468
     10 C10         2.1530   -2.4415    2.4436 C.ar      1 <0>        -0.2043
     11 C11         3.0163   -3.4946    2.1799 C.ar      1 <0>         0.1141
     12 C12         3.1049   -4.0083    0.8952 C.ar      1 <0>        -0.1402
     13 O1          3.7737   -4.0211    3.1779 O.3       1 <0>        -0.3190
     14 C13         3.6306   -3.4409    4.4760 C.3       1 <0>         0.0703
     15 C14         4.5554   -4.1594    5.4605 C.3       1 <0>        -0.0340
     16 C15         4.4044   -3.5476    6.8295 C.2       1 <0>        -0.0104
     17 C16         5.1125   -2.5166    7.3194 C.2       1 <0>        -0.0325
     18 O2          4.6654   -2.2872    8.5698 O.3       1 <0>        -0.1981
     19 C17         3.6959   -3.1753    8.8264 C.2       1 <0>         0.1880
     20 N1          3.5325   -3.9316    7.7786 N.2       1 <0>        -0.4648
     21 C18         2.9182   -3.2784   10.1131 C.3       1 <0>         0.0214
     22 C19         3.6257   -4.2196   11.0537 C.ar      1 <0>        -0.1026
     23 C20         3.3311   -5.5700   11.0307 C.ar      1 <0>        -0.0684
     24 C21         3.9796   -6.4341   11.8924 C.ar      1 <0>        -0.1539
     25 C22         4.9248   -5.9468   12.7791 C.ar      1 <0>         0.1019
     26 C23         5.2191   -4.5940   12.8013 C.ar      1 <0>        -0.1551
     27 C24         4.5731   -3.7326   11.9349 C.ar      1 <0>        -0.0767
     28 F1          5.5591   -6.7905   13.6223 F         1 <0>        -0.1393
     29 C25         6.2022   -1.7593    6.6053 C.3       1 <0>        -0.0737
     30 C26         2.1221    0.0233   -1.4268 C.2       1 <0>         0.5015
     31 O3          2.4237    0.6470   -2.4300 O.co2     1 <0>        -0.6992
     32 O4          2.9564   -0.1791   -0.5610 O.co2     1 <0>        -0.6876
     33 H1         -0.7937    1.7435   -1.6071 H         1 <0>         0.0331
     34 H2          0.6886    1.8841   -2.5825 H         1 <0>         0.0819
     35 H3         -0.8886    1.6871   -3.3837 H         1 <0>         0.0344
     36 H4         -1.1003   -0.5830   -2.4086 H         1 <0>         0.0333
     37 H5          0.3820   -0.4423   -3.3839 H         1 <0>         0.0604
     38 H6          0.2764   -0.0649   -0.3591 H         1 <0>         0.0565
     39 H7         -0.2613   -2.4231   -1.1263 H         1 <0>         0.0678
     40 H8          0.9267   -2.9676   -3.0847 H         1 <0>         0.0653
     41 H9          2.3255   -1.9355   -2.6360 H         1 <0>         0.0864
     42 H10         1.6372   -4.7422   -1.7123 H         1 <0>         0.0723
     43 H11         3.2453   -4.0099   -1.9951 H         1 <0>         0.0702
     44 H12         0.7141   -1.0897    1.6321 H         1 <0>         0.1123
     45 H13         2.0811   -2.0381    3.4428 H         1 <0>         0.1173
     46 H14         3.7765   -4.8283    0.6881 H         1 <0>         0.1190
     47 H15         3.8958   -2.3846    4.4331 H         1 <0>         0.0604
     48 H16         2.5972   -3.5429    4.8076 H         1 <0>         0.0619
     49 H17         4.2901   -5.2158    5.5034 H         1 <0>         0.0916
     50 H18         5.5887   -4.0575    5.1290 H         1 <0>         0.0908
     51 H19         2.8441   -2.2929   10.5728 H         1 <0>         0.1054
     52 H20         1.9180   -3.6578    9.9037 H         1 <0>         0.1188
     53 H21         2.5935   -5.9499   10.3392 H         1 <0>         0.1391
     54 H22         3.7490   -7.4891   11.8745 H         1 <0>         0.1380
     55 H23         5.9559   -4.2127   13.4927 H         1 <0>         0.1372
     56 H24         4.8057   -2.6781   11.9489 H         1 <0>         0.1353
     57 H25         5.7662   -0.9207    6.0625 H         1 <0>         0.0896
     58 H26         6.9223   -1.3859    7.3334 H         1 <0>         0.0794
     59 H27         6.7064   -2.4236    5.9035 H         1 <0>         0.0957
@<TRIPOS>BOND
     1    1    2 1
     2    1   33 1
     3    1   34 1
     4    1   35 1
     5    2    3 1
     6    2   36 1
     7    2   37 1
     8    3    4 1
     9    3   30 1
    10    3   38 1
    11    4    8 1
    12    4    5 1
    13    4   39 1
    14    5    6 1
    15    5   40 1
    16    5   41 1
    17    6    7 1
    18    6   42 1
    19    6   43 1
    20    7   12 ar
    21    7    8 ar
    22    8    9 ar
    23    9   10 ar
    24    9   44 1
    25   10   11 ar
    26   10   45 1
    27   11   12 ar
    28   11   13 1
    29   12   46 1
    30   13   14 1
    31   14   15 1
    32   14   47 1
    33   14   48 1
    34   15   16 1
    35   15   49 1
    36   15   50 1
    37   16   20 1
    38   16   17 2
    39   17   18 1
    40   17   29 1
    41   18   19 1
    42   19   20 2
    43   19   21 1
    44   21   22 1
    45   21   51 1
    46   21   52 1
    47   22   27 ar
    48   22   23 ar
    49   23   24 ar
    50   23   53 1
    51   24   25 ar
    52   24   54 1
    53   25   26 ar
    54   25   28 1
    55   26   27 ar
    56   26   55 1
    57   27   56 1
    58   29   57 1
    59   29   58 1
    60   29   59 1
    61   30   31 2
    62   30   32 1
@<TRIPOS>MOLECULE
CHEMBL1082079
   60    62     0     0     0
SMALL
USER_CHARGES

@<TRIPOS>ATOM
      1 C1         -0.0187    1.5258    0.0104 C.3       1 <0>        -0.1522
      2 C2          0.0021   -0.0041    0.0020 C.3       1 <0>        -0.1215
      3 C3          0.7182   -0.4975   -1.2568 C.3       1 <0>        -0.1189
      4 C4          0.7390   -2.0273   -1.2652 C.3       1 <0>         0.0583
      5 O1          1.4078   -2.4882   -2.4409 O.3       1 <0>        -0.3106
      6 C5          1.5136   -3.8326   -2.6033 C.ar      1 <0>         0.1406
      7 C6          0.9779   -4.6899   -1.6507 C.ar      1 <0>        -0.2091
      8 C7          1.0831   -6.0546   -1.8126 C.ar      1 <0>        -0.0561
      9 C8          1.7285   -6.5746   -2.9349 C.ar      1 <0>        -0.0579
     10 C9          2.2653   -5.7110   -3.8894 C.ar      1 <0>        -0.0513
     11 C10         2.1520   -4.3469   -3.7241 C.ar      1 <0>        -0.1476
     12 C11         2.7267   -3.4131   -4.7578 C.3       1 <0>         0.1760
     13 N1          4.0226   -2.9104   -4.2951 N.am      1 <0>        -0.7096
     14 C12         4.7258   -2.0536   -5.0619 C.2       1 <0>         0.5541
     15 O2          4.2847   -1.6979   -6.1375 O.2       1 <0>        -0.5174
     16 C13         6.0322   -1.5467   -4.5954 C.ar      1 <0>        -0.1369
     17 C14         6.5449   -1.9575   -3.3630 C.ar      1 <0>        -0.0571
     18 C15         7.7652   -1.4811   -2.9336 C.ar      1 <0>        -0.0878
     19 C16         8.4837   -0.5965   -3.7199 C.ar      1 <0>        -0.1334
     20 C17         7.9847   -0.1836   -4.9408 C.ar      1 <0>        -0.1158
     21 C18         6.7647   -0.6577   -5.3881 C.ar      1 <0>         0.1616
     22 F1          6.2795   -0.2584   -6.5841 F         1 <0>        -0.1036
     23 C19         9.8166   -0.0807   -3.2418 C.3       1 <0>         0.5106
     24 F2         10.8327   -0.9352   -3.6830 F         1 <0>        -0.1700
     25 F3         10.0312    1.2030   -3.7548 F         1 <0>        -0.1728
     26 F4          9.8231   -0.0313   -1.8437 F         1 <0>        -0.1713
     27 C20         1.8438   -8.0411   -3.1120 C.ar      1 <0>        -0.0697
     28 C21         1.4794   -8.6277   -4.3251 C.ar      1 <0>        -0.1184
     29 C22         1.5837   -9.9790   -4.4927 C.ar      1 <0>        -0.0895
     30 C23         2.0568  -10.7807   -3.4484 C.ar      1 <0>        -0.1218
     31 C24         2.4235  -10.1968   -2.2312 C.ar      1 <0>        -0.0850
     32 C25         2.3222   -8.8340   -2.0675 C.ar      1 <0>        -0.0922
     33 C26         2.7217   -8.1993   -0.7603 C.3       1 <0>        -0.1087
     34 C27         2.1684  -12.2385   -3.6303 C.2       1 <0>         0.5174
     35 O3          1.8472  -12.7484   -4.6948 O.co2     1 <0>        -0.6861
     36 O4          2.5822  -12.9389   -2.7168 O.co2     1 <0>        -0.6868
     37 H1          1.0039    1.9031    0.0027 H         1 <0>         0.0554
     38 H2         -0.5459    1.8868   -0.8726 H         1 <0>         0.0557
     39 H3         -0.5289    1.8773    0.9072 H         1 <0>         0.0566
     40 H4          0.5293   -0.3651    0.8851 H         1 <0>         0.0647
     41 H5         -1.0205   -0.3814    0.0098 H         1 <0>         0.0649
     42 H6          0.1910   -0.1364   -2.1398 H         1 <0>         0.0734
     43 H7          1.7408   -0.1202   -1.2645 H         1 <0>         0.0725
     44 H8          1.2661   -2.3884   -0.3821 H         1 <0>         0.0622
     45 H9         -0.2836   -2.4046   -1.2575 H         1 <0>         0.0623
     46 H10         0.4787   -4.2867   -0.7820 H         1 <0>         0.1289
     47 H11         0.6666   -6.7206   -1.0715 H         1 <0>         0.1299
     48 H12         2.7655   -6.1104   -4.7593 H         1 <0>         0.1339
     49 H13         2.8594   -3.9489   -5.6977 H         1 <0>         0.0798
     50 H14         2.0455   -2.5759   -4.9099 H         1 <0>         0.0825
     51 H15         4.3746   -3.1941   -3.4369 H         1 <0>         0.4005
     52 H16         5.9863   -2.6469   -2.7473 H         1 <0>         0.1496
     53 H17         8.1619   -1.7986   -1.9806 H         1 <0>         0.1516
     54 H18         8.5503    0.5071   -5.5486 H         1 <0>         0.1570
     55 H19         1.1138   -8.0113   -5.1331 H         1 <0>         0.1149
     56 H20         1.3001  -10.4293   -5.4324 H         1 <0>         0.1272
     57 H21         2.7889  -10.8134   -1.4233 H         1 <0>         0.1276
     58 H22         1.8590   -8.1637   -0.0951 H         1 <0>         0.0634
     59 H23         3.5134   -8.7884   -0.2974 H         1 <0>         0.0633
     60 H24         3.0817   -7.1869   -0.9431 H         1 <0>         0.0622
@<TRIPOS>BOND
     1    1    2 1
     2    1   37 1
     3    1   38 1
     4    1   39 1
     5    2    3 1
     6    2   40 1
     7    2   41 1
     8    3    4 1
     9    3   42 1
    10    3   43 1
    11    4    5 1
    12    4   44 1
    13    4   45 1
    14    5    6 1
    15    6   11 ar
    16    6    7 ar
    17    7    8 ar
    18    7   46 1
    19    8    9 ar
    20    8   47 1
    21    9   10 ar
    22    9   27 1
    23   10   11 ar
    24   10   48 1
    25   11   12 1
    26   12   13 1
    27   12   49 1
    28   12   50 1
    29   13   14 am
    30   13   51 1
    31   14   15 2
    32   14   16 1
    33   16   21 ar
    34   16   17 ar
    35   17   18 ar
    36   17   52 1
    37   18   19 ar
    38   18   53 1
    39   19   20 ar
    40   19   23 1
    41   20   21 ar
    42   20   54 1
    43   21   22 1
    44   23   24 1
    45   23   25 1
    46   23   26 1
    47   27   32 ar
    48   27   28 ar
    49   28   29 ar
    50   28   55 1
    51   29   30 ar
    52   29   56 1
    53   30   31 ar
    54   30   34 1
    55   31   32 ar
    56   31   57 1
    57   32   33 1
    58   33   58 1
    59   33   59 1
    60   33   60 1
    61   34   35 2
    62   34   36 1
@<TRIPOS>MOLECULE
CHEMBL200071
   59    62     0     0     0
SMALL
USER_CHARGES

@<TRIPOS>ATOM
      1 C1         -0.1146    1.4972    0.0365 C.3       1 <0>        -0.1540
      2 C2         -0.0101   -0.0288    0.0005 C.3       1 <0>        -0.0950
      3 C3          0.8475   -0.5091    1.1729 C.3       1 <0>        -0.1420
      4 C4          1.1003   -2.0120    1.0379 C.3       1 <0>        -0.0211
      5 C5          2.0223   -2.5042    2.1736 C.3       1 <0>        -0.1253
      6 C6          3.4231   -2.3924    1.5353 C.3       1 <0>        -0.0830
      7 C7          3.1911   -2.5235    0.0452 C.ar      1 <0>        -0.0568
      8 C8          1.8557   -2.3048   -0.2409 C.ar      1 <0>        -0.1062
      9 C9          1.4090   -2.3744   -1.5501 C.ar      1 <0>        -0.0697
     10 C10         2.2910   -2.6621   -2.5724 C.ar      1 <0>        -0.2108
     11 C11         3.6306   -2.8820   -2.2879 C.ar      1 <0>         0.1172
     12 C12         4.0776   -2.8116   -0.9774 C.ar      1 <0>        -0.1427
     13 O1          4.5025   -3.1661   -3.2909 O.3       1 <0>        -0.3172
     14 C13         3.9708   -3.2228   -4.6161 C.3       1 <0>         0.0699
     15 C14         5.0931   -3.5525   -5.6023 C.3       1 <0>        -0.0341
     16 C15         4.5324   -3.6122   -6.9998 C.2       1 <0>        -0.0111
     17 C16         4.0321   -4.7009   -7.6073 C.2       1 <0>        -0.0408
     18 O2          3.6415   -4.3226   -8.8402 O.3       1 <0>        -0.1964
     19 C17         3.9063   -3.0157   -8.9697 C.2       1 <0>         0.1994
     20 N1          4.4373   -2.5841   -7.8613 N.2       1 <0>        -0.4730
     21 C18         3.6298   -2.1812  -10.1937 C.3       1 <0>         0.0039
     22 C19         2.1315   -2.2523  -10.5543 C.3       1 <0>        -0.1209
     23 C20         2.1137   -2.2631  -12.1030 C.3       1 <0>        -0.1236
     24 C21         3.3423   -3.1389  -12.4529 C.3       1 <0>        -0.1246
     25 C22         4.3996   -2.7450  -11.4009 C.3       1 <0>        -0.1192
     26 C23         3.9279   -6.0850   -7.0205 C.3       1 <0>        -0.0710
     27 C24         0.1269   -0.2352    2.4678 C.2       1 <0>         0.4994
     28 O3          0.3580   -0.9189    3.4505 O.co2     1 <0>        -0.6906
     29 O4         -0.6873    0.6700    2.5327 O.co2     1 <0>        -0.6892
     30 H1          0.8845    1.9284    0.1007 H         1 <0>         0.0340
     31 H2         -0.6046    1.8494   -0.8712 H         1 <0>         0.0272
     32 H3         -0.6980    1.8010    0.9056 H         1 <0>         0.0958
     33 H4         -1.0069   -0.4631    0.0775 H         1 <0>         0.0490
     34 H5          0.4501   -0.3394   -0.9375 H         1 <0>         0.0418
     35 H6          1.7997    0.0214    1.1678 H         1 <0>         0.0611
     36 H7          0.1561   -2.5565    1.0525 H         1 <0>         0.0666
     37 H8          1.9414   -1.8563    3.0464 H         1 <0>         0.1284
     38 H9          1.7970   -3.5381    2.4349 H         1 <0>         0.0548
     39 H10         3.8672   -1.4239    1.7651 H         1 <0>         0.0772
     40 H11         4.0658   -3.1979    1.8904 H         1 <0>         0.0674
     41 H12         0.3660   -2.2032   -1.7720 H         1 <0>         0.1206
     42 H13         1.9384   -2.7162   -3.5918 H         1 <0>         0.1209
     43 H14         5.1203   -2.9825   -0.7541 H         1 <0>         0.1231
     44 H15         3.2037   -3.9956   -4.6670 H         1 <0>         0.0596
     45 H16         3.5326   -2.2585   -4.8733 H         1 <0>         0.0640
     46 H17         5.8602   -2.7797   -5.5513 H         1 <0>         0.0928
     47 H18         5.5312   -4.5168   -5.3450 H         1 <0>         0.0906
     48 H19         3.9227   -1.1468  -10.0140 H         1 <0>         0.1157
     49 H20         1.6875   -3.1669  -10.1613 H         1 <0>         0.0724
     50 H21         1.6055   -1.3772  -10.1728 H         1 <0>         0.0773
     51 H22         1.1961   -2.7184  -12.4756 H         1 <0>         0.0719
     52 H23         2.2335   -1.2541  -12.4978 H         1 <0>         0.0726
     53 H24         3.0938   -4.1966  -12.3665 H         1 <0>         0.0678
     54 H25         3.6999   -2.9108  -13.4570 H         1 <0>         0.0705
     55 H26         5.0655   -1.9839  -11.8076 H         1 <0>         0.0777
     56 H27         4.9732   -3.6221  -11.1014 H         1 <0>         0.0679
     57 H28         2.9690   -6.1935   -6.5137 H         1 <0>         0.0863
     58 H29         4.0031   -6.8243   -7.8180 H         1 <0>         0.0792
     59 H30         4.7361   -6.2384   -6.3055 H         1 <0>         0.0943
@<TRIPOS>BOND
     1    1    2 1
     2    1   30 1
     3    1   31 1
     4    1   32 1
     5    2    3 1
     6    2   33 1
     7    2   34 1
     8    3    4 1
     9    3   27 1
    10    3   35 1
    11    4    8 1
    12    4    5 1
    13    4   36 1
    14    5    6 1
    15    5   37 1
    16    5   38 1
    17    6    7 1
    18    6   39 1
    19    6   40 1
    20    7   12 ar
    21    7    8 ar
    22    8    9 ar
    23    9   10 ar
    24    9   41 1
    25   10   11 ar
    26   10   42 1
    27   11   12 ar
    28   11   13 1
    29   12   43 1
    30   13   14 1
    31   14   15 1
    32   14   44 1
    33   14   45 1
    34   15   16 1
    35   15   46 1
    36   15   47 1
    37   16   20 1
    38   16   17 2
    39   17   18 1
    40   17   26 1
    41   18   19 1
    42   19   20 2
    43   19   21 1
    44   21   25 1
    45   21   22 1
    46   21   48 1
    47   22   23 1
    48   22   49 1
    49   22   50 1
    50   23   24 1
    51   23   51 1
    52   23   52 1
    53   24   25 1
    54   24   53 1
    55   24   54 1
    56   25   55 1
    57   25   56 1
    58   26   57 1
    59   26   58 1
    60   26   59 1
    61   27   28 2
    62   27   29 1
@<TRIPOS>MOLECULE
CHEMBL200071__1
   59    62     0     0     0
SMALL
USER_CHARGES

@<TRIPOS>ATOM
      1 C1          0.4453    1.8067    0.3223 C.3       1 <0>        -0.1445
      2 C2          0.3532    0.3181   -0.0189 C.3       1 <0>        -0.1004
      3 C3          0.8458   -0.5091    1.1703 C.3       1 <0>        -0.1485
      4 C4          0.8488   -1.9920    0.7937 C.3       1 <0>        -0.0291
      5 C5          1.7534   -2.2310   -0.4338 C.3       1 <0>        -0.1159
      6 C6          2.3520   -3.6226   -0.1385 C.3       1 <0>        -0.0758
      7 C7          2.3280   -3.7524    1.3695 C.ar      1 <0>        -0.0718
      8 C8          1.4638   -2.8151    1.9055 C.ar      1 <0>        -0.1027
      9 C9          1.2812   -2.7479    3.2768 C.ar      1 <0>        -0.0506
     10 C10         1.9582   -3.6132    4.1126 C.ar      1 <0>        -0.2068
     11 C11         2.8256   -4.5540    3.5774 C.ar      1 <0>         0.1169
     12 C12         3.0083   -4.6208    2.2047 C.ar      1 <0>        -0.1481
     13 O1          3.4948   -5.4075    4.3962 O.3       1 <0>        -0.3183
     14 C13         3.2574   -5.2802    5.7996 C.3       1 <0>         0.0681
     15 C14         4.0920   -6.3170    6.5542 C.3       1 <0>        -0.0325
     16 C15         3.8416   -6.1828    8.0341 C.2       1 <0>        -0.0116
     17 C16         4.5225   -5.3977    8.8853 C.2       1 <0>        -0.0395
     18 O2          3.9813   -5.5741   10.1067 O.3       1 <0>        -0.1963
     19 C17         2.9828   -6.4592    9.9872 C.2       1 <0>         0.1982
     20 N1          2.8926   -6.8230    8.7397 N.2       1 <0>        -0.4728
     21 C18         2.1047   -6.9486   11.1099 C.3       1 <0>         0.0044
     22 C19         1.4080   -5.7547   11.7948 C.3       1 <0>        -0.1216
     23 C20         1.3859   -6.1377   13.2954 C.3       1 <0>        -0.1234
     24 C21         2.7553   -6.8346   13.4905 C.3       1 <0>        -0.1246
     25 C22         2.9613   -7.6352   12.1881 C.3       1 <0>        -0.1188
     26 C23         5.6752   -4.4907    8.5394 C.3       1 <0>        -0.0715
     27 C24        -0.0699   -0.2916    2.3472 C.2       1 <0>         0.5053
     28 O3         -1.2160   -0.7062    2.3127 O.co2     1 <0>        -0.6994
     29 O4          0.3353    0.2989    3.3339 O.co2     1 <0>        -0.7025
     30 H1          1.4629    2.0465    0.6307 H         1 <0>         0.0474
     31 H2          0.1827    2.3975   -0.5552 H         1 <0>         0.0407
     32 H3         -0.2442    2.0366    1.1347 H         1 <0>         0.0573
     33 H4         -0.6827    0.0588   -0.2376 H         1 <0>         0.0603
     34 H5          0.9726    0.1061   -0.8904 H         1 <0>         0.0475
     35 H6          1.8569   -0.1993    1.4345 H         1 <0>         0.0584
     36 H7         -0.1665   -2.3317    0.5889 H         1 <0>         0.0874
     37 H8          1.1650   -2.2490   -1.3511 H         1 <0>         0.0716
     38 H9          2.5376   -1.4759   -0.4900 H         1 <0>         0.0700
     39 H10         1.7413   -4.4016   -0.5950 H         1 <0>         0.0770
     40 H11         3.3763   -3.6796   -0.5068 H         1 <0>         0.0699
     41 H12         0.6059   -2.0156    3.6940 H         1 <0>         0.1424
     42 H13         1.8130   -3.5575    5.1814 H         1 <0>         0.1216
     43 H14         3.6833   -5.3527    1.7862 H         1 <0>         0.1211
     44 H15         3.5392   -4.2793    6.1265 H         1 <0>         0.0612
     45 H16         2.1998   -5.4454    6.0057 H         1 <0>         0.0647
     46 H17         3.8102   -7.3180    6.2273 H         1 <0>         0.0918
     47 H18         5.1495   -6.1519    6.3481 H         1 <0>         0.0900
     48 H19         1.3603   -7.6455   10.7247 H         1 <0>         0.1153
     49 H20         1.9812   -4.8402   11.6428 H         1 <0>         0.0732
     50 H21         0.3927   -5.6371   11.4161 H         1 <0>         0.0779
     51 H22         1.3129   -5.2475   13.9202 H         1 <0>         0.0719
     52 H23         0.5682   -6.8269   13.5062 H         1 <0>         0.0721
     53 H24         3.5461   -6.0944   13.6125 H         1 <0>         0.0679
     54 H25         2.7232   -7.5050   14.3494 H         1 <0>         0.0699
     55 H26         2.6321   -8.6650   12.3268 H         1 <0>         0.0771
     56 H27         4.0122   -7.6144   11.8993 H         1 <0>         0.0678
     57 H28         5.2945   -3.5042    8.2746 H         1 <0>         0.0879
     58 H29         6.3404   -4.4048    9.3985 H         1 <0>         0.0788
     59 H30         6.2243   -4.9069    7.6948 H         1 <0>         0.0940
@<TRIPOS>BOND
     1    1    2 1
     2    1   30 1
     3    1   31 1
     4    1   32 1
     5    2    3 1
     6    2   33 1
     7    2   34 1
     8    3    4 1
     9    3   27 1
    10    3   35 1
    11    4    8 1
    12    4    5 1
    13    4   36 1
    14    5    6 1
    15    5   37 1
    16    5   38 1
    17    6    7 1
    18    6   39 1
    19    6   40 1
    20    7   12 ar
    21    7    8 ar
    22    8    9 ar
    23    9   10 ar
    24    9   41 1
    25   10   11 ar
    26   10   42 1
    27   11   12 ar
    28   11   13 1
    29   12   43 1
    30   13   14 1
    31   14   15 1
    32   14   44 1
    33   14   45 1
    34   15   16 1
    35   15   46 1
    36   15   47 1
    37   16   20 1
    38   16   17 2
    39   17   18 1
    40   17   26 1
    41   18   19 1
    42   19   20 2
    43   19   21 1
    44   21   25 1
    45   21   22 1
    46   21   48 1
    47   22   23 1
    48   22   49 1
    49   22   50 1
    50   23   24 1
    51   23   51 1
    52   23   52 1
    53   24   25 1
    54   24   53 1
    55   24   54 1
    56   25   55 1
    57   25   56 1
    58   26   57 1
    59   26   58 1
    60   26   59 1
    61   27   28 2
    62   27   29 1
@<TRIPOS>MOLECULE
CHEMBL200071__2
   59    62     0     0     0
SMALL
USER_CHARGES

@<TRIPOS>ATOM
      1 C1         -0.0187    1.5258    0.0104 C.3       1 <0>        -0.1449
      2 C2          0.0021   -0.0041    0.0020 C.3       1 <0>        -0.1020
      3 C3          0.7421   -0.5109    1.2415 C.3       1 <0>        -0.1438
      4 C4          0.6554   -2.0374    1.2986 C.3       1 <0>        -0.0280
      5 C5         -0.8145   -2.4853    1.4431 C.3       1 <0>        -0.1210
      6 C6         -0.9780   -2.5971    2.9738 C.3       1 <0>        -0.0747
      7 C7          0.4127   -2.8789    3.5012 C.ar      1 <0>        -0.0672
      8 C8          1.3518   -2.5570    2.5383 C.ar      1 <0>        -0.0991
      9 C9          2.7000   -2.7341    2.8014 C.ar      1 <0>        -0.0449
     10 C10         3.1119   -3.2315    4.0215 C.ar      1 <0>        -0.2056
     11 C11         2.1719   -3.5552    4.9887 C.ar      1 <0>         0.1180
     12 C12         0.8224   -3.3772    4.7253 C.ar      1 <0>        -0.1460
     13 O1          2.5725   -4.0458    6.1911 O.3       1 <0>        -0.3179
     14 C13         3.9786   -4.2031    6.3917 C.3       1 <0>         0.0684
     15 C14         4.2345   -4.7629    7.7924 C.3       1 <0>        -0.0332
     16 C15         5.7173   -4.9288    8.0039 C.2       1 <0>        -0.0097
     17 C16         6.4413   -6.0234    7.7173 C.2       1 <0>        -0.0423
     18 O2          7.7173   -5.7550    8.0575 O.3       1 <0>        -0.1968
     19 C17         7.7566   -4.5077    8.5446 C.2       1 <0>         0.1991
     20 N1          6.5551   -4.0057    8.5082 N.2       1 <0>        -0.4720
     21 C18         8.9887   -3.7997    9.0463 C.3       1 <0>         0.0040
     22 C19        10.0610   -3.7558    7.9381 C.3       1 <0>        -0.1214
     23 C20        11.3982   -3.9481    8.6956 C.3       1 <0>        -0.1234
     24 C21        11.0273   -4.9829    9.7867 C.3       1 <0>        -0.1244
     25 C22         9.6031   -4.5799   10.2217 C.3       1 <0>        -0.1188
     26 C23         5.9239   -7.3097    7.1269 C.3       1 <0>        -0.0702
     27 C24         2.1879   -0.0922    1.1696 C.2       1 <0>         0.5062
     28 O3          2.6616    0.6161    2.0417 O.co2     1 <0>        -0.7003
     29 O4          2.8841   -0.4617    0.2394 O.co2     1 <0>        -0.7024
     30 H1          1.0039    1.9031    0.0027 H         1 <0>         0.0580
     31 H2         -0.5459    1.8868   -0.8726 H         1 <0>         0.0417
     32 H3         -0.5289    1.8773    0.9072 H         1 <0>         0.0458
     33 H4         -1.0205   -0.3814    0.0098 H         1 <0>         0.0479
     34 H5          0.5123   -0.3556   -0.8948 H         1 <0>         0.0627
     35 H6          0.2852   -0.0874    2.1360 H         1 <0>         0.0578
     36 H7          1.0993   -2.4745    0.4042 H         1 <0>         0.0787
     37 H8         -1.4904   -1.7337    1.0352 H         1 <0>         0.0786
     38 H9         -0.9738   -3.4517    0.9648 H         1 <0>         0.0659
     39 H10        -1.3552   -1.6600    3.3833 H         1 <0>         0.0784
     40 H11        -1.6506   -3.4177    3.2233 H         1 <0>         0.0693
     41 H12         3.4323   -2.4822    2.0486 H         1 <0>         0.1274
     42 H13         4.1641   -3.3688    4.2224 H         1 <0>         0.1212
     43 H14         0.0891   -3.6286    5.4773 H         1 <0>         0.1215
     44 H15         4.3770   -4.8920    5.6468 H         1 <0>         0.0597
     45 H16         4.4704   -3.2355    6.2916 H         1 <0>         0.0658
     46 H17         3.8360   -4.0741    8.5373 H         1 <0>         0.0926
     47 H18         3.7427   -5.7305    7.8924 H         1 <0>         0.0898
     48 H19         8.7351   -2.7877    9.3618 H         1 <0>         0.1159
     49 H20         9.9064   -4.5659    7.2253 H         1 <0>         0.0726
     50 H21        10.0454   -2.7914    7.4302 H         1 <0>         0.0782
     51 H22        12.1651   -4.3457    8.0308 H         1 <0>         0.0717
     52 H23        11.7248   -3.0111    9.1468 H         1 <0>         0.0724
     53 H24        11.0287   -5.9911    9.3725 H         1 <0>         0.0676
     54 H25        11.7169   -4.9140   10.6280 H         1 <0>         0.0699
     55 H26         9.6484   -3.9463   11.1074 H         1 <0>         0.0773
     56 H27         9.0101   -5.4706   10.4292 H         1 <0>         0.0677
     57 H28         5.9743   -7.2565    6.0394 H         1 <0>         0.0864
     58 H29         6.5335   -8.1420    7.4786 H         1 <0>         0.0784
     59 H30         4.8895   -7.4610    7.4357 H         1 <0>         0.0938
@<TRIPOS>BOND
     1    1    2 1
     2    1   30 1
     3    1   31 1
     4    1   32 1
     5    2    3 1
     6    2   33 1
     7    2   34 1
     8    3    4 1
     9    3   27 1
    10    3   35 1
    11    4    8 1
    12    4    5 1
    13    4   36 1
    14    5    6 1
    15    5   37 1
    16    5   38 1
    17    6    7 1
    18    6   39 1
    19    6   40 1
    20    7   12 ar
    21    7    8 ar
    22    8    9 ar
    23    9   10 ar
    24    9   41 1
    25   10   11 ar
    26   10   42 1
    27   11   12 ar
    28   11   13 1
    29   12   43 1
    30   13   14 1
    31   14   15 1
    32   14   44 1
    33   14   45 1
    34   15   16 1
    35   15   46 1
    36   15   47 1
    37   16   20 1
    38   16   17 2
    39   17   18 1
    40   17   26 1
    41   18   19 1
    42   19   20 2
    43   19   21 1
    44   21   25 1
    45   21   22 1
    46   21   48 1
    47   22   23 1
    48   22   49 1
    49   22   50 1
    50   23   24 1
    51   23   51 1
    52   23   52 1
    53   24   25 1
    54   24   53 1
    55   24   54 1
    56   25   55 1
    57   25   56 1
    58   26   57 1
    59   26   58 1
    60   26   59 1
    61   27   28 2
    62   27   29 1
@<TRIPOS>MOLECULE
CHEMBL200071__3
   59    62     0     0     0
SMALL
USER_CHARGES

@<TRIPOS>ATOM
      1 C1          2.8736    0.7330    1.6307 C.3       1 <0>        -0.1438
      2 C2          2.2508   -0.6530    1.4523 C.3       1 <0>        -0.0982
      3 C3          0.7421   -0.5109    1.2415 C.3       1 <0>        -0.1523
      4 C4          0.1419   -1.8794    0.9129 C.3       1 <0>        -0.0266
      5 C5          0.3016   -2.8364    2.1132 C.3       1 <0>        -0.1290
      6 C6         -0.9881   -3.6807    2.0379 C.3       1 <0>        -0.0773
      7 C7         -2.0013   -2.7954    1.3443 C.ar      1 <0>        -0.0611
      8 C8         -1.3518   -1.7598    0.6974 C.ar      1 <0>        -0.0952
      9 C9         -2.0832   -0.8189   -0.0083 C.ar      1 <0>        -0.0382
     10 C10        -3.4593   -0.9097   -0.0698 C.ar      1 <0>        -0.2065
     11 C11        -4.1130   -1.9474    0.5782 C.ar      1 <0>         0.1180
     12 C12        -3.3806   -2.8889    1.2849 C.ar      1 <0>        -0.1448
     13 O1         -5.4676   -2.0406    0.5211 O.3       1 <0>        -0.3182
     14 C13        -6.1562   -1.0348   -0.2246 C.3       1 <0>         0.0695
     15 C14        -7.6615   -1.3042   -0.1752 C.3       1 <0>        -0.0334
     16 C15        -8.3877   -0.2435   -0.9617 C.2       1 <0>        -0.0118
     17 C16        -8.8445    0.9253   -0.4825 C.2       1 <0>        -0.0374
     18 O2         -9.4280    1.5741   -1.5094 O.3       1 <0>        -0.1967
     19 C17        -9.3210    0.7983   -2.5964 C.2       1 <0>         0.1958
     20 N1         -8.6901   -0.2939   -2.2711 N.2       1 <0>        -0.4729
     21 C18        -9.8395    1.1363   -3.9704 C.3       1 <0>         0.0051
     22 C19        -9.2284    2.4679   -4.4531 C.3       1 <0>        -0.1212
     23 C20       -10.3807    3.1569   -5.2254 C.3       1 <0>        -0.1234
     24 C21       -11.6252    2.7945   -4.3774 C.3       1 <0>        -0.1247
     25 C22       -11.3635    1.3439   -3.9223 C.3       1 <0>        -0.1192
     26 C23        -8.7271    1.4182    0.9368 C.3       1 <0>        -0.0727
     27 C24         0.1078    0.0271    2.4982 C.2       1 <0>         0.5076
     28 O3         -0.8809    0.7370    2.4263 O.co2     1 <0>        -0.6960
     29 O4          0.5832   -0.2474    3.5868 O.co2     1 <0>        -0.6974
     30 H1          2.4300    1.2218    2.4982 H         1 <0>         0.0616
     31 H2          3.9485    0.6318    1.7809 H         1 <0>         0.0402
     32 H3          2.6861    1.3330    0.7402 H         1 <0>         0.0399
     33 H4          2.6944   -1.1418    0.5849 H         1 <0>         0.0376
     34 H5          2.4383   -1.2530    2.3428 H         1 <0>         0.0686
     35 H6          0.5536    0.1761    0.4166 H         1 <0>         0.0551
     36 H7          0.6194   -2.2982    0.0272 H         1 <0>         0.0673
     37 H8          1.1839   -3.4651    1.9926 H         1 <0>         0.0636
     38 H9          0.3462   -2.2797    3.0493 H         1 <0>         0.1090
     39 H10        -0.8145   -4.5853    1.4551 H         1 <0>         0.0717
     40 H11        -1.3322   -3.9359    3.0402 H         1 <0>         0.0705
     41 H12        -1.5747   -0.0108   -0.5131 H         1 <0>         0.1167
     42 H13        -4.0259   -0.1740   -0.6212 H         1 <0>         0.1193
     43 H14        -3.8879   -3.6975    1.7900 H         1 <0>         0.1207
     44 H15        -5.9479   -0.0558    0.2071 H         1 <0>         0.0612
     45 H16        -5.8173   -1.0546   -1.2604 H         1 <0>         0.0624
     46 H17        -7.8698   -2.2831   -0.6070 H         1 <0>         0.0915
     47 H18        -8.0003   -1.2843    0.8606 H         1 <0>         0.0908
     48 H19        -9.5936    0.3367   -4.6691 H         1 <0>         0.1148
     49 H20        -8.9212    3.0770   -3.6030 H         1 <0>         0.0731
     50 H21        -8.3830    2.2817   -5.1155 H         1 <0>         0.0769
     51 H22       -10.2345    4.2366   -5.2550 H         1 <0>         0.0717
     52 H23       -10.4680    2.7500   -6.2329 H         1 <0>         0.0719
     53 H24       -11.7051    3.4564   -3.5151 H         1 <0>         0.0681
     54 H25       -12.5289    2.8466   -4.9845 H         1 <0>         0.0700
     55 H26       -11.8570    0.6457   -4.5983 H         1 <0>         0.0770
     56 H27       -11.7279    1.2002   -2.9051 H         1 <0>         0.0682
     57 H28        -7.8010    1.9817    1.0503 H         1 <0>         0.0889
     58 H29        -9.5751    2.0623    1.1691 H         1 <0>         0.0789
     59 H30        -8.7202    0.5670    1.6176 H         1 <0>         0.0951
@<TRIPOS>BOND
     1    1    2 1
     2    1   30 1
     3    1   31 1
     4    1   32 1
     5    2    3 1
     6    2   33 1
     7    2   34 1
     8    3    4 1
     9    3   27 1
    10    3   35 1
    11    4    8 1
    12    4    5 1
    13    4   36 1
    14    5    6 1
    15    5   37 1
    16    5   38 1
    17    6    7 1
    18    6   39 1
    19    6   40 1
    20    7   12 ar
    21    7    8 ar
    22    8    9 ar
    23    9   10 ar
    24    9   41 1
    25   10   11 ar
    26   10   42 1
    27   11   12 ar
    28   11   13 1
    29   12   43 1
    30   13   14 1
    31   14   15 1
    32   14   44 1
    33   14   45 1
    34   15   16 1
    35   15   46 1
    36   15   47 1
    37   16   20 1
    38   16   17 2
    39   17   18 1
    40   17   26 1
    41   18   19 1
    42   19   20 2
    43   19   21 1
    44   21   25 1
    45   21   22 1
    46   21   48 1
    47   22   23 1
    48   22   49 1
    49   22   50 1
    50   23   24 1
    51   23   51 1
    52   23   52 1
    53   24   25 1
    54   24   53 1
    55   24   54 1
    56   25   55 1
    57   25   56 1
    58   26   57 1
    59   26   58 1
    60   26   59 1
    61   27   28 2
    62   27   29 1
@<TRIPOS>MOLECULE
CHEMBL200043
   62    65     0     0     0
SMALL
USER_CHARGES

@<TRIPOS>ATOM
      1 C1         -0.1146    1.4972    0.0365 C.3       1 <0>        -0.1540
      2 C2         -0.0101   -0.0288    0.0005 C.3       1 <0>        -0.0950
      3 C3          0.8475   -0.5091    1.1729 C.3       1 <0>        -0.1420
      4 C4          1.1003   -2.0120    1.0379 C.3       1 <0>        -0.0211
      5 C5          2.0223   -2.5042    2.1736 C.3       1 <0>        -0.1253
      6 C6          3.4231   -2.3924    1.5353 C.3       1 <0>        -0.0830
      7 C7          3.1911   -2.5235    0.0452 C.ar      1 <0>        -0.0568
      8 C8          1.8557   -2.3048   -0.2409 C.ar      1 <0>        -0.1062
      9 C9          1.4090   -2.3744   -1.5501 C.ar      1 <0>        -0.0697
     10 C10         2.2910   -2.6621   -2.5724 C.ar      1 <0>        -0.2108
     11 C11         3.6306   -2.8820   -2.2879 C.ar      1 <0>         0.1172
     12 C12         4.0776   -2.8116   -0.9774 C.ar      1 <0>        -0.1427
     13 O1          4.5025   -3.1661   -3.2909 O.3       1 <0>        -0.3172
     14 C13         3.9708   -3.2228   -4.6161 C.3       1 <0>         0.0699
     15 C14         5.0931   -3.5525   -5.6023 C.3       1 <0>        -0.0340
     16 C15         4.5324   -3.6122   -6.9998 C.2       1 <0>        -0.0112
     17 C16         4.0321   -4.7009   -7.6073 C.2       1 <0>        -0.0405
     18 O2          3.6415   -4.3226   -8.8402 O.3       1 <0>        -0.1967
     19 C17         3.9063   -3.0157   -8.9697 C.2       1 <0>         0.1974
     20 N1          4.4373   -2.5841   -7.8613 N.2       1 <0>        -0.4724
     21 C18         3.6298   -2.1812  -10.1937 C.3       1 <0>         0.0123
     22 C19         4.4009   -2.7526  -11.3853 C.3       1 <0>        -0.1150
     23 C20         4.1201   -1.9053  -12.6280 C.3       1 <0>        -0.1179
     24 C21         2.6209   -1.9278  -12.9325 C.3       1 <0>        -0.1230
     25 C22         1.8498   -1.3565  -11.7409 C.3       1 <0>        -0.1183
     26 C23         2.1306   -2.2037  -10.4982 C.3       1 <0>        -0.1161
     27 C24         3.9279   -6.0850   -7.0205 C.3       1 <0>        -0.0711
     28 C25         0.1269   -0.2352    2.4678 C.2       1 <0>         0.4994
     29 O3          0.3580   -0.9189    3.4505 O.co2     1 <0>        -0.6906
     30 O4         -0.6873    0.6700    2.5327 O.co2     1 <0>        -0.6892
     31 H1          0.8845    1.9284    0.1007 H         1 <0>         0.0340
     32 H2         -0.6046    1.8494   -0.8712 H         1 <0>         0.0272
     33 H3         -0.6980    1.8010    0.9056 H         1 <0>         0.0958
     34 H4         -1.0069   -0.4631    0.0775 H         1 <0>         0.0490
     35 H5          0.4501   -0.3394   -0.9375 H         1 <0>         0.0418
     36 H6          1.7997    0.0214    1.1678 H         1 <0>         0.0611
     37 H7          0.1561   -2.5565    1.0525 H         1 <0>         0.0666
     38 H8          1.9414   -1.8563    3.0464 H         1 <0>         0.1284
     39 H9          1.7970   -3.5381    2.4349 H         1 <0>         0.0548
     40 H10         3.8672   -1.4239    1.7651 H         1 <0>         0.0772
     41 H11         4.0658   -3.1979    1.8904 H         1 <0>         0.0674
     42 H12         0.3660   -2.2032   -1.7720 H         1 <0>         0.1206
     43 H13         1.9384   -2.7162   -3.5918 H         1 <0>         0.1209
     44 H14         5.1203   -2.9825   -0.7541 H         1 <0>         0.1231
     45 H15         3.2037   -3.9956   -4.6670 H         1 <0>         0.0595
     46 H16         3.5326   -2.2585   -4.8733 H         1 <0>         0.0640
     47 H17         5.8602   -2.7797   -5.5513 H         1 <0>         0.0928
     48 H18         5.5312   -4.5168   -5.3450 H         1 <0>         0.0906
     49 H19         3.9485   -1.1547  -10.0131 H         1 <0>         0.1128
     50 H20         5.4689   -2.7366  -11.1683 H         1 <0>         0.0686
     51 H21         4.0821   -3.7792  -11.5659 H         1 <0>         0.0697
     52 H22         4.4389   -0.8787  -12.4474 H         1 <0>         0.0668
     53 H23         4.6695   -2.3123  -13.4769 H         1 <0>         0.0677
     54 H24         2.4209   -1.3242  -13.8179 H         1 <0>         0.0650
     55 H25         2.3022   -2.9544  -13.1131 H         1 <0>         0.0633
     56 H26         2.1686   -0.3299  -11.5604 H         1 <0>         0.0670
     57 H27         0.7818   -1.3725  -11.9579 H         1 <0>         0.0685
     58 H28         1.8118   -3.2303  -10.6788 H         1 <0>         0.0699
     59 H29         1.5812   -1.7967   -9.6493 H         1 <0>         0.0698
     60 H30         2.9690   -6.1935   -6.5137 H         1 <0>         0.0863
     61 H31         4.0031   -6.8243   -7.8180 H         1 <0>         0.0792
     62 H32         4.7361   -6.2384   -6.3055 H         1 <0>         0.0943
@<TRIPOS>BOND
     1    1    2 1
     2    1   31 1
     3    1   32 1
     4    1   33 1
     5    2    3 1
     6    2   34 1
     7    2   35 1
     8    3    4 1
     9    3   28 1
    10    3   36 1
    11    4    8 1
    12    4    5 1
    13    4   37 1
    14    5    6 1
    15    5   38 1
    16    5   39 1
    17    6    7 1
    18    6   40 1
    19    6   41 1
    20    7   12 ar
    21    7    8 ar
    22    8    9 ar
    23    9   10 ar
    24    9   42 1
    25   10   11 ar
    26   10   43 1
    27   11   12 ar
    28   11   13 1
    29   12   44 1
    30   13   14 1
    31   14   15 1
    32   14   45 1
    33   14   46 1
    34   15   16 1
    35   15   47 1
    36   15   48 1
    37   16   20 1
    38   16   17 2
    39   17   18 1
    40   17   27 1
    41   18   19 1
    42   19   20 2
    43   19   21 1
    44   21   26 1
    45   21   22 1
    46   21   49 1
    47   22   23 1
    48   22   50 1
    49   22   51 1
    50   23   24 1
    51   23   52 1
    52   23   53 1
    53   24   25 1
    54   24   54 1
    55   24   55 1
    56   25   26 1
    57   25   56 1
    58   25   57 1
    59   26   58 1
    60   26   59 1
    61   27   60 1
    62   27   61 1
    63   27   62 1
    64   28   29 2
    65   28   30 1
@<TRIPOS>MOLECULE
CHEMBL200043__1
   62    65     0     0     0
SMALL
USER_CHARGES

@<TRIPOS>ATOM
      1 C1          0.4453    1.8067    0.3223 C.3       1 <0>        -0.1445
      2 C2          0.3532    0.3181   -0.0189 C.3       1 <0>        -0.1004
      3 C3          0.8458   -0.5091    1.1703 C.3       1 <0>        -0.1485
      4 C4          0.8488   -1.9920    0.7937 C.3       1 <0>        -0.0291
      5 C5          1.7534   -2.2310   -0.4338 C.3       1 <0>        -0.1159
      6 C6          2.3520   -3.6226   -0.1385 C.3       1 <0>        -0.0758
      7 C7          2.3280   -3.7524    1.3695 C.ar      1 <0>        -0.0718
      8 C8          1.4638   -2.8151    1.9055 C.ar      1 <0>        -0.1027
      9 C9          1.2812   -2.7479    3.2768 C.ar      1 <0>        -0.0506
     10 C10         1.9582   -3.6132    4.1126 C.ar      1 <0>        -0.2067
     11 C11         2.8256   -4.5540    3.5774 C.ar      1 <0>         0.1169
     12 C12         3.0083   -4.6208    2.2047 C.ar      1 <0>        -0.1481
     13 O1          3.4948   -5.4075    4.3962 O.3       1 <0>        -0.3182
     14 C13         3.2574   -5.2802    5.7996 C.3       1 <0>         0.0680
     15 C14         4.0920   -6.3170    6.5542 C.3       1 <0>        -0.0324
     16 C15         3.8416   -6.1828    8.0341 C.2       1 <0>        -0.0117
     17 C16         4.5225   -5.3977    8.8853 C.2       1 <0>        -0.0391
     18 O2          3.9813   -5.5741   10.1067 O.3       1 <0>        -0.1966
     19 C17         2.9828   -6.4592    9.9872 C.2       1 <0>         0.1962
     20 N1          2.8926   -6.8230    8.7397 N.2       1 <0>        -0.4722
     21 C18         2.1047   -6.9486   11.1099 C.3       1 <0>         0.0129
     22 C19         2.9688   -7.6285   12.1739 C.3       1 <0>        -0.1148
     23 C20         2.0773   -8.1254   13.3137 C.3       1 <0>        -0.1176
     24 C21         1.3389   -6.9395   13.9377 C.3       1 <0>        -0.1229
     25 C22         0.4748   -6.2596   12.8738 C.3       1 <0>        -0.1180
     26 C23         1.3663   -5.7628   11.7339 C.3       1 <0>        -0.1172
     27 C24         5.6752   -4.4907    8.5394 C.3       1 <0>        -0.0716
     28 C25        -0.0699   -0.2916    2.3472 C.2       1 <0>         0.5054
     29 O3         -1.2160   -0.7062    2.3127 O.co2     1 <0>        -0.6994
     30 O4          0.3353    0.2989    3.3339 O.co2     1 <0>        -0.7026
     31 H1          1.4629    2.0465    0.6307 H         1 <0>         0.0474
     32 H2          0.1827    2.3975   -0.5552 H         1 <0>         0.0407
     33 H3         -0.2442    2.0366    1.1347 H         1 <0>         0.0573
     34 H4         -0.6827    0.0588   -0.2376 H         1 <0>         0.0603
     35 H5          0.9726    0.1061   -0.8904 H         1 <0>         0.0475
     36 H6          1.8569   -0.1993    1.4345 H         1 <0>         0.0584
     37 H7         -0.1665   -2.3317    0.5889 H         1 <0>         0.0874
     38 H8          1.1650   -2.2490   -1.3511 H         1 <0>         0.0716
     39 H9          2.5376   -1.4759   -0.4900 H         1 <0>         0.0700
     40 H10         1.7413   -4.4016   -0.5950 H         1 <0>         0.0770
     41 H11         3.3763   -3.6796   -0.5068 H         1 <0>         0.0699
     42 H12         0.6059   -2.0156    3.6940 H         1 <0>         0.1424
     43 H13         1.8130   -3.5575    5.1814 H         1 <0>         0.1216
     44 H14         3.6833   -5.3527    1.7862 H         1 <0>         0.1211
     45 H15         3.5392   -4.2793    6.1265 H         1 <0>         0.0612
     46 H16         2.1998   -5.4454    6.0057 H         1 <0>         0.0647
     47 H17         3.8102   -7.3180    6.2273 H         1 <0>         0.0917
     48 H18         5.1495   -6.1519    6.3481 H         1 <0>         0.0899
     49 H19         1.3800   -7.6631   10.7194 H         1 <0>         0.1124
     50 H20         3.4948   -8.4734   11.7293 H         1 <0>         0.0681
     51 H21         3.6934   -6.9141   12.5644 H         1 <0>         0.0697
     52 H22         1.3526   -8.8399   12.9232 H         1 <0>         0.0664
     53 H23         2.6928   -8.6098   14.0717 H         1 <0>         0.0671
     54 H24         0.7038   -7.2935   14.7498 H         1 <0>         0.0645
     55 H25         2.0636   -6.2251   14.3283 H         1 <0>         0.0633
     56 H26        -0.2498   -6.9741   12.4832 H         1 <0>         0.0668
     57 H27        -0.0512   -5.4148   13.3184 H         1 <0>         0.0687
     58 H28         2.0910   -5.0483   12.1245 H         1 <0>         0.0702
     59 H29         0.7508   -5.2784   10.9759 H         1 <0>         0.0710
     60 H30         5.2945   -3.5042    8.2746 H         1 <0>         0.0879
     61 H31         6.3404   -4.4048    9.3985 H         1 <0>         0.0788
     62 H32         6.2243   -4.9069    7.6948 H         1 <0>         0.0940
@<TRIPOS>BOND
     1    1    2 1
     2    1   31 1
     3    1   32 1
     4    1   33 1
     5    2    3 1
     6    2   34 1
     7    2   35 1
     8    3    4 1
     9    3   28 1
    10    3   36 1
    11    4    8 1
    12    4    5 1
    13    4   37 1
    14    5    6 1
    15    5   38 1
    16    5   39 1
    17    6    7 1
    18    6   40 1
    19    6   41 1
    20    7   12 ar
    21    7    8 ar
    22    8    9 ar
    23    9   10 ar
    24    9   42 1
    25   10   11 ar
    26   10   43 1
    27   11   12 ar
    28   11   13 1
    29   12   44 1
    30   13   14 1
    31   14   15 1
    32   14   45 1
    33   14   46 1
    34   15   16 1
    35   15   47 1
    36   15   48 1
    37   16   20 1
    38   16   17 2
    39   17   18 1
    40   17   27 1
    41   18   19 1
    42   19   20 2
    43   19   21 1
    44   21   26 1
    45   21   22 1
    46   21   49 1
    47   22   23 1
    48   22   50 1
    49   22   51 1
    50   23   24 1
    51   23   52 1
    52   23   53 1
    53   24   25 1
    54   24   54 1
    55   24   55 1
    56   25   26 1
    57   25   56 1
    58   25   57 1
    59   26   58 1
    60   26   59 1
    61   27   60 1
    62   27   61 1
    63   27   62 1
    64   28   29 2
    65   28   30 1
@<TRIPOS>MOLECULE
CHEMBL200043__2
   62    65     0     0     0
SMALL
USER_CHARGES

@<TRIPOS>ATOM
      1 C1         -0.0187    1.5258    0.0104 C.3       1 <0>        -0.1449
      2 C2          0.0021   -0.0041    0.0020 C.3       1 <0>        -0.1020
      3 C3          0.7421   -0.5109    1.2415 C.3       1 <0>        -0.1438
      4 C4          0.6554   -2.0374    1.2986 C.3       1 <0>        -0.0280
      5 C5         -0.8145   -2.4853    1.4431 C.3       1 <0>        -0.1210
      6 C6         -0.9780   -2.5971    2.9738 C.3       1 <0>        -0.0748
      7 C7          0.4127   -2.8789    3.5012 C.ar      1 <0>        -0.0672
      8 C8          1.3518   -2.5570    2.5383 C.ar      1 <0>        -0.0991
      9 C9          2.7000   -2.7341    2.8014 C.ar      1 <0>        -0.0449
     10 C10         3.1119   -3.2315    4.0215 C.ar      1 <0>        -0.2056
     11 C11         2.1719   -3.5552    4.9887 C.ar      1 <0>         0.1180
     12 C12         0.8224   -3.3772    4.7253 C.ar      1 <0>        -0.1460
     13 O1          2.5725   -4.0458    6.1911 O.3       1 <0>        -0.3179
     14 C13         3.9786   -4.2031    6.3917 C.3       1 <0>         0.0684
     15 C14         4.2345   -4.7629    7.7924 C.3       1 <0>        -0.0332
     16 C15         5.7173   -4.9288    8.0039 C.2       1 <0>        -0.0099
     17 C16         6.4413   -6.0234    7.7173 C.2       1 <0>        -0.0419
     18 O2          7.7173   -5.7550    8.0575 O.3       1 <0>        -0.1971
     19 C17         7.7566   -4.5077    8.5446 C.2       1 <0>         0.1971
     20 N1          6.5551   -4.0057    8.5082 N.2       1 <0>        -0.4713
     21 C18         8.9887   -3.7997    9.0463 C.3       1 <0>         0.0124
     22 C19        10.0158   -3.7011    7.9165 C.3       1 <0>        -0.1168
     23 C20        11.2667   -2.9824    8.4258 C.3       1 <0>        -0.1183
     24 C21        11.8667   -3.7684    9.5934 C.3       1 <0>        -0.1227
     25 C22        10.8397   -3.8670   10.7231 C.3       1 <0>        -0.1178
     26 C23         9.5887   -4.5857   10.2138 C.3       1 <0>        -0.1146
     27 C24         5.9239   -7.3097    7.1269 C.3       1 <0>        -0.0703
     28 C25         2.1879   -0.0922    1.1696 C.2       1 <0>         0.5062
     29 O3          2.6616    0.6161    2.0417 O.co2     1 <0>        -0.7003
     30 O4          2.8841   -0.4617    0.2394 O.co2     1 <0>        -0.7024
     31 H1          1.0039    1.9031    0.0027 H         1 <0>         0.0580
     32 H2         -0.5459    1.8868   -0.8726 H         1 <0>         0.0417
     33 H3         -0.5289    1.8773    0.9072 H         1 <0>         0.0458
     34 H4         -1.0205   -0.3814    0.0098 H         1 <0>         0.0479
     35 H5          0.5123   -0.3556   -0.8948 H         1 <0>         0.0627
     36 H6          0.2852   -0.0874    2.1360 H         1 <0>         0.0577
     37 H7          1.0993   -2.4745    0.4042 H         1 <0>         0.0787
     38 H8         -1.4904   -1.7337    1.0352 H         1 <0>         0.0786
     39 H9         -0.9738   -3.4517    0.9648 H         1 <0>         0.0659
     40 H10        -1.3552   -1.6600    3.3833 H         1 <0>         0.0784
     41 H11        -1.6506   -3.4177    3.2233 H         1 <0>         0.0693
     42 H12         3.4323   -2.4822    2.0486 H         1 <0>         0.1274
     43 H13         4.1641   -3.3688    4.2224 H         1 <0>         0.1212
     44 H14         0.0891   -3.6286    5.4773 H         1 <0>         0.1215
     45 H15         4.3770   -4.8920    5.6468 H         1 <0>         0.0596
     46 H16         4.4704   -3.2355    6.2916 H         1 <0>         0.0657
     47 H17         3.8360   -4.0741    8.5373 H         1 <0>         0.0925
     48 H18         3.7427   -5.7305    7.8924 H         1 <0>         0.0898
     49 H19         8.7208   -2.7980    9.3822 H         1 <0>         0.1130
     50 H20        10.2837   -4.7028    7.5806 H         1 <0>         0.0697
     51 H21         9.5883   -3.1412    7.0847 H         1 <0>         0.0710
     52 H22        11.9984   -2.9121    7.6210 H         1 <0>         0.0686
     53 H23        10.9988   -1.9806    8.7618 H         1 <0>         0.0673
     54 H24        12.1347   -4.7701    9.2574 H         1 <0>         0.0630
     55 H25        12.7579   -3.2563    9.9562 H         1 <0>         0.0645
     56 H26        11.2671   -4.4269   11.5549 H         1 <0>         0.0671
     57 H27        10.5717   -2.8653   11.0590 H         1 <0>         0.0668
     58 H28         8.8570   -4.6560   11.0186 H         1 <0>         0.0683
     59 H29         9.8567   -5.5875    9.8779 H         1 <0>         0.0694
     60 H30         5.9743   -7.2565    6.0394 H         1 <0>         0.0864
     61 H31         6.5335   -8.1420    7.4786 H         1 <0>         0.0785
     62 H32         4.8895   -7.4610    7.4357 H         1 <0>         0.0938
@<TRIPOS>BOND
     1    1    2 1
     2    1   31 1
     3    1   32 1
     4    1   33 1
     5    2    3 1
     6    2   34 1
     7    2   35 1
     8    3    4 1
     9    3   28 1
    10    3   36 1
    11    4    8 1
    12    4    5 1
    13    4   37 1
    14    5    6 1
    15    5   38 1
    16    5   39 1
    17    6    7 1
    18    6   40 1
    19    6   41 1
    20    7   12 ar
    21    7    8 ar
    22    8    9 ar
    23    9   10 ar
    24    9   42 1
    25   10   11 ar
    26   10   43 1
    27   11   12 ar
    28   11   13 1
    29   12   44 1
    30   13   14 1
    31   14   15 1
    32   14   45 1
    33   14   46 1
    34   15   16 1
    35   15   47 1
    36   15   48 1
    37   16   20 1
    38   16   17 2
    39   17   18 1
    40   17   27 1
    41   18   19 1
    42   19   20 2
    43   19   21 1
    44   21   26 1
    45   21   22 1
    46   21   49 1
    47   22   23 1
    48   22   50 1
    49   22   51 1
    50   23   24 1
    51   23   52 1
    52   23   53 1
    53   24   25 1
    54   24   54 1
    55   24   55 1
    56   25   26 1
    57   25   56 1
    58   25   57 1
    59   26   58 1
    60   26   59 1
    61   27   60 1
    62   27   61 1
    63   27   62 1
    64   28   29 2
    65   28   30 1
@<TRIPOS>MOLECULE
CHEMBL200043__3
   62    65     0     0     0
SMALL
USER_CHARGES

@<TRIPOS>ATOM
      1 C1          2.8736    0.7330    1.6307 C.3       1 <0>        -0.1438
      2 C2          2.2508   -0.6530    1.4523 C.3       1 <0>        -0.0982
      3 C3          0.7421   -0.5109    1.2415 C.3       1 <0>        -0.1523
      4 C4          0.1419   -1.8794    0.9129 C.3       1 <0>        -0.0266
      5 C5          0.3016   -2.8364    2.1132 C.3       1 <0>        -0.1290
      6 C6         -0.9881   -3.6807    2.0379 C.3       1 <0>        -0.0773
      7 C7         -2.0013   -2.7954    1.3443 C.ar      1 <0>        -0.0611
      8 C8         -1.3518   -1.7598    0.6974 C.ar      1 <0>        -0.0952
      9 C9         -2.0832   -0.8189   -0.0083 C.ar      1 <0>        -0.0382
     10 C10        -3.4593   -0.9097   -0.0698 C.ar      1 <0>        -0.2065
     11 C11        -4.1130   -1.9474    0.5782 C.ar      1 <0>         0.1180
     12 C12        -3.3806   -2.8889    1.2849 C.ar      1 <0>        -0.1448
     13 O1         -5.4676   -2.0406    0.5211 O.3       1 <0>        -0.3182
     14 C13        -6.1562   -1.0348   -0.2246 C.3       1 <0>         0.0695
     15 C14        -7.6615   -1.3042   -0.1752 C.3       1 <0>        -0.0334
     16 C15        -8.3877   -0.2435   -0.9617 C.2       1 <0>        -0.0119
     17 C16        -8.8445    0.9253   -0.4825 C.2       1 <0>        -0.0370
     18 O2         -9.4280    1.5741   -1.5094 O.3       1 <0>        -0.1969
     19 C17        -9.3210    0.7983   -2.5964 C.2       1 <0>         0.1938
     20 N1         -8.6901   -0.2939   -2.2711 N.2       1 <0>        -0.4723
     21 C18        -9.8395    1.1363   -3.9704 C.3       1 <0>         0.0135
     22 C19       -11.3546    1.3399   -3.9078 C.3       1 <0>        -0.1153
     23 C20       -11.8812    1.6830   -5.3028 C.3       1 <0>        -0.1176
     24 C21       -11.2139    2.9677   -5.7980 C.3       1 <0>        -0.1231
     25 C22        -9.6988    2.7641   -5.8605 C.3       1 <0>        -0.1178
     26 C23        -9.1723    2.4210   -4.4656 C.3       1 <0>        -0.1167
     27 C24        -8.7271    1.4182    0.9368 C.3       1 <0>        -0.0728
     28 C25         0.1078    0.0271    2.4982 C.2       1 <0>         0.5076
     29 O3         -0.8809    0.7370    2.4263 O.co2     1 <0>        -0.6960
     30 O4          0.5832   -0.2474    3.5868 O.co2     1 <0>        -0.6974
     31 H1          2.4300    1.2218    2.4982 H         1 <0>         0.0616
     32 H2          3.9485    0.6318    1.7809 H         1 <0>         0.0402
     33 H3          2.6861    1.3330    0.7402 H         1 <0>         0.0399
     34 H4          2.6944   -1.1418    0.5849 H         1 <0>         0.0376
     35 H5          2.4383   -1.2530    2.3428 H         1 <0>         0.0686
     36 H6          0.5536    0.1761    0.4166 H         1 <0>         0.0551
     37 H7          0.6194   -2.2982    0.0272 H         1 <0>         0.0673
     38 H8          1.1839   -3.4651    1.9926 H         1 <0>         0.0636
     39 H9          0.3462   -2.2797    3.0493 H         1 <0>         0.1090
     40 H10        -0.8145   -4.5853    1.4551 H         1 <0>         0.0717
     41 H11        -1.3322   -3.9359    3.0402 H         1 <0>         0.0705
     42 H12        -1.5747   -0.0108   -0.5131 H         1 <0>         0.1167
     43 H13        -4.0259   -0.1740   -0.6212 H         1 <0>         0.1193
     44 H14        -3.8879   -3.6975    1.7900 H         1 <0>         0.1207
     45 H15        -5.9479   -0.0558    0.2071 H         1 <0>         0.0612
     46 H16        -5.8173   -1.0546   -1.2604 H         1 <0>         0.0623
     47 H17        -7.8698   -2.2831   -0.6070 H         1 <0>         0.0914
     48 H18        -8.0003   -1.2843    0.8606 H         1 <0>         0.0908
     49 H19        -9.6106    0.3204   -4.6560 H         1 <0>         0.1119
     50 H20       -11.8300    0.4246   -3.5550 H         1 <0>         0.0685
     51 H21       -11.5836    2.1558   -3.2222 H         1 <0>         0.0699
     52 H22       -11.6522    0.8671   -5.9884 H         1 <0>         0.0663
     53 H23       -12.9605    1.8281   -5.2582 H         1 <0>         0.0673
     54 H24       -11.5890    3.2122   -6.7918 H         1 <0>         0.0644
     55 H25       -11.4429    3.7836   -5.1124 H         1 <0>         0.0635
     56 H26        -9.4699    1.9482   -6.5461 H         1 <0>         0.0664
     57 H27        -9.2235    3.6794   -6.2133 H         1 <0>         0.0682
     58 H28        -9.4013    3.2369   -3.7800 H         1 <0>         0.0703
     59 H29        -8.0929    2.2759   -4.5101 H         1 <0>         0.0700
     60 H30        -7.8010    1.9817    1.0503 H         1 <0>         0.0889
     61 H31        -9.5751    2.0623    1.1691 H         1 <0>         0.0789
     62 H32        -8.7202    0.5670    1.6176 H         1 <0>         0.0950
@<TRIPOS>BOND
     1    1    2 1
     2    1   31 1
     3    1   32 1
     4    1   33 1
     5    2    3 1
     6    2   34 1
     7    2   35 1
     8    3    4 1
     9    3   28 1
    10    3   36 1
    11    4    8 1
    12    4    5 1
    13    4   37 1
    14    5    6 1
    15    5   38 1
    16    5   39 1
    17    6    7 1
    18    6   40 1
    19    6   41 1
    20    7   12 ar
    21    7    8 ar
    22    8    9 ar
    23    9   10 ar
    24    9   42 1
    25   10   11 ar
    26   10   43 1
    27   11   12 ar
    28   11   13 1
    29   12   44 1
    30   13   14 1
    31   14   15 1
    32   14   45 1
    33   14   46 1
    34   15   16 1
    35   15   47 1
    36   15   48 1
    37   16   20 1
    38   16   17 2
    39   17   18 1
    40   17   27 1
    41   18   19 1
    42   19   20 2
    43   19   21 1
    44   21   26 1
    45   21   22 1
    46   21   49 1
    47   22   23 1
    48   22   50 1
    49   22   51 1
    50   23   24 1
    51   23   52 1
    52   23   53 1
    53   24   25 1
    54   24   54 1
    55   24   55 1
    56   25   26 1
    57   25   56 1
    58   25   57 1
    59   26   58 1
    60   26   59 1
    61   27   60 1
    62   27   61 1
    63   27   62 1
    64   28   29 2
    65   28   30 1
@<TRIPOS>MOLECULE
CHEMBL246209
   59    62     0     0     0
SMALL
USER_CHARGES

@<TRIPOS>ATOM
      1 C1         -0.2048    1.9156    0.1781 C.3       1 <0>        -0.0676
      2 C2         -0.3449    0.4288    0.3804 C.2       1 <0>        -0.1562
      3 C3         -1.4673   -0.3327    0.4738 C.2       1 <0>         0.0543
      4 N1         -1.3652   -1.6288    0.6520 N.2       1 <0>        -0.4855
      5 C4         -0.1823   -2.2198    0.7441 C.2       1 <0>         0.1525
      6 S1          0.9193   -0.8240    0.5564 S.3       1 <0>         0.0059
      7 C5          0.1397   -3.6493    0.9426 C.ar      1 <0>        -0.0198
      8 C6         -0.8855   -4.5893    1.0554 C.ar      1 <0>        -0.0658
      9 C7         -0.5784   -5.9216    1.2406 C.ar      1 <0>        -0.1181
     10 C8          0.7425   -6.3263    1.3144 C.ar      1 <0>        -0.0574
     11 C9          1.7636   -5.3994    1.2032 C.ar      1 <0>        -0.1139
     12 C10         1.4700   -4.0649    1.0121 C.ar      1 <0>        -0.0892
     13 C11         1.0706   -7.7831    1.5172 C.3       1 <0>        -0.0606
     14 C12         1.9031   -8.2876    0.3368 C.3       1 <0>        -0.1459
     15 C13         1.8680   -7.9508    2.8122 C.3       1 <0>        -0.1453
     16 C14        -2.8264    0.3106    0.3734 C.3       1 <0>        -0.0454
     17 C15        -3.2730    0.3334   -1.0898 C.3       1 <0>         0.0709
     18 O1         -4.5617    0.9435   -1.1851 O.3       1 <0>        -0.3167
     19 C16        -5.1069    1.0432   -2.4259 C.ar      1 <0>         0.1164
     20 C17        -4.4188    0.5589   -3.5291 C.ar      1 <0>        -0.2077
     21 C18        -4.9766    0.6625   -4.7871 C.ar      1 <0>        -0.0701
     22 C19        -6.2209    1.2485   -4.9537 C.ar      1 <0>        -0.1090
     23 C20        -6.9085    1.7320   -3.8560 C.ar      1 <0>        -0.0617
     24 C21        -6.3544    1.6239   -2.5922 C.ar      1 <0>        -0.1409
     25 C22        -8.2314    2.3197   -4.2990 C.3       1 <0>        -0.0823
     26 C23        -8.0869    2.5389   -5.8199 C.3       1 <0>        -0.1016
     27 C24        -7.0353    1.4784   -6.2091 C.3       1 <0>        -0.0263
     28 H1         -7.5255    0.5546   -6.5163 H         1 <0>         0.0885
     29 C25        -6.1409    2.0052   -7.3331 C.3       1 <0>        -0.1739
     30 C26        -6.9376    2.0944   -8.6091 C.2       1 <0>         0.4910
     31 O2         -8.0798    1.6694   -8.6456 O.co2     1 <0>        -0.6953
     32 O3         -6.4401    2.5915   -9.6050 O.co2     1 <0>        -0.7085
     33 H2          0.8522    2.1800    0.1466 H         1 <0>         0.0767
     34 H3         -0.6787    2.2007   -0.7612 H         1 <0>         0.0872
     35 H4         -0.6865    2.4415    1.0024 H         1 <0>         0.0875
     36 H5         -1.9170   -4.2746    0.9983 H         1 <0>         0.1364
     37 H6         -1.3709   -6.6501    1.3284 H         1 <0>         0.1303
     38 H7          2.7927   -5.7217    1.2617 H         1 <0>         0.1294
     39 H8          2.2680   -3.3429    0.9207 H         1 <0>         0.1259
     40 H9          0.1468   -8.3579    1.5823 H         1 <0>         0.0806
     41 H10         2.8269   -7.7127    0.2717 H         1 <0>         0.0576
     42 H11         2.1404   -9.3413    0.4835 H         1 <0>         0.0597
     43 H12         1.3350   -8.1681   -0.5858 H         1 <0>         0.0578
     44 H13         2.7918   -7.3760    2.7471 H         1 <0>         0.0575
     45 H14         1.2749   -7.5914    3.6532 H         1 <0>         0.0569
     46 H15         2.1053   -9.0045    2.9589 H         1 <0>         0.0595
     47 H16        -3.5433   -0.2606    0.9632 H         1 <0>         0.0913
     48 H17        -2.7744    1.3310    0.7533 H         1 <0>         0.0901
     49 H18        -2.5561    0.9047   -1.6796 H         1 <0>         0.0597
     50 H19        -3.3250   -0.6869   -1.4698 H         1 <0>         0.0633
     51 H20        -3.4483    0.1020   -3.4036 H         1 <0>         0.1217
     52 H21        -4.4407    0.2853   -5.6456 H         1 <0>         0.1214
     53 H22        -6.8935    1.9971   -1.7340 H         1 <0>         0.1237
     54 H23        -9.0431    1.6221   -4.0928 H         1 <0>         0.0790
     55 H24        -8.4108    3.2695   -3.7953 H         1 <0>         0.0705
     56 H25        -9.0321    2.3526   -6.3297 H         1 <0>         0.0851
     57 H26        -7.7216    3.5434   -6.0336 H         1 <0>         0.0641
     58 H27        -5.7683    2.9945   -7.0675 H         1 <0>         0.0565
     59 H28        -5.2999    1.3267   -7.4765 H         1 <0>         0.0555
@<TRIPOS>BOND
     1    1    2 1
     2    1   33 1
     3    1   34 1
     4    1   35 1
     5    2    6 1
     6    2    3 2
     7    3    4 1
     8    3   16 1
     9    4    5 2
    10    5    6 1
    11    5    7 1
    12    7   12 ar
    13    7    8 ar
    14    8    9 ar
    15    8   36 1
    16    9   10 ar
    17    9   37 1
    18   10   11 ar
    19   10   13 1
    20   11   12 ar
    21   11   38 1
    22   12   39 1
    23   13   14 1
    24   13   15 1
    25   13   40 1
    26   14   41 1
    27   14   42 1
    28   14   43 1
    29   15   44 1
    30   15   45 1
    31   15   46 1
    32   16   17 1
    33   16   47 1
    34   16   48 1
    35   17   18 1
    36   17   49 1
    37   17   50 1
    38   18   19 1
    39   19   24 ar
    40   19   20 ar
    41   20   21 ar
    42   20   51 1
    43   21   22 ar
    44   21   52 1
    45   22   27 1
    46   22   23 ar
    47   23   24 ar
    48   23   25 1
    49   24   53 1
    50   25   26 1
    51   25   54 1
    52   25   55 1
    53   26   27 1
    54   26   56 1
    55   26   57 1
    56   27   28 1
    57   27   29 1
    58   29   30 1
    59   29   58 1
    60   29   59 1
    61   30   31 2
    62   30   32 1
@<TRIPOS>MOLECULE
CHEMBL219617
   65    69     0     0     0
SMALL
USER_CHARGES

@<TRIPOS>ATOM
      1 C1         -1.2695    1.5252    0.5477 C.3       1 <0>         0.0241
      2 O1         -1.1167    0.1048    0.5140 O.3       1 <0>        -0.3012
      3 C2         -0.3093   -0.4065   -0.4536 C.ar      1 <0>         0.0999
      4 C3          0.3241    0.4403   -1.3443 C.ar      1 <0>        -0.1258
      5 C4          1.1520   -0.0878   -2.3363 C.ar      1 <0>        -0.0179
      6 C5          1.3370   -1.4684   -2.4248 C.ar      1 <0>        -0.0826
      7 C6          0.7023   -2.3079   -1.5332 C.ar      1 <0>        -0.1726
      8 C7         -0.1159   -1.7830   -0.5438 C.ar      1 <0>         0.1279
      9 O2         -0.7349   -2.6140    0.3362 O.3       1 <0>        -0.2953
     10 C8         -0.4925   -4.0143    0.1864 C.3       1 <0>         0.0602
     11 C9         -1.2678   -4.7835    1.2579 C.3       1 <0>        -0.1185
     12 C10        -1.0083   -6.2828    1.0976 C.3       1 <0>         0.0659
     13 O3         -1.7324   -7.0013    2.0984 O.3       1 <0>        -0.3150
     14 C11        -1.6103   -8.3548    2.0961 C.ar      1 <0>         0.1144
     15 C12        -0.8056   -8.9790    1.1539 C.ar      1 <0>        -0.2083
     16 C13        -0.6847  -10.3538    1.1556 C.ar      1 <0>        -0.0704
     17 C14        -1.3639  -11.1138    2.0940 C.ar      1 <0>        -0.1082
     18 C15        -2.1665  -10.4940    3.0338 C.ar      1 <0>        -0.0611
     19 C16        -2.2847   -9.1150    3.0385 C.ar      1 <0>        -0.1402
     20 C17        -2.7934  -11.5344    3.9373 C.3       1 <0>        -0.0828
     21 C18        -2.6383  -12.8714    3.1820 C.3       1 <0>        -0.1019
     22 C19        -1.3969  -12.6129    2.3022 C.3       1 <0>        -0.0265
     23 H1         -0.4940  -12.9434    2.8157 H         1 <0>         0.0888
     24 C20        -1.5386  -13.3324    0.9594 C.3       1 <0>        -0.1740
     25 C21        -1.4289  -14.8202    1.1726 C.2       1 <0>         0.4909
     26 O4         -1.1491  -15.2591    2.2752 O.co2     1 <0>        -0.6954
     27 O5         -1.6198  -15.5851    0.2425 O.co2     1 <0>        -0.7083
     28 C22         1.8311    0.8132   -3.2913 C.2       1 <0>         0.1671
     29 N1          1.7932    2.1330   -3.3738 N.2       1 <0>        -0.5039
     30 C23         2.4651    2.8085   -4.2976 C.2       1 <0>         0.0615
     31 C24         3.2108    2.0828   -5.1777 C.2       1 <0>        -0.1795
     32 S1          2.9330    0.4140   -4.6438 S.3       1 <0>         0.0111
     33 C25         4.0504    2.5866   -6.3019 C.3       1 <0>        -0.0358
     34 C26         3.6757    4.0541   -6.5634 C.3       1 <0>        -0.1144
     35 C27         3.6345    4.7952   -5.2240 C.3       1 <0>        -0.1214
     36 C28         2.4315    4.3308   -4.4025 C.3       1 <0>        -0.0413
     37 H2         -0.2965    1.9918    0.7014 H         1 <0>         0.0566
     38 H3         -1.6915    1.8678   -0.3970 H         1 <0>         0.0566
     39 H4         -1.9371    1.7995    1.3646 H         1 <0>         0.1030
     40 H5          0.1782    1.5081   -1.2730 H         1 <0>         0.1486
     41 H6          1.9768   -1.8794   -3.1917 H         1 <0>         0.1327
     42 H7          0.8463   -3.3760   -1.6028 H         1 <0>         0.1461
     43 H8         -0.8215   -4.3364   -0.8016 H         1 <0>         0.0696
     44 H9          0.5736   -4.2124    0.2969 H         1 <0>         0.0694
     45 H10        -0.9389   -4.4615    2.2460 H         1 <0>         0.0870
     46 H11        -2.3340   -4.5855    1.1475 H         1 <0>         0.0871
     47 H12        -1.3373   -6.6049    0.1096 H         1 <0>         0.0645
     48 H13         0.0578   -6.4809    1.2081 H         1 <0>         0.0643
     49 H14        -0.2751   -8.3902    0.4202 H         1 <0>         0.1235
     50 H15        -0.0582  -10.8393    0.4220 H         1 <0>         0.1223
     51 H16        -2.9077   -8.6303    3.7757 H         1 <0>         0.1240
     52 H17        -2.2659  -11.5750    4.8903 H         1 <0>         0.0793
     53 H18        -3.8480  -11.3104    4.0971 H         1 <0>         0.0708
     54 H19        -2.4564  -13.6906    3.8777 H         1 <0>         0.0853
     55 H20        -3.5148  -13.0723    2.5659 H         1 <0>         0.0643
     56 H21        -2.5096  -13.0987    0.5227 H         1 <0>         0.0567
     57 H22        -0.7481  -13.0027    0.2852 H         1 <0>         0.0557
     58 H23         5.1044    2.5188   -6.0324 H         1 <0>         0.0859
     59 H24         3.8606    1.9937   -7.1967 H         1 <0>         0.0837
     60 H25         4.4223    4.5122   -7.2121 H         1 <0>         0.0775
     61 H26         2.6958    4.1023   -7.0384 H         1 <0>         0.0700
     62 H27         4.5508    4.5915   -4.6699 H         1 <0>         0.0672
     63 H28         3.5555    5.8670   -5.4064 H         1 <0>         0.0755
     64 H29         1.5105    4.6427   -4.8951 H         1 <0>         0.0810
     65 H30         2.4801    4.7669   -3.4048 H         1 <0>         0.0823
@<TRIPOS>BOND
     1    1    2 1
     2    1   37 1
     3    1   38 1
     4    1   39 1
     5    2    3 1
     6    3    8 ar
     7    3    4 ar
     8    4    5 ar
     9    4   40 1
    10    5    6 ar
    11    5   28 1
    12    6    7 ar
    13    6   41 1
    14    7    8 ar
    15    7   42 1
    16    8    9 1
    17    9   10 1
    18   10   11 1
    19   10   43 1
    20   10   44 1
    21   11   12 1
    22   11   45 1
    23   11   46 1
    24   12   13 1
    25   12   47 1
    26   12   48 1
    27   13   14 1
    28   14   19 ar
    29   14   15 ar
    30   15   16 ar
    31   15   49 1
    32   16   17 ar
    33   16   50 1
    34   17   22 1
    35   17   18 ar
    36   18   19 ar
    37   18   20 1
    38   19   51 1
    39   20   21 1
    40   20   52 1
    41   20   53 1
    42   21   22 1
    43   21   54 1
    44   21   55 1
    45   22   23 1
    46   22   24 1
    47   24   25 1
    48   24   56 1
    49   24   57 1
    50   25   26 2
    51   25   27 1
    52   28   32 1
    53   28   29 2
    54   29   30 1
    55   30   36 1
    56   30   31 2
    57   31   32 1
    58   31   33 1
    59   33   34 1
    60   33   58 1
    61   33   59 1
    62   34   35 1
    63   34   60 1
    64   34   61 1
    65   35   36 1
    66   35   62 1
    67   35   63 1
    68   36   64 1
    69   36   65 1
@<TRIPOS>MOLECULE
CHEMBL376460
   67    70     0     0     0
SMALL
USER_CHARGES

@<TRIPOS>ATOM
      1 C1         -0.0187    1.5258    0.0104 C.3       1 <0>        -0.1496
      2 C2          0.0021   -0.0041    0.0020 C.3       1 <0>        -0.1221
      3 C3         -1.4333   -0.5336    0.0129 C.3       1 <0>         0.0825
      4 O1         -1.4139   -1.9625    0.0050 O.3       1 <0>        -0.3655
      5 C4         -2.6051   -2.5900    0.0130 C.2       1 <0>         0.6530
      6 O2         -3.6330   -1.9421    0.0263 O.2       1 <0>        -0.5641
      7 N1         -2.6574   -3.9367    0.0063 N.am      1 <0>        -0.5928
      8 C5         -1.4305   -4.7506   -0.0036 C.3       1 <0>         0.1115
      9 C6         -1.3828   -5.5437    1.3015 C.3       1 <0>        -0.0819
     10 C7         -2.7076   -6.2051    1.5757 C.ar      1 <0>        -0.0989
     11 C8         -2.7215   -7.2835    2.4599 C.ar      1 <0>         0.1147
     12 C9         -3.9084   -7.9285    2.7614 C.ar      1 <0>        -0.2015
     13 C10        -5.0880   -7.5000    2.1834 C.ar      1 <0>        -0.0802
     14 C11        -5.0740   -6.4352    1.3059 C.ar      1 <0>        -0.0879
     15 C12        -3.8842   -5.7892    0.9963 C.ar      1 <0>        -0.0598
     16 C13        -3.9388   -4.6504    0.0147 C.3       1 <0>         0.1675
     17 C14        -6.3619   -5.9689    0.6774 C.3       1 <0>        -0.0628
     18 C15        -6.5282   -6.6276   -0.6935 C.3       1 <0>        -0.1748
     19 C16        -7.8161   -6.1613   -1.3219 C.2       1 <0>         0.4896
     20 O3         -8.5343   -5.3750   -0.7283 O.co2     1 <0>        -0.6966
     21 O4         -8.1398   -6.5704   -2.4239 O.co2     1 <0>        -0.7062
     22 O5         -1.5615   -7.7042    3.0292 O.3       1 <0>        -0.3133
     23 C17        -1.6439   -8.8138    3.9259 C.3       1 <0>         0.0683
     24 C18        -0.2490   -9.1403    4.4629 C.3       1 <0>        -0.0334
     25 C19        -0.3359  -10.3104    5.4086 C.2       1 <0>        -0.0069
     26 C20        -0.5468  -10.2427    6.7357 C.2       1 <0>        -0.0323
     27 O6         -0.5544  -11.5062    7.2046 O.3       1 <0>        -0.1934
     28 C21        -0.3487  -12.3300    6.1625 C.2       1 <0>         0.2301
     29 N2         -0.2226  -11.6052    5.0760 N.2       1 <0>        -0.4588
     30 C22        -0.2816  -13.8053    6.2285 C.ar      1 <0>        -0.0177
     31 C23        -0.0554  -14.5492    5.0695 C.ar      1 <0>        -0.0703
     32 C24         0.0065  -15.9257    5.1381 C.ar      1 <0>        -0.1204
     33 C25        -0.1549  -16.5688    6.3524 C.ar      1 <0>        -0.1008
     34 C26        -0.3794  -15.8373    7.5051 C.ar      1 <0>        -0.1212
     35 C27        -0.4384  -14.4600    7.4511 C.ar      1 <0>        -0.0906
     36 C28        -0.7385   -8.9873    7.5470 C.3       1 <0>        -0.0724
     37 H1          1.0039    1.9031    0.0027 H         1 <0>         0.0636
     38 H2         -0.5459    1.8868   -0.8726 H         1 <0>         0.0589
     39 H3         -0.5289    1.8773    0.9072 H         1 <0>         0.0583
     40 H4          0.5123   -0.3556   -0.8948 H         1 <0>         0.0731
     41 H5          0.5293   -0.3651    0.8851 H         1 <0>         0.0726
     42 H6         -1.9435   -0.1821    0.9097 H         1 <0>         0.0670
     43 H7         -1.9605   -0.1726   -0.8702 H         1 <0>         0.0679
     44 H8         -1.4492   -5.4357   -0.8511 H         1 <0>         0.0787
     45 H9         -0.5577   -4.1012   -0.0726 H         1 <0>         0.0965
     46 H10        -0.6090   -6.3079    1.2285 H         1 <0>         0.0890
     47 H11        -1.1424   -4.8685    2.1227 H         1 <0>         0.0758
     48 H12        -3.9125   -8.7640    3.4457 H         1 <0>         0.1233
     49 H13        -6.0180   -7.9966    2.4179 H         1 <0>         0.1271
     50 H14        -4.7348   -3.9632    0.3013 H         1 <0>         0.1148
     51 H15        -4.1414   -5.0438   -0.9815 H         1 <0>         0.0931
     52 H16        -7.1996   -6.2457    1.3176 H         1 <0>         0.0724
     53 H17        -6.3372   -4.8856    0.5594 H         1 <0>         0.0744
     54 H18        -5.6905   -6.3509   -1.3336 H         1 <0>         0.0560
     55 H19        -6.5529   -7.7110   -0.5754 H         1 <0>         0.0572
     56 H20        -2.3031   -8.5615    4.7565 H         1 <0>         0.0605
     57 H21        -2.0414   -9.6798    3.3967 H         1 <0>         0.0652
     58 H22         0.4102   -9.3926    3.6323 H         1 <0>         0.0945
     59 H23         0.1485   -8.2742    4.9921 H         1 <0>         0.0922
     60 H24         0.0704  -14.0484    4.1209 H         1 <0>         0.1391
     61 H25         0.1812  -16.5026    4.2419 H         1 <0>         0.1330
     62 H26        -0.1059  -17.6466    6.4006 H         1 <0>         0.1286
     63 H27        -0.5050  -16.3454    8.4498 H         1 <0>         0.1306
     64 H28        -0.6092  -13.8899    8.3523 H         1 <0>         0.1300
     65 H29        -1.7987   -8.7370    7.5842 H         1 <0>         0.0885
     66 H30        -0.3676   -9.1487    8.5592 H         1 <0>         0.0810
     67 H31        -0.1877   -8.1682    7.0846 H         1 <0>         0.0963
@<TRIPOS>BOND
     1    1    2 1
     2    1   37 1
     3    1   38 1
     4    1   39 1
     5    2    3 1
     6    2   40 1
     7    2   41 1
     8    3    4 1
     9    3   42 1
    10    3   43 1
    11    4    5 1
    12    5    6 2
    13    5    7 am
    14    7   16 1
    15    7    8 1
    16    8    9 1
    17    8   44 1
    18    8   45 1
    19    9   10 1
    20    9   46 1
    21    9   47 1
    22   10   15 ar
    23   10   11 ar
    24   11   12 ar
    25   11   22 1
    26   12   13 ar
    27   12   48 1
    28   13   14 ar
    29   13   49 1
    30   14   15 ar
    31   14   17 1
    32   15   16 1
    33   16   50 1
    34   16   51 1
    35   17   18 1
    36   17   52 1
    37   17   53 1
    38   18   19 1
    39   18   54 1
    40   18   55 1
    41   19   20 2
    42   19   21 1
    43   22   23 1
    44   23   24 1
    45   23   56 1
    46   23   57 1
    47   24   25 1
    48   24   58 1
    49   24   59 1
    50   25   29 1
    51   25   26 2
    52   26   27 1
    53   26   36 1
    54   27   28 1
    55   28   29 2
    56   28   30 1
    57   30   35 ar
    58   30   31 ar
    59   31   32 ar
    60   31   60 1
    61   32   33 ar
    62   32   61 1
    63   33   34 ar
    64   33   62 1
    65   34   35 ar
    66   34   63 1
    67   35   64 1
    68   36   65 1
    69   36   66 1
    70   36   67 1
@<TRIPOS>MOLECULE
CHEMBL451216
   75    79     0     0     0
SMALL
USER_CHARGES

@<TRIPOS>ATOM
      1 C1         -0.7088    1.1164    1.2690 C.3       1 <0>        -0.1530
      2 C2         -0.7421   -0.4129    1.2993 C.3       1 <0>        -0.1157
      3 C3         -2.1670   -0.8975    1.0239 C.3       1 <0>        -0.0743
      4 C4         -2.1998   -2.4039    1.0537 C.ar      1 <0>        -0.1229
      5 C5         -2.0764   -3.1174   -0.1172 C.ar      1 <0>        -0.0197
      6 C6         -2.1065   -4.5151   -0.0883 C.ar      1 <0>        -0.2030
      7 C7         -2.2621   -5.1821    1.1312 C.ar      1 <0>        -0.0397
      8 C8         -2.3848   -4.4609    2.2970 C.ar      1 <0>        -0.2206
      9 C9         -2.3490   -3.0711    2.2642 C.ar      1 <0>         0.1711
     10 O1         -2.4652   -2.3641    3.4165 O.3       1 <0>        -0.2993
     11 C10        -2.6156   -3.1125    4.6245 C.3       1 <0>         0.0617
     12 C11        -2.7305   -2.1511    5.8092 C.3       1 <0>        -0.1412
     13 C12        -2.8916   -2.9524    7.1026 C.3       1 <0>         0.1225
     14 N1         -3.0017   -2.0318    8.2369 N.pl3     1 <0>        -0.4868
     15 C13        -1.9599   -1.6305    9.0275 C.2       1 <0>         0.0400
     16 C14        -2.4017   -0.7872    9.9740 C.2       1 <0>        -0.2055
     17 C15        -3.8449   -0.6356    9.7735 C.ar      1 <0>        -0.0789
     18 C16        -4.1699   -1.4359    8.6634 C.ar      1 <0>         0.0606
     19 C17        -5.4872   -1.4928    8.2217 C.ar      1 <0>        -0.1139
     20 C18        -6.4621   -0.7659    8.8683 C.ar      1 <0>        -0.1183
     21 C19        -6.1431    0.0300    9.9651 C.ar      1 <0>         0.1507
     22 C20        -4.8424    0.0933   10.4243 C.ar      1 <0>        -0.1406
     23 O2         -7.1178    0.7417   10.5918 O.3       1 <0>        -0.3038
     24 C21        -8.4614    0.5251   10.1558 C.3       1 <0>         0.0302
     25 C22        -8.8276   -0.9483   10.3449 C.3       1 <0>        -0.1709
     26 C23        -9.4116    1.3966   10.9795 C.3       1 <0>        -0.1136
     27 C24        -8.5815    0.8896    8.6985 C.2       1 <0>         0.4810
     28 O3         -7.6070    1.2971    8.0896 O.co2     1 <0>        -0.6681
     29 O4         -9.6533    0.7770    8.1283 O.co2     1 <0>        -0.6871
     30 C25        -1.9751   -5.2837   -1.3403 C.2       1 <0>         0.4435
     31 O5         -1.4927   -4.7613   -2.3267 O.2       1 <0>        -0.4524
     32 C26        -2.4294   -6.6880   -1.3958 C.ar      1 <0>        -0.1536
     33 C27        -3.4566   -7.1242   -0.5386 C.ar      1 <0>        -0.0875
     34 C28        -3.8913   -8.4091   -0.5714 C.ar      1 <0>        -0.1122
     35 C29        -3.3143   -9.3252   -1.4705 C.ar      1 <0>        -0.0323
     36 C30        -3.7484  -10.6601   -1.5227 C.ar      1 <0>        -0.1120
     37 C31        -3.1715  -11.5237   -2.4032 C.ar      1 <0>        -0.1058
     38 C32        -2.1530  -11.1048   -3.2572 C.ar      1 <0>        -0.1202
     39 C33        -1.7057   -9.8197   -3.2354 C.ar      1 <0>        -0.0964
     40 C34        -2.2782   -8.8984   -2.3397 C.ar      1 <0>        -0.0651
     41 C35        -1.8449   -7.5650   -2.2959 C.ar      1 <0>        -0.0396
     42 H1          0.3063    1.4616    1.4652 H         1 <0>         0.0534
     43 H2         -1.0287    1.4675    0.2880 H         1 <0>         0.0535
     44 H3         -1.3802    1.5096    2.0324 H         1 <0>         0.0574
     45 H4         -0.0707   -0.8062    0.5359 H         1 <0>         0.0591
     46 H5         -0.4222   -0.7640    2.2803 H         1 <0>         0.0634
     47 H6         -2.8384   -0.5043    1.7873 H         1 <0>         0.0808
     48 H7         -2.4869   -0.5465    0.0429 H         1 <0>         0.0725
     49 H8         -1.9567   -2.5984   -1.0567 H         1 <0>         0.1388
     50 H9         -2.2863   -6.2615    1.1579 H         1 <0>         0.1371
     51 H10        -2.5050   -4.9752    3.2390 H         1 <0>         0.1360
     52 H11        -3.5163   -3.7234    4.5637 H         1 <0>         0.0688
     53 H12        -1.7478   -3.7574    4.7629 H         1 <0>         0.0667
     54 H13        -1.8299   -1.5402    5.8700 H         1 <0>         0.0814
     55 H14        -3.5983   -1.5062    5.6709 H         1 <0>         0.0870
     56 H15        -3.7923   -3.5633    7.0417 H         1 <0>         0.0851
     57 H16        -2.0238   -3.5973    7.2409 H         1 <0>         0.0870
     58 H17        -0.9338   -1.9455    8.9079 H         1 <0>         0.1593
     59 H18        -1.8059   -0.3107   10.7384 H         1 <0>         0.1397
     60 H19        -5.7458   -2.1067    7.3716 H         1 <0>         0.1098
     61 H20        -7.4836   -0.8134    8.5209 H         1 <0>         0.1449
     62 H21        -4.5959    0.7121   11.2745 H         1 <0>         0.1202
     63 H22        -8.6687   -1.2316   11.3853 H         1 <0>         0.0513
     64 H23        -9.8750   -1.0988   10.0833 H         1 <0>         0.0712
     65 H24        -8.2001   -1.5642    9.7007 H         1 <0>         0.0662
     66 H25        -9.2080    2.4481   10.7768 H         1 <0>         0.0559
     67 H26       -10.4421    1.1672   10.7083 H         1 <0>         0.0754
     68 H27        -9.2617    1.1954   12.0402 H         1 <0>         0.0510
     69 H28        -3.9044   -6.4274    0.1545 H         1 <0>         0.1364
     70 H29        -4.6804   -8.7290    0.0931 H         1 <0>         0.1342
     71 H30        -4.5362  -11.0001   -0.8668 H         1 <0>         0.1303
     72 H31        -3.5082  -12.5492   -2.4401 H         1 <0>         0.1253
     73 H32        -1.7122  -11.8102   -3.9459 H         1 <0>         0.1255
     74 H33        -0.9151   -9.5088   -3.9023 H         1 <0>         0.1300
     75 H34        -1.0598   -7.2256   -2.9554 H         1 <0>         0.1379
@<TRIPOS>BOND
     1    1    2 1
     2    1   42 1
     3    1   43 1
     4    1   44 1
     5    2    3 1
     6    2   45 1
     7    2   46 1
     8    3    4 1
     9    3   47 1
    10    3   48 1
    11    4    9 ar
    12    4    5 ar
    13    5    6 ar
    14    5   49 1
    15    6    7 ar
    16    6   30 1
    17    7    8 ar
    18    7   50 1
    19    8    9 ar
    20    8   51 1
    21    9   10 1
    22   10   11 1
    23   11   12 1
    24   11   52 1
    25   11   53 1
    26   12   13 1
    27   12   54 1
    28   12   55 1
    29   13   14 1
    30   13   56 1
    31   13   57 1
    32   14   18 1
    33   14   15 1
    34   15   16 2
    35   15   58 1
    36   16   17 1
    37   16   59 1
    38   17   22 ar
    39   17   18 ar
    40   18   19 ar
    41   19   20 ar
    42   19   60 1
    43   20   21 ar
    44   20   61 1
    45   21   22 ar
    46   21   23 1
    47   22   62 1
    48   23   24 1
    49   24   25 1
    50   24   26 1
    51   24   27 1
    52   25   63 1
    53   25   64 1
    54   25   65 1
    55   26   66 1
    56   26   67 1
    57   26   68 1
    58   27   28 2
    59   27   29 1
    60   30   31 2
    61   30   32 1
    62   32   41 ar
    63   32   33 ar
    64   33   34 ar
    65   33   69 1
    66   34   35 ar
    67   34   70 1
    68   35   40 ar
    69   35   36 ar
    70   36   37 ar
    71   36   71 1
    72   37   38 ar
    73   37   72 1
    74   38   39 ar
    75   38   73 1
    76   39   40 ar
    77   39   74 1
    78   40   41 ar
    79   41   75 1
@<TRIPOS>MOLECULE
CHEMBL94306
   61    64     0     0     0
SMALL
USER_CHARGES

@<TRIPOS>ATOM
      1 C1          0.3723    1.6617    0.4348 C.3       1 <0>        -0.1525
      2 C2          0.3494    0.1347    0.5280 C.3       1 <0>        -0.1164
      3 C3          0.6416   -0.4647   -0.8490 C.3       1 <0>        -0.0723
      4 C4          0.6190   -1.9688   -0.7572 C.ar      1 <0>        -0.0719
      5 C5          1.7953   -2.6666   -0.5629 C.ar      1 <0>        -0.1056
      6 C6          1.7745   -4.0509   -0.4784 C.ar      1 <0>         0.0923
      7 C7          0.5722   -4.7346   -0.5890 C.ar      1 <0>        -0.1581
      8 C8         -0.6036   -4.0368   -0.7832 C.ar      1 <0>        -0.1675
      9 C9         -0.5834   -2.6519   -0.8620 C.ar      1 <0>         0.1018
     10 O1         -1.7419   -1.9645   -1.0473 O.3       1 <0>        -0.3054
     11 C10        -2.9430   -2.7323   -1.1467 C.3       1 <0>         0.0638
     12 C11        -4.1332   -1.7930   -1.3516 C.3       1 <0>        -0.1194
     13 C12        -5.4192   -2.6151   -1.4580 C.3       1 <0>         0.0634
     14 O2         -6.5309   -1.7378   -1.6494 O.3       1 <0>        -0.3079
     15 C13        -7.7573   -2.3119   -1.7640 C.ar      1 <0>         0.1360
     16 C14        -7.8888   -3.6911   -1.6880 C.ar      1 <0>        -0.1914
     17 C15        -9.1365   -4.2722   -1.8044 C.ar      1 <0>        -0.0708
     18 C16       -10.2540   -3.4806   -1.9965 C.ar      1 <0>        -0.1323
     19 C17       -10.1256   -2.1063   -2.0730 C.ar      1 <0>        -0.0408
     20 C18        -8.8805   -1.5198   -1.9515 C.ar      1 <0>        -0.1186
     21 C19       -11.3454   -1.2466   -2.2828 C.3       1 <0>        -0.0337
     22 C20       -12.4340   -1.5731   -1.2700 C.2       1 <0>         0.5343
     23 O3        -12.2763   -1.4215   -0.0776 O.2       1 <0>        -0.4481
     24 N1        -13.5635   -2.0338   -1.7807 N.am      1 <0>        -0.6896
     25 C21       -13.7634   -2.2114   -3.0998 C.2       1 <0>         0.5629
     26 O4        -14.7607   -2.6262   -3.6578 O.2       1 <0>        -0.4137
     27 S1        -12.2211   -1.6946   -3.8395 S.3       1 <0>        -0.1363
     28 O5          2.9322   -4.7379   -0.2876 O.3       1 <0>        -0.2599
     29 C22         2.8658   -6.0933   -0.2190 C.ar      1 <0>         0.0830
     30 C23         2.9883   -6.8545   -1.3727 C.ar      1 <0>        -0.1266
     31 C24         2.9203   -8.2322   -1.3001 C.ar      1 <0>        -0.1063
     32 C25         2.7300   -8.8529   -0.0793 C.ar      1 <0>        -0.1173
     33 C26         2.6076   -8.0968    1.0719 C.ar      1 <0>        -0.1064
     34 C27         2.6810   -6.7190    1.0057 C.ar      1 <0>        -0.1267
     35 H1          1.3550    1.9904    0.0966 H         1 <0>         0.0540
     36 H2         -0.3859    1.9939   -0.2743 H         1 <0>         0.0551
     37 H3          0.1642    2.0888    1.4158 H         1 <0>         0.0545
     38 H4          1.1076   -0.1974    1.2372 H         1 <0>         0.0609
     39 H5         -0.6333   -0.1939    0.8663 H         1 <0>         0.0643
     40 H6         -0.1166   -0.1326   -1.5581 H         1 <0>         0.0794
     41 H7          1.6242   -0.1361   -1.1872 H         1 <0>         0.0731
     42 H8          2.7311   -2.1343   -0.4771 H         1 <0>         0.1398
     43 H9          0.5560   -5.8125   -0.5236 H         1 <0>         0.1299
     44 H10        -1.5394   -4.5690   -0.8693 H         1 <0>         0.1308
     45 H11        -2.8689   -3.4149   -1.9933 H         1 <0>         0.0651
     46 H12        -3.0853   -3.3046   -0.2300 H         1 <0>         0.0651
     47 H13        -4.2074   -1.1105   -0.5050 H         1 <0>         0.0884
     48 H14        -3.9909   -1.2208   -2.2683 H         1 <0>         0.0884
     49 H15        -5.3451   -3.2977   -2.3046 H         1 <0>         0.0684
     50 H16        -5.5616   -3.1873   -0.5413 H         1 <0>         0.0682
     51 H17        -7.0163   -4.3098   -1.5384 H         1 <0>         0.1336
     52 H18        -9.2393   -5.3457   -1.7457 H         1 <0>         0.1336
     53 H19       -11.2287   -3.9368   -2.0872 H         1 <0>         0.1208
     54 H20        -8.7812   -0.4458   -2.0068 H         1 <0>         0.1407
     55 H21       -11.0887   -0.1875   -2.2628 H         1 <0>         0.1697
     56 H22       -14.2858   -2.2557   -1.1725 H         1 <0>         0.4203
     57 H23         3.1362   -6.3701   -2.3266 H         1 <0>         0.1311
     58 H24         3.0156   -8.8251   -2.1978 H         1 <0>         0.1312
     59 H25         2.6765   -9.9302   -0.0248 H         1 <0>         0.1291
     60 H26         2.4587   -8.5841    2.0241 H         1 <0>         0.1311
     61 H27         2.5901   -6.1290    1.9058 H         1 <0>         0.1310
@<TRIPOS>BOND
     1    1    2 1
     2    1   35 1
     3    1   36 1
     4    1   37 1
     5    2    3 1
     6    2   38 1
     7    2   39 1
     8    3    4 1
     9    3   40 1
    10    3   41 1
    11    4    9 ar
    12    4    5 ar
    13    5    6 ar
    14    5   42 1
    15    6    7 ar
    16    6   28 1
    17    7    8 ar
    18    7   43 1
    19    8    9 ar
    20    8   44 1
    21    9   10 1
    22   10   11 1
    23   11   12 1
    24   11   45 1
    25   11   46 1
    26   12   13 1
    27   12   47 1
    28   12   48 1
    29   13   14 1
    30   13   49 1
    31   13   50 1
    32   14   15 1
    33   15   20 ar
    34   15   16 ar
    35   16   17 ar
    36   16   51 1
    37   17   18 ar
    38   17   52 1
    39   18   19 ar
    40   18   53 1
    41   19   20 ar
    42   19   21 1
    43   20   54 1
    44   21   27 1
    45   21   22 1
    46   21   55 1
    47   22   23 2
    48   22   24 am
    49   24   25 am
    50   24   56 1
    51   25   26 2
    52   25   27 1
    53   28   29 1
    54   29   34 ar
    55   29   30 ar
    56   30   31 ar
    57   30   57 1
    58   31   32 ar
    59   31   58 1
    60   32   33 ar
    61   32   59 1
    62   33   34 ar
    63   33   60 1
    64   34   61 1
@<TRIPOS>MOLECULE
CHEMBL94306__1
   61    64     0     0     0
SMALL
USER_CHARGES

@<TRIPOS>ATOM
      1 C1          0.3723    1.6617    0.4348 C.3       1 <0>        -0.1526
      2 C2          0.3494    0.1347    0.5280 C.3       1 <0>        -0.1164
      3 C3          0.6416   -0.4647   -0.8490 C.3       1 <0>        -0.0724
      4 C4          0.6190   -1.9688   -0.7572 C.ar      1 <0>        -0.0719
      5 C5          1.7953   -2.6666   -0.5629 C.ar      1 <0>        -0.1056
      6 C6          1.7745   -4.0509   -0.4784 C.ar      1 <0>         0.0924
      7 C7          0.5722   -4.7346   -0.5890 C.ar      1 <0>        -0.1581
      8 C8         -0.6036   -4.0368   -0.7832 C.ar      1 <0>        -0.1674
      9 C9         -0.5834   -2.6519   -0.8620 C.ar      1 <0>         0.1018
     10 O1         -1.7419   -1.9645   -1.0473 O.3       1 <0>        -0.3054
     11 C10        -2.9430   -2.7323   -1.1467 C.3       1 <0>         0.0638
     12 C11        -4.1332   -1.7930   -1.3516 C.3       1 <0>        -0.1194
     13 C12        -5.4192   -2.6151   -1.4580 C.3       1 <0>         0.0634
     14 O2         -6.5309   -1.7378   -1.6494 O.3       1 <0>        -0.3079
     15 C13        -7.7573   -2.3119   -1.7640 C.ar      1 <0>         0.1361
     16 C14        -7.8888   -3.6911   -1.6880 C.ar      1 <0>        -0.1915
     17 C15        -9.1365   -4.2722   -1.8044 C.ar      1 <0>        -0.0708
     18 C16       -10.2540   -3.4806   -1.9965 C.ar      1 <0>        -0.1323
     19 C17       -10.1256   -2.1063   -2.0730 C.ar      1 <0>        -0.0408
     20 C18        -8.8805   -1.5198   -1.9515 C.ar      1 <0>        -0.1186
     21 C19       -11.3454   -1.2466   -2.2828 C.3       1 <0>        -0.0336
     22 C20       -12.1588   -1.7217   -3.4786 C.2       1 <0>         0.5343
     23 O3        -11.7120   -1.7262   -4.6057 O.2       1 <0>        -0.4481
     24 N1        -13.3862   -2.1296   -3.2032 N.am      1 <0>        -0.6896
     25 C21       -13.9052   -2.1348   -1.9614 C.2       1 <0>         0.5628
     26 O4        -15.0151   -2.4893   -1.6141 O.2       1 <0>        -0.4137
     27 S1        -12.5821   -1.4996   -0.9422 S.3       1 <0>        -0.1364
     28 O5          2.9322   -4.7379   -0.2876 O.3       1 <0>        -0.2599
     29 C22         2.8658   -6.0933   -0.2190 C.ar      1 <0>         0.0830
     30 C23         2.9883   -6.8545   -1.3727 C.ar      1 <0>        -0.1266
     31 C24         2.9203   -8.2322   -1.3001 C.ar      1 <0>        -0.1063
     32 C25         2.7300   -8.8529   -0.0793 C.ar      1 <0>        -0.1173
     33 C26         2.6076   -8.0968    1.0719 C.ar      1 <0>        -0.1064
     34 C27         2.6810   -6.7190    1.0057 C.ar      1 <0>        -0.1266
     35 H1          1.3550    1.9904    0.0966 H         1 <0>         0.0540
     36 H2         -0.3859    1.9939   -0.2743 H         1 <0>         0.0551
     37 H3          0.1642    2.0888    1.4158 H         1 <0>         0.0545
     38 H4          1.1076   -0.1974    1.2372 H         1 <0>         0.0609
     39 H5         -0.6333   -0.1939    0.8663 H         1 <0>         0.0643
     40 H6         -0.1166   -0.1326   -1.5581 H         1 <0>         0.0794
     41 H7          1.6242   -0.1361   -1.1872 H         1 <0>         0.0731
     42 H8          2.7311   -2.1343   -0.4771 H         1 <0>         0.1398
     43 H9          0.5560   -5.8125   -0.5236 H         1 <0>         0.1299
     44 H10        -1.5394   -4.5690   -0.8693 H         1 <0>         0.1308
     45 H11        -2.8689   -3.4149   -1.9933 H         1 <0>         0.0650
     46 H12        -3.0853   -3.3046   -0.2300 H         1 <0>         0.0652
     47 H13        -4.2074   -1.1105   -0.5050 H         1 <0>         0.0885
     48 H14        -3.9909   -1.2208   -2.2683 H         1 <0>         0.0884
     49 H15        -5.3451   -3.2977   -2.3046 H         1 <0>         0.0683
     50 H16        -5.5616   -3.1873   -0.5413 H         1 <0>         0.0684
     51 H17        -7.0163   -4.3098   -1.5384 H         1 <0>         0.1336
     52 H18        -9.2393   -5.3457   -1.7457 H         1 <0>         0.1336
     53 H19       -11.2287   -3.9368   -2.0872 H         1 <0>         0.1208
     54 H20        -8.7812   -0.4458   -2.0068 H         1 <0>         0.1407
     55 H21       -11.0742   -0.1953   -2.3791 H         1 <0>         0.1697
     56 H22       -13.9419   -2.4410   -3.9348 H         1 <0>         0.4203
     57 H23         3.1362   -6.3701   -2.3266 H         1 <0>         0.1311
     58 H24         3.0156   -8.8251   -2.1978 H         1 <0>         0.1311
     59 H25         2.6765   -9.9302   -0.0248 H         1 <0>         0.1291
     60 H26         2.4587   -8.5841    2.0241 H         1 <0>         0.1312
     61 H27         2.5901   -6.1290    1.9058 H         1 <0>         0.1311
@<TRIPOS>BOND
     1    1    2 1
     2    1   35 1
     3    1   36 1
     4    1   37 1
     5    2    3 1
     6    2   38 1
     7    2   39 1
     8    3    4 1
     9    3   40 1
    10    3   41 1
    11    4    9 ar
    12    4    5 ar
    13    5    6 ar
    14    5   42 1
    15    6    7 ar
    16    6   28 1
    17    7    8 ar
    18    7   43 1
    19    8    9 ar
    20    8   44 1
    21    9   10 1
    22   10   11 1
    23   11   12 1
    24   11   45 1
    25   11   46 1
    26   12   13 1
    27   12   47 1
    28   12   48 1
    29   13   14 1
    30   13   49 1
    31   13   50 1
    32   14   15 1
    33   15   20 ar
    34   15   16 ar
    35   16   17 ar
    36   16   51 1
    37   17   18 ar
    38   17   52 1
    39   18   19 ar
    40   18   53 1
    41   19   20 ar
    42   19   21 1
    43   20   54 1
    44   21   27 1
    45   21   22 1
    46   21   55 1
    47   22   23 2
    48   22   24 am
    49   24   25 am
    50   24   56 1
    51   25   26 2
    52   25   27 1
    53   28   29 1
    54   29   34 ar
    55   29   30 ar
    56   30   31 ar
    57   30   57 1
    58   31   32 ar
    59   31   58 1
    60   32   33 ar
    61   32   59 1
    62   33   34 ar
    63   33   60 1
    64   34   61 1
@<TRIPOS>MOLECULE
CHEMBL471533
   63    66     0     0     0
SMALL
USER_CHARGES

@<TRIPOS>ATOM
      1 C1         -2.1198    0.4060    0.2323 C.3       1 <0>        -0.0956
      2 C2         -1.8069   -1.0678    0.2637 C.ar      1 <0>        -0.1427
      3 C3         -1.5245   -1.7399   -0.9100 C.ar      1 <0>        -0.0738
      4 C4         -1.2379   -3.0920   -0.8819 C.ar      1 <0>        -0.1665
      5 C5         -1.2326   -3.7752    0.3204 C.ar      1 <0>        -0.0784
      6 C6         -1.5137   -3.1079    1.4966 C.ar      1 <0>        -0.1562
      7 C7         -1.7966   -1.7497    1.4716 C.ar      1 <0>         0.1805
      8 O1         -2.0680   -1.0896    2.6281 O.3       1 <0>        -0.2983
      9 C8         -1.9114   -1.8219    3.8452 C.3       1 <0>         0.0292
     10 C9         -0.4683   -2.3168    3.9606 C.3       1 <0>        -0.1733
     11 C10        -2.2354   -0.9130    5.0326 C.3       1 <0>        -0.1148
     12 C11        -2.8487   -3.0020    3.8455 C.2       1 <0>         0.4816
     13 O2         -3.5827   -3.1978    2.8919 O.co2     1 <0>        -0.6684
     14 O3         -2.8729   -3.7610    4.7994 O.co2     1 <0>        -0.6857
     15 C12        -0.9312   -3.8227   -2.1637 C.3       1 <0>         0.1735
     16 N1          0.5099   -3.7719   -2.4221 N.am      1 <0>        -0.7073
     17 C13         1.0188   -4.3631   -3.5211 C.2       1 <0>         0.6005
     18 O4          0.2819   -4.9386   -4.2981 O.2       1 <0>        -0.5360
     19 C14         2.4722   -4.3118   -3.7817 C.2       1 <0>        -0.0112
     20 C15         3.1439   -4.8767   -4.8871 C.2       1 <0>        -0.1515
     21 C16         4.4653   -4.5770   -4.7023 C.2       1 <0>         0.0389
     22 N2          4.5499   -3.8693   -3.5392 N.pl3     1 <0>        -0.2752
     23 N3          3.3806   -3.7248   -3.0275 N.2       1 <0>        -0.2457
     24 C17         5.7907   -3.3464   -2.9618 C.3       1 <0>         0.0752
     25 C18         5.5868   -4.9490   -5.5919 C.ar      1 <0>        -0.0033
     26 C19         5.4423   -6.0052   -6.4934 C.ar      1 <0>        -0.0929
     27 C20         6.4868   -6.3511   -7.3213 C.ar      1 <0>        -0.0927
     28 C21         7.6891   -5.6464   -7.2594 C.ar      1 <0>        -0.0554
     29 C22         7.8342   -4.5913   -6.3585 C.ar      1 <0>        -0.0938
     30 C23         6.7884   -4.2405   -5.5344 C.ar      1 <0>        -0.1251
     31 C24         8.8133   -6.0194   -8.1511 C.ar      1 <0>         0.0024
     32 C25         8.6871   -7.0701   -9.0650 C.ar      1 <0>        -0.1665
     33 C26         9.7582   -7.3839   -9.8759 C.ar      1 <0>         0.1036
     34 N4         10.8885   -6.7081   -9.7967 N.ar      1 <0>        -0.4887
     35 C27        11.0490   -5.7103   -8.9485 C.ar      1 <0>         0.1030
     36 C28        10.0268   -5.3263   -8.1053 C.ar      1 <0>        -0.1675
     37 H1         -1.1965    0.9757    0.3372 H         1 <0>         0.0580
     38 H2         -2.5954    0.6563   -0.7160 H         1 <0>         0.0569
     39 H3         -2.7937    0.6519    1.0529 H         1 <0>         0.0672
     40 H4         -1.5280   -1.2085   -1.8502 H         1 <0>         0.1187
     41 H5         -1.0087   -4.8316    0.3397 H         1 <0>         0.1152
     42 H6         -1.5095   -3.6419    2.4353 H         1 <0>         0.1408
     43 H7          0.1894   -1.4733    4.1706 H         1 <0>         0.0504
     44 H8         -0.3970   -3.0434    4.7699 H         1 <0>         0.0750
     45 H9         -0.1691   -2.7862    3.0234 H         1 <0>         0.0673
     46 H10        -3.2336   -0.4935    4.9073 H         1 <0>         0.0569
     47 H11        -2.1980   -1.4929    5.9548 H         1 <0>         0.0783
     48 H12        -1.5053   -0.1051    5.0815 H         1 <0>         0.0503
     49 H13        -1.2478   -4.8619   -2.0742 H         1 <0>         0.0746
     50 H14        -1.4651   -3.3500   -2.9881 H         1 <0>         0.0737
     51 H15         1.0979   -3.3126   -1.8021 H         1 <0>         0.4078
     52 H16         2.7067   -5.4289   -5.7058 H         1 <0>         0.1663
     53 H17         5.9767   -2.3440   -3.3474 H         1 <0>         0.0892
     54 H18         5.6979   -3.3068   -1.8765 H         1 <0>         0.1024
     55 H19         6.6206   -3.9994   -3.2319 H         1 <0>         0.1010
     56 H20         4.5116   -6.5510   -6.5412 H         1 <0>         0.1369
     57 H21         6.3752   -7.1683   -8.0185 H         1 <0>         0.1337
     58 H22         8.7654   -4.0464   -6.3108 H         1 <0>         0.1316
     59 H23         6.8991   -3.4203   -4.8406 H         1 <0>         0.1333
     60 H24         7.7650   -7.6280   -9.1347 H         1 <0>         0.1389
     61 H25         9.6703   -8.1938  -10.5849 H         1 <0>         0.1583
     62 H26        11.9917   -5.1844   -8.9169 H         1 <0>         0.1578
     63 H27        10.1635   -4.5056   -7.4167 H         1 <0>         0.1376
@<TRIPOS>BOND
     1    1    2 1
     2    1   37 1
     3    1   38 1
     4    1   39 1
     5    2    7 ar
     6    2    3 ar
     7    3    4 ar
     8    3   40 1
     9    4    5 ar
    10    4   15 1
    11    5    6 ar
    12    5   41 1
    13    6    7 ar
    14    6   42 1
    15    7    8 1
    16    8    9 1
    17    9   10 1
    18    9   11 1
    19    9   12 1
    20   10   43 1
    21   10   44 1
    22   10   45 1
    23   11   46 1
    24   11   47 1
    25   11   48 1
    26   12   13 2
    27   12   14 1
    28   15   16 1
    29   15   49 1
    30   15   50 1
    31   16   17 am
    32   16   51 1
    33   17   18 2
    34   17   19 1
    35   19   23 2
    36   19   20 1
    37   20   21 2
    38   20   52 1
    39   21   22 1
    40   21   25 1
    41   22   23 1
    42   22   24 1
    43   24   53 1
    44   24   54 1
    45   24   55 1
    46   25   30 ar
    47   25   26 ar
    48   26   27 ar
    49   26   56 1
    50   27   28 ar
    51   27   57 1
    52   28   29 ar
    53   28   31 1
    54   29   30 ar
    55   29   58 1
    56   30   59 1
    57   31   36 ar
    58   31   32 ar
    59   32   33 ar
    60   32   60 1
    61   33   34 ar
    62   33   61 1
    63   34   35 ar
    64   35   36 ar
    65   35   62 1
    66   36   63 1
@<TRIPOS>MOLECULE
CHEMBL481551
   58    61     0     0     0
SMALL
USER_CHARGES

@<TRIPOS>ATOM
      1 C1         -0.0184    1.5028    0.0103 C.3       1 <0>        -0.1190
      2 C2          0.0021   -0.0041    0.0020 C.ar      1 <0>        -0.0670
      3 C3          0.0057   -0.6862   -1.2017 C.ar      1 <0>        -0.1227
      4 C4          0.0239   -2.0656   -1.2163 C.ar      1 <0>        -0.0850
      5 C5          0.0392   -2.7730   -0.0132 C.ar      1 <0>        -0.0230
      6 C6          0.0359   -2.0787    1.1975 C.ar      1 <0>        -0.0648
      7 C7          0.0229   -0.6992    1.1981 C.ar      1 <0>        -0.1219
      8 C8          0.0582   -4.2511   -0.0214 C.2       1 <0>         0.2312
      9 N1          0.0684   -5.0231    1.0397 N.2       1 <0>        -0.4512
     10 C9          0.0849   -6.3032    0.6386 C.2       1 <0>        -0.0153
     11 C10         0.0847   -6.3137   -0.7068 C.2       1 <0>        -0.0099
     12 O1          0.0622   -5.0300   -1.1169 O.3       1 <0>        -0.1928
     13 C11         0.1008   -7.5340   -1.5908 C.3       1 <0>        -0.0731
     14 C12         0.1011   -7.5141    1.5356 C.3       1 <0>         0.1458
     15 O2         -1.2409   -7.9147    1.8193 O.3       1 <0>        -0.3117
     16 C13        -1.4045   -8.9997    2.6212 C.ar      1 <0>         0.1186
     17 C14        -0.2961   -9.6615    3.1293 C.ar      1 <0>        -0.2053
     18 C15        -0.4650  -10.7639    3.9446 C.ar      1 <0>        -0.0700
     19 C16        -1.7373  -11.2079    4.2540 C.ar      1 <0>        -0.1058
     20 C17        -2.8436  -10.5503    3.7486 C.ar      1 <0>        -0.0801
     21 C18        -2.6801   -9.4438    2.9378 C.ar      1 <0>        -0.1509
     22 C19        -1.9187  -12.4110    5.1433 C.3       1 <0>        -0.0670
     23 C20        -1.9981  -11.9590    6.6029 C.3       1 <0>        -0.1487
     24 C21        -0.6539  -11.3582    7.0282 C.3       1 <0>         0.0507
     25 O3          0.3422  -12.3852    7.0047 O.3       1 <0>        -0.3654
     26 C22         0.0396  -13.5008    7.8460 C.3       1 <0>         0.2072
     27 O4         -1.2058  -14.0766    7.4443 O.3       1 <0>        -0.3568
     28 C23        -2.3069  -13.1644    7.4976 C.3       1 <0>         0.0508
     29 C24        -0.0605  -13.0316    9.2988 C.3       1 <0>        -0.1870
     30 C25         1.1320  -14.5319    7.7252 C.2       1 <0>         0.5281
     31 O5          2.2606  -14.2719    8.1064 O.co2     1 <0>        -0.6719
     32 O6          0.8872  -15.6261    7.2464 O.co2     1 <0>        -0.6622
     33 H1          1.0042    1.8801    0.0026 H         1 <0>         0.0747
     34 H2         -0.5455    1.8639   -0.8728 H         1 <0>         0.0690
     35 H3         -0.5286    1.8543    0.9071 H         1 <0>         0.0699
     36 H4         -0.0062   -0.1376   -2.1319 H         1 <0>         0.1303
     37 H5          0.0259   -2.5969   -2.1566 H         1 <0>         0.1306
     38 H6          0.0473   -2.6202    2.1319 H         1 <0>         0.1395
     39 H7          0.0244   -0.1607    2.1343 H         1 <0>         0.1325
     40 H8         -0.9229   -7.8419   -1.8038 H         1 <0>         0.0920
     41 H9          0.6114   -7.2994   -2.5248 H         1 <0>         0.0828
     42 H10         0.6255   -8.3435   -1.0833 H         1 <0>         0.0960
     43 H11         0.6257   -8.3289    1.0365 H         1 <0>         0.0817
     44 H12         0.6119   -7.2696    2.4669 H         1 <0>         0.0826
     45 H13         0.6979   -9.3155    2.8873 H         1 <0>         0.1258
     46 H14         0.3975  -11.2795    4.3404 H         1 <0>         0.1343
     47 H15        -3.8364  -10.8993    3.9914 H         1 <0>         0.1267
     48 H16        -3.5445   -8.9278    2.5468 H         1 <0>         0.1256
     49 H17        -2.8394  -12.9276    4.8723 H         1 <0>         0.0696
     50 H18        -1.0725  -13.0865    5.0177 H         1 <0>         0.0895
     51 H19        -2.7848  -11.2124    6.7116 H         1 <0>         0.0793
     52 H20        -0.3746  -10.5630    6.3370 H         1 <0>         0.0910
     53 H21        -0.7377  -10.9541    8.0371 H         1 <0>         0.0458
     54 H22        -2.4533  -12.8288    8.5242 H         1 <0>         0.0465
     55 H23        -3.2097  -13.6610    7.1421 H         1 <0>         0.0890
     56 H24        -0.8506  -12.2859    9.3862 H         1 <0>         0.0475
     57 H25        -0.2912  -13.8822    9.9402 H         1 <0>         0.0662
     58 H26         0.8890  -12.5926    9.6051 H         1 <0>         0.0775
@<TRIPOS>BOND
     1    1    2 1
     2    1   33 1
     3    1   34 1
     4    1   35 1
     5    2    7 ar
     6    2    3 ar
     7    3    4 ar
     8    3   36 1
     9    4    5 ar
    10    4   37 1
    11    5    6 ar
    12    5    8 1
    13    6    7 ar
    14    6   38 1
    15    7   39 1
    16    8   12 1
    17    8    9 2
    18    9   10 1
    19   10   11 2
    20   10   14 1
    21   11   12 1
    22   11   13 1
    23   13   40 1
    24   13   41 1
    25   13   42 1
    26   14   15 1
    27   14   43 1
    28   14   44 1
    29   15   16 1
    30   16   21 ar
    31   16   17 ar
    32   17   18 ar
    33   17   45 1
    34   18   19 ar
    35   18   46 1
    36   19   20 ar
    37   19   22 1
    38   20   21 ar
    39   20   47 1
    40   21   48 1
    41   22   23 1
    42   22   49 1
    43   22   50 1
    44   23   28 1
    45   23   24 1
    46   23   51 1
    47   24   25 1
    48   24   52 1
    49   24   53 1
    50   25   26 1
    51   26   27 1
    52   26   29 1
    53   26   30 1
    54   27   28 1
    55   28   54 1
    56   28   55 1
    57   29   56 1
    58   29   57 1
    59   29   58 1
    60   30   31 2
    61   30   32 1
@<TRIPOS>MOLECULE
CHEMBL1080361
   55    58     0     0     0
SMALL
USER_CHARGES

@<TRIPOS>ATOM
      1 C1         -4.1978    2.1700    1.6130 C.3       1 <0>        -0.1112
      2 C2         -3.4107    1.9147    0.3260 C.3       1 <0>        -0.1331
      3 C3         -3.0989    0.4448    0.2111 C.ar      1 <0>        -0.0335
      4 C4         -2.3547   -0.1825    1.1941 C.ar      1 <0>        -0.0697
      5 C5         -2.0666   -1.5311    1.0929 C.ar      1 <0>        -0.1293
      6 C6         -2.5209   -2.2566    0.0091 C.ar      1 <0>        -0.0698
      7 C7         -3.2686   -1.6298   -0.9801 C.ar      1 <0>        -0.1503
      8 C8         -3.5611   -0.2754   -0.8723 C.ar      1 <0>        -0.0500
      9 S1         -3.8498   -2.5513   -2.3649 S.3       1 <0>         0.1306
     10 C9         -5.4070   -3.1819   -1.8341 C.2       1 <0>         0.0762
     11 N1         -6.0538   -2.9603   -0.7034 N.2       1 <0>        -0.4844
     12 C10        -7.2275   -3.5177   -0.4578 C.2       1 <0>         0.1280
     13 C11        -7.7845   -4.3545   -1.4186 C.2       1 <0>        -0.1439
     14 S2         -6.5272   -4.2819   -2.6880 S.3       1 <0>         0.0539
     15 C12        -9.0621   -5.0927   -1.3988 C.ar      1 <0>        -0.0334
     16 C13       -10.2433   -4.4397   -1.0374 C.ar      1 <0>        -0.0449
     17 C14       -11.4343   -5.1335   -1.0204 C.ar      1 <0>        -0.1464
     18 C15       -11.4614   -6.4792   -1.3615 C.ar      1 <0>         0.1349
     19 C16       -10.2902   -7.1324   -1.7213 C.ar      1 <0>        -0.2063
     20 C17        -9.0952   -6.4455   -1.7468 C.ar      1 <0>        -0.0606
     21 O1        -12.6381   -7.1592   -1.3428 O.3       1 <0>        -0.3160
     22 C18       -12.5947   -8.5409   -1.7048 C.3       1 <0>         0.0260
     23 C19        -7.9351   -3.2561    0.8166 C.ar      1 <0>        -0.0588
     24 C20        -8.5489   -4.3039    1.5035 C.ar      1 <0>        -0.0536
     25 C21        -9.2065   -4.0566    2.6901 C.ar      1 <0>        -0.1530
     26 C22        -9.2582   -2.7668    3.2013 C.ar      1 <0>         0.1340
     27 C23        -8.6486   -1.7216    2.5205 C.ar      1 <0>        -0.2083
     28 C24        -7.9847   -1.9622    1.3361 C.ar      1 <0>        -0.0412
     29 O2         -9.9076   -2.5267    4.3708 O.3       1 <0>        -0.3181
     30 C25        -9.9222   -1.1768    4.8395 C.3       1 <0>         0.0256
     31 C26        -2.1249    2.6999    0.3595 C.2       1 <0>         0.5021
     32 O3         -1.8623    3.3989    1.3233 O.co2     1 <0>        -0.6907
     33 O4         -1.3471    2.6361   -0.5773 O.co2     1 <0>        -0.6925
     34 H1         -4.4233    3.2331    1.6961 H         1 <0>         0.0556
     35 H2         -5.1278    1.6020    1.5888 H         1 <0>         0.0326
     36 H3         -3.6029    1.8566    2.4709 H         1 <0>         0.0532
     37 H4         -4.0056    2.2281   -0.5319 H         1 <0>         0.0712
     38 H5         -1.9976    0.3826    2.0424 H         1 <0>         0.1272
     39 H6         -1.4853   -2.0177    1.8622 H         1 <0>         0.1247
     40 H7         -2.2949   -3.3097   -0.0697 H         1 <0>         0.1236
     41 H8         -4.1458    0.2139   -1.6371 H         1 <0>         0.1254
     42 H9        -10.2231   -3.3931   -0.7716 H         1 <0>         0.1327
     43 H10       -12.3478   -4.6296   -0.7409 H         1 <0>         0.1352
     44 H11       -10.3160   -8.1793   -1.9855 H         1 <0>         0.1318
     45 H12        -8.1855   -6.9533   -2.0311 H         1 <0>         0.1280
     46 H13       -13.5980   -8.9630   -1.6483 H         1 <0>         0.1002
     47 H14       -12.2163   -8.6382   -2.7224 H         1 <0>         0.0563
     48 H15       -11.9365   -9.0755   -1.0198 H         1 <0>         0.0567
     49 H16        -8.5094   -5.3074    1.1063 H         1 <0>         0.1282
     50 H17        -9.6821   -4.8671    3.2222 H         1 <0>         0.1313
     51 H18        -8.6909   -0.7196    2.9212 H         1 <0>         0.1310
     52 H19        -7.5069   -1.1494    0.8093 H         1 <0>         0.1291
     53 H20        -8.8990   -0.8359    4.9973 H         1 <0>         0.0579
     54 H21       -10.4071   -0.5405    4.0992 H         1 <0>         0.0564
     55 H22       -10.4716   -1.1245    5.7794 H         1 <0>         0.0995
@<TRIPOS>BOND
     1    1    2 1
     2    1   34 1
     3    1   35 1
     4    1   36 1
     5    2    3 1
     6    2   31 1
     7    2   37 1
     8    3    8 ar
     9    3    4 ar
    10    4    5 ar
    11    4   38 1
    12    5    6 ar
    13    5   39 1
    14    6    7 ar
    15    6   40 1
    16    7    8 ar
    17    7    9 1
    18    8   41 1
    19    9   10 1
    20   10   14 1
    21   10   11 2
    22   11   12 1
    23   12   13 2
    24   12   23 1
    25   13   14 1
    26   13   15 1
    27   15   20 ar
    28   15   16 ar
    29   16   17 ar
    30   16   42 1
    31   17   18 ar
    32   17   43 1
    33   18   19 ar
    34   18   21 1
    35   19   20 ar
    36   19   44 1
    37   20   45 1
    38   21   22 1
    39   22   46 1
    40   22   47 1
    41   22   48 1
    42   23   28 ar
    43   23   24 ar
    44   24   25 ar
    45   24   49 1
    46   25   26 ar
    47   25   50 1
    48   26   27 ar
    49   26   29 1
    50   27   28 ar
    51   27   51 1
    52   28   52 1
    53   29   30 1
    54   30   53 1
    55   30   54 1
    56   30   55 1
    57   31   32 2
    58   31   33 1
@<TRIPOS>MOLECULE
CHEMBL1080361__1
   55    58     0     0     0
SMALL
USER_CHARGES

@<TRIPOS>ATOM
      1 C1          1.2581    2.5635    3.5302 C.3       1 <0>        -0.1177
      2 C2          1.6437    1.8823    2.2156 C.3       1 <0>        -0.1332
      3 C3          1.4654    0.3920    2.3509 C.ar      1 <0>        -0.0349
      4 C4          0.2179   -0.1311    2.6401 C.ar      1 <0>        -0.0366
      5 C5          0.0497   -1.4980    2.7647 C.ar      1 <0>        -0.1364
      6 C6          1.1276   -2.3458    2.6011 C.ar      1 <0>        -0.0674
      7 C7          2.3820   -1.8239    2.3106 C.ar      1 <0>        -0.1551
      8 C8          2.5462   -0.4500    2.1805 C.ar      1 <0>        -0.0575
      9 S1          3.7601   -2.9017    2.1017 S.3       1 <0>         0.1274
     10 C9          4.4607   -3.0153    3.7144 C.2       1 <0>         0.0777
     11 N1          4.0261   -2.4975    4.8497 N.2       1 <0>        -0.4843
     12 C10         4.6773   -2.6790    5.9862 C.2       1 <0>         0.1278
     13 C11         5.8452   -3.4338    5.9745 C.2       1 <0>        -0.1444
     14 S2          5.9403   -3.8674    4.2424 S.3       1 <0>         0.0522
     15 C12         6.7513   -3.7850    7.0850 C.ar      1 <0>        -0.0332
     16 C13         6.2328   -4.2935    8.2786 C.ar      1 <0>        -0.0454
     17 C14         7.0832   -4.6202    9.3131 C.ar      1 <0>        -0.1468
     18 C15         8.4532   -4.4445    9.1705 C.ar      1 <0>         0.1347
     19 C16         8.9731   -3.9394    7.9861 C.ar      1 <0>        -0.2059
     20 C17         8.1310   -3.6154    6.9439 C.ar      1 <0>        -0.0603
     21 O1          9.2877   -4.7675   10.1934 O.3       1 <0>        -0.3161
     22 C18        10.6857   -4.5619    9.9798 C.3       1 <0>         0.0259
     23 C19         4.1727   -2.0892    7.2475 C.ar      1 <0>        -0.0578
     24 C20         5.0567   -1.4753    8.1352 C.ar      1 <0>        -0.0528
     25 C21         4.5832   -0.9268    9.3083 C.ar      1 <0>        -0.1518
     26 C22         3.2285   -0.9850    9.6066 C.ar      1 <0>         0.1339
     27 C23         2.3458   -1.5951    8.7257 C.ar      1 <0>        -0.2092
     28 C24         2.8113   -2.1411    7.5481 C.ar      1 <0>        -0.0419
     29 O2          2.7655   -0.4437   10.7641 O.3       1 <0>        -0.3176
     30 C25         1.3607   -0.5387   11.0082 C.3       1 <0>         0.0262
     31 C26         0.7616    2.3951    1.1065 C.2       1 <0>         0.5011
     32 O3          0.7557    3.5830    0.8321 O.co2     1 <0>        -0.6955
     33 O4          0.0538    1.6220    0.4837 O.co2     1 <0>        -0.6868
     34 H1          1.8961    2.1926    4.3324 H         1 <0>         0.0405
     35 H2          1.3870    3.6414    3.4323 H         1 <0>         0.0610
     36 H3          0.2165    2.3418    3.7624 H         1 <0>         0.0472
     37 H4          2.6853    2.1040    1.9833 H         1 <0>         0.0714
     38 H5         -0.6266    0.5296    2.7692 H         1 <0>         0.1240
     39 H6         -0.9257   -1.9030    2.9905 H         1 <0>         0.1227
     40 H7          0.9956   -3.4132    2.6993 H         1 <0>         0.1220
     41 H8          3.5190   -0.0412    1.9503 H         1 <0>         0.1217
     42 H9          5.1673   -4.4302    8.3906 H         1 <0>         0.1323
     43 H10         6.6832   -5.0130   10.2363 H         1 <0>         0.1349
     44 H11        10.0393   -3.8042    7.8798 H         1 <0>         0.1320
     45 H12         8.5367   -3.2269    6.0215 H         1 <0>         0.1283
     46 H13        11.2371   -4.8591   10.8718 H         1 <0>         0.1002
     47 H14        11.0158   -5.1620    9.1319 H         1 <0>         0.0563
     48 H15        10.8704   -3.5078    9.7728 H         1 <0>         0.0570
     49 H16         6.1107   -1.4300    7.9039 H         1 <0>         0.1286
     50 H17         5.2670   -0.4517    9.9961 H         1 <0>         0.1318
     51 H18         1.2927   -1.6385    8.9610 H         1 <0>         0.1299
     52 H19         2.1235   -2.6116    6.8612 H         1 <0>         0.1280
     53 H20         0.8181   -0.0318   10.2102 H         1 <0>         0.0575
     54 H21         1.0671   -1.5880   11.0376 H         1 <0>         0.0554
     55 H22         1.1253   -0.0687   11.9631 H         1 <0>         0.0993
@<TRIPOS>BOND
     1    1    2 1
     2    1   34 1
     3    1   35 1
     4    1   36 1
     5    2    3 1
     6    2   31 1
     7    2   37 1
     8    3    8 ar
     9    3    4 ar
    10    4    5 ar
    11    4   38 1
    12    5    6 ar
    13    5   39 1
    14    6    7 ar
    15    6   40 1
    16    7    8 ar
    17    7    9 1
    18    8   41 1
    19    9   10 1
    20   10   14 1
    21   10   11 2
    22   11   12 1
    23   12   13 2
    24   12   23 1
    25   13   14 1
    26   13   15 1
    27   15   20 ar
    28   15   16 ar
    29   16   17 ar
    30   16   42 1
    31   17   18 ar
    32   17   43 1
    33   18   19 ar
    34   18   21 1
    35   19   20 ar
    36   19   44 1
    37   20   45 1
    38   21   22 1
    39   22   46 1
    40   22   47 1
    41   22   48 1
    42   23   28 ar
    43   23   24 ar
    44   24   25 ar
    45   24   49 1
    46   25   26 ar
    47   25   50 1
    48   26   27 ar
    49   26   29 1
    50   27   28 ar
    51   27   51 1
    52   28   52 1
    53   29   30 1
    54   30   53 1
    55   30   54 1
    56   30   55 1
    57   31   32 2
    58   31   33 1
@<TRIPOS>MOLECULE
CHEMBL513594
   64    67     0     0     0
SMALL
USER_CHARGES

@<TRIPOS>ATOM
      1 C1         -2.1215    0.4043    0.2317 C.3       1 <0>        -0.0955
      2 C2         -1.8084   -1.0695    0.2628 C.ar      1 <0>        -0.1426
      3 C3         -1.5256   -1.7412   -0.9110 C.ar      1 <0>        -0.0738
      4 C4         -1.2387   -3.0932   -0.8832 C.ar      1 <0>        -0.1662
      5 C5         -1.2335   -3.7767    0.3189 C.ar      1 <0>        -0.0784
      6 C6         -1.5150   -3.1097    1.4952 C.ar      1 <0>        -0.1562
      7 C7         -1.7981   -1.7516    1.4705 C.ar      1 <0>         0.1803
      8 O1         -2.0700   -1.0919    2.6272 O.3       1 <0>        -0.2983
      9 C8         -1.9135   -1.8244    3.8441 C.3       1 <0>         0.0292
     10 C9         -0.4702   -2.3190    3.9596 C.3       1 <0>        -0.1734
     11 C10        -2.2379   -0.9159    5.0316 C.3       1 <0>        -0.1148
     12 C11        -2.8505   -3.0047    3.8439 C.2       1 <0>         0.4816
     13 O2         -3.5843   -3.2004    2.8901 O.co2     1 <0>        -0.6684
     14 O3         -2.8747   -3.7639    4.7976 O.co2     1 <0>        -0.6858
     15 C12        -0.9317   -3.8236   -2.1651 C.3       1 <0>         0.1735
     16 N1          0.5095   -3.7723   -2.4232 N.am      1 <0>        -0.7077
     17 C13         1.0188   -4.3631   -3.5223 C.2       1 <0>         0.6008
     18 O4          0.2822   -4.9386   -4.2996 O.2       1 <0>        -0.5364
     19 C14         2.4722   -4.3114   -3.7826 C.2       1 <0>        -0.0115
     20 C15         3.1443   -4.8760   -4.8881 C.2       1 <0>        -0.1544
     21 C16         4.4655   -4.5761   -4.7029 C.2       1 <0>         0.0431
     22 N2          4.5498   -3.8687   -3.5397 N.pl3     1 <0>        -0.2761
     23 N3          3.3803   -3.7245   -3.0281 N.2       1 <0>        -0.2476
     24 C17         5.7903   -3.3456   -2.9619 C.3       1 <0>         0.0758
     25 C18         5.5874   -4.9479   -5.5922 C.ar      1 <0>        -0.0135
     26 C19         5.4434   -6.0041   -6.4936 C.ar      1 <0>        -0.0902
     27 C20         6.4883   -6.3497   -7.3213 C.ar      1 <0>        -0.1026
     28 C21         7.6902   -5.6448   -7.2591 C.ar      1 <0>        -0.0423
     29 C22         7.8347   -4.5895   -6.3588 C.ar      1 <0>        -0.1037
     30 C23         6.7887   -4.2390   -5.5346 C.ar      1 <0>        -0.1223
     31 C24         8.8152   -6.0180   -8.1504 C.ar      1 <0>        -0.0467
     32 C25         8.6721   -7.0688   -9.0551 C.ar      1 <0>        -0.1097
     33 C26         9.7223   -7.4113   -9.8824 C.ar      1 <0>        -0.1174
     34 C27        10.9152   -6.7143   -9.8148 C.ar      1 <0>        -0.1188
     35 C28        11.0631   -5.6709   -8.9187 C.ar      1 <0>        -0.1180
     36 C29        10.0177   -5.3155   -8.0908 C.ar      1 <0>        -0.1106
     37 H1         -1.1984    0.9742    0.3369 H         1 <0>         0.0580
     38 H2         -2.5971    0.6548   -0.7166 H         1 <0>         0.0568
     39 H3         -2.7957    0.6499    1.0522 H         1 <0>         0.0672
     40 H4         -1.5291   -1.2096   -1.8511 H         1 <0>         0.1187
     41 H5         -1.0094   -4.8331    0.3380 H         1 <0>         0.1153
     42 H6         -1.5108   -3.6440    2.4338 H         1 <0>         0.1408
     43 H7          0.1872   -1.4754    4.1699 H         1 <0>         0.0503
     44 H8         -0.3989   -3.0458    4.7688 H         1 <0>         0.0750
     45 H9         -0.1708   -2.7882    3.0224 H         1 <0>         0.0673
     46 H10        -3.2362   -0.4966    4.9063 H         1 <0>         0.0568
     47 H11        -2.2006   -1.4960    5.9537 H         1 <0>         0.0782
     48 H12        -1.5080   -0.1079    5.0809 H         1 <0>         0.0502
     49 H13        -1.2481   -4.8628   -2.0760 H         1 <0>         0.0744
     50 H14        -1.4654   -3.3507   -2.9895 H         1 <0>         0.0736
     51 H15         1.0973   -3.3131   -1.8030 H         1 <0>         0.4077
     52 H16         2.7075   -5.4286   -5.7068 H         1 <0>         0.1656
     53 H17         5.9762   -2.3431   -3.3473 H         1 <0>         0.0886
     54 H18         5.6972   -3.3062   -1.8766 H         1 <0>         0.1017
     55 H19         6.6204   -3.9984   -3.2319 H         1 <0>         0.1011
     56 H20         4.5129   -6.5502   -6.5416 H         1 <0>         0.1345
     57 H21         6.3772   -7.1671   -8.0185 H         1 <0>         0.1319
     58 H22         8.7657   -4.0441   -6.3112 H         1 <0>         0.1298
     59 H23         6.8992   -3.4190   -4.8405 H         1 <0>         0.1311
     60 H24         7.7414   -7.6141   -9.1082 H         1 <0>         0.1268
     61 H25         9.6126   -8.2252  -10.5837 H         1 <0>         0.1248
     62 H26        11.7345   -6.9860  -10.4639 H         1 <0>         0.1226
     63 H27        11.9968   -5.1304   -8.8700 H         1 <0>         0.1243
     64 H28        10.1325   -4.4976   -7.3949 H         1 <0>         0.1255
@<TRIPOS>BOND
     1    1    2 1
     2    1   37 1
     3    1   38 1
     4    1   39 1
     5    2    7 ar
     6    2    3 ar
     7    3    4 ar
     8    3   40 1
     9    4    5 ar
    10    4   15 1
    11    5    6 ar
    12    5   41 1
    13    6    7 ar
    14    6   42 1
    15    7    8 1
    16    8    9 1
    17    9   10 1
    18    9   11 1
    19    9   12 1
    20   10   43 1
    21   10   44 1
    22   10   45 1
    23   11   46 1
    24   11   47 1
    25   11   48 1
    26   12   13 2
    27   12   14 1
    28   15   16 1
    29   15   49 1
    30   15   50 1
    31   16   17 am
    32   16   51 1
    33   17   18 2
    34   17   19 1
    35   19   23 2
    36   19   20 1
    37   20   21 2
    38   20   52 1
    39   21   22 1
    40   21   25 1
    41   22   23 1
    42   22   24 1
    43   24   53 1
    44   24   54 1
    45   24   55 1
    46   25   30 ar
    47   25   26 ar
    48   26   27 ar
    49   26   56 1
    50   27   28 ar
    51   27   57 1
    52   28   29 ar
    53   28   31 1
    54   29   30 ar
    55   29   58 1
    56   30   59 1
    57   31   36 ar
    58   31   32 ar
    59   32   33 ar
    60   32   60 1
    61   33   34 ar
    62   33   61 1
    63   34   35 ar
    64   34   62 1
    65   35   36 ar
    66   35   63 1
    67   36   64 1
@<TRIPOS>MOLECULE
CHEMBL481550
   64    66     0     0     0
SMALL
USER_CHARGES

@<TRIPOS>ATOM
      1 C1          0.7440    0.7751   -0.9509 C.3       1 <0>        -0.1192
      2 C2          0.5740   -0.7223   -0.9513 C.ar      1 <0>        -0.0676
      3 C3          0.2897   -1.3828   -2.1333 C.ar      1 <0>        -0.1223
      4 C4          0.1324   -2.7534   -2.1405 C.ar      1 <0>        -0.0860
      5 C5          0.2611   -3.4738   -0.9520 C.ar      1 <0>        -0.0227
      6 C6          0.5484   -2.8013    0.2368 C.ar      1 <0>        -0.0661
      7 C7          0.7084   -1.4310    0.2293 C.ar      1 <0>        -0.1223
      8 C8          0.0933   -4.9425   -0.9522 C.2       1 <0>         0.2275
      9 N1          0.1850   -5.7243    0.0976 N.2       1 <0>        -0.4626
     10 C9         -0.0266   -6.9908   -0.2909 C.2       1 <0>        -0.0032
     11 C10        -0.2542   -6.9826   -1.6170 C.2       1 <0>        -0.0444
     12 O1         -0.1844   -5.7006   -2.0270 O.3       1 <0>        -0.1959
     13 C11        -0.5399   -8.1831   -2.4820 C.3       1 <0>        -0.0688
     14 C12        -0.0114   -8.2066    0.5994 C.3       1 <0>        -0.0379
     15 C13        -1.4190   -8.4573    1.1442 C.3       1 <0>        -0.1130
     16 C14        -1.4037   -9.6916    2.0482 C.3       1 <0>        -0.1166
     17 C15        -2.8113   -9.9423    2.5930 C.3       1 <0>        -0.1151
     18 C16        -2.7959  -11.1766    3.4969 C.3       1 <0>        -0.1148
     19 C17        -4.2035  -11.4273    4.0417 C.3       1 <0>         0.0732
     20 O2         -4.1892  -12.5801    4.8860 O.3       1 <0>        -0.2445
     21 N2         -5.4502  -12.9006    5.4446 N.2       1 <0>        -0.3405
     22 C18        -5.5697  -13.9232    6.2273 C.2       1 <0>         0.1869
     23 C19        -6.9335  -14.3518    6.7041 C.3       1 <0>        -0.0402
     24 C20        -7.5250  -15.3605    5.7174 C.3       1 <0>        -0.1749
     25 C21        -8.8888  -15.7891    6.1942 C.2       1 <0>         0.4935
     26 O3         -9.3454  -15.3304    7.2275 O.co2     1 <0>        -0.6953
     27 O4         -9.5357  -16.5947    5.5467 O.co2     1 <0>        -0.7021
     28 C22        -4.3700  -14.6706    6.6538 C.ar      1 <0>        -0.0903
     29 C23        -3.1760  -13.9936    6.9089 C.ar      1 <0>        -0.0787
     30 C24        -2.0587  -14.6982    7.3070 C.ar      1 <0>        -0.1308
     31 C25        -2.1195  -16.0726    7.4531 C.ar      1 <0>        -0.1119
     32 C26        -3.2996  -16.7499    7.2020 C.ar      1 <0>        -0.1267
     33 C27        -4.4260  -16.0569    6.8093 C.ar      1 <0>        -0.0875
     34 H1          1.7898    1.0220   -1.1337 H         1 <0>         0.0745
     35 H2          0.1253    1.2112   -1.7351 H         1 <0>         0.0692
     36 H3          0.4399    1.1750    0.0164 H         1 <0>         0.0699
     37 H4          0.1904   -0.8243   -3.0523 H         1 <0>         0.1302
     38 H5         -0.0902   -3.2678   -3.0637 H         1 <0>         0.1300
     39 H6          0.6488   -3.3529    1.1599 H         1 <0>         0.1387
     40 H7          0.9347   -0.9099    1.1478 H         1 <0>         0.1321
     41 H8         -1.6152   -8.3580   -2.5171 H         1 <0>         0.0864
     42 H9         -0.1683   -8.0010   -3.4904 H         1 <0>         0.0783
     43 H10        -0.0428   -9.0586   -2.0641 H         1 <0>         0.0942
     44 H11         0.3156   -9.0734    0.0252 H         1 <0>         0.0806
     45 H12         0.6752   -8.0405    1.4295 H         1 <0>         0.0821
     46 H13        -1.7461   -7.5905    1.7185 H         1 <0>         0.0661
     47 H14        -2.1057   -8.6233    0.3142 H         1 <0>         0.0627
     48 H15        -1.0766  -10.5584    1.4739 H         1 <0>         0.0648
     49 H16        -0.7170   -9.5256    2.8783 H         1 <0>         0.0650
     50 H17        -3.1383   -9.0755    3.1672 H         1 <0>         0.0647
     51 H18        -3.4979  -10.1083    1.7629 H         1 <0>         0.0651
     52 H19        -2.4689  -12.0434    2.9227 H         1 <0>         0.0697
     53 H20        -2.1093  -11.0106    4.3270 H         1 <0>         0.0687
     54 H21        -4.5305  -10.5605    4.6159 H         1 <0>         0.0515
     55 H22        -4.8901  -11.5933    3.2116 H         1 <0>         0.0529
     56 H23        -6.8460  -14.8140    7.6874 H         1 <0>         0.0888
     57 H24        -7.5861  -13.4812    6.7687 H         1 <0>         0.0869
     58 H25        -7.6126  -14.8984    4.7341 H         1 <0>         0.0620
     59 H26        -6.8725  -16.2312    5.6529 H         1 <0>         0.0607
     60 H27        -3.1270  -12.9208    6.7945 H         1 <0>         0.1253
     61 H28        -1.1344  -14.1757    7.5046 H         1 <0>         0.1204
     62 H29        -1.2417  -16.6195    7.7643 H         1 <0>         0.1197
     63 H30        -3.3401  -17.8229    7.3177 H         1 <0>         0.1246
     64 H31        -5.3479  -16.5862    6.6182 H         1 <0>         0.1348
@<TRIPOS>BOND
     1    1    2 1
     2    1   34 1
     3    1   35 1
     4    1   36 1
     5    2    7 ar
     6    2    3 ar
     7    3    4 ar
     8    3   37 1
     9    4    5 ar
    10    4   38 1
    11    5    6 ar
    12    5    8 1
    13    6    7 ar
    14    6   39 1
    15    7   40 1
    16    8   12 1
    17    8    9 2
    18    9   10 1
    19   10   11 2
    20   10   14 1
    21   11   12 1
    22   11   13 1
    23   13   41 1
    24   13   42 1
    25   13   43 1
    26   14   15 1
    27   14   44 1
    28   14   45 1
    29   15   16 1
    30   15   46 1
    31   15   47 1
    32   16   17 1
    33   16   48 1
    34   16   49 1
    35   17   18 1
    36   17   50 1
    37   17   51 1
    38   18   19 1
    39   18   52 1
    40   18   53 1
    41   19   20 1
    42   19   54 1
    43   19   55 1
    44   20   21 1
    45   21   22 2
    46   22   23 1
    47   22   28 1
    48   23   24 1
    49   23   56 1
    50   23   57 1
    51   24   25 1
    52   24   58 1
    53   24   59 1
    54   25   26 2
    55   25   27 1
    56   28   33 ar
    57   28   29 ar
    58   29   30 ar
    59   29   60 1
    60   30   31 ar
    61   30   61 1
    62   31   32 ar
    63   31   62 1
    64   32   33 ar
    65   32   63 1
    66   33   64 1
@<TRIPOS>MOLECULE
CHEMBL472571
   61    64     0     0     0
SMALL
USER_CHARGES

@<TRIPOS>ATOM
      1 C1         -2.2286    0.3158    0.1717 C.3       1 <0>        -0.0955
      2 C2         -1.8969   -1.1541    0.1919 C.ar      1 <0>        -0.1426
      3 C3         -1.5944   -1.8109   -0.9854 C.ar      1 <0>        -0.0739
      4 C4         -1.2905   -3.1594   -0.9676 C.ar      1 <0>        -0.1661
      5 C5         -1.2881   -3.8543    0.2280 C.ar      1 <0>        -0.0785
      6 C6         -1.5894   -3.2022    1.4078 C.ar      1 <0>        -0.1562
      7 C7         -1.8896   -1.8475    1.3932 C.ar      1 <0>         0.1803
      8 O1         -2.1810   -1.2024    2.5533 O.3       1 <0>        -0.2983
      9 C8         -2.0269   -1.9446    3.7647 C.3       1 <0>         0.0291
     10 C9         -0.5786   -2.4218    3.8897 C.3       1 <0>        -0.1733
     11 C10        -2.3745   -1.0518    4.9576 C.3       1 <0>        -0.1147
     12 C11        -2.9486   -3.1367    3.7441 C.2       1 <0>         0.4816
     13 O2         -3.6705   -3.3326    2.7813 O.co2     1 <0>        -0.6683
     14 O3         -2.9723   -3.9053    4.6903 O.co2     1 <0>        -0.6858
     15 C12        -0.9618   -3.8735   -2.2533 C.3       1 <0>         0.1735
     16 N1          0.4810   -3.8015   -2.4968 N.am      1 <0>        -0.7078
     17 C13         1.0083   -4.3752   -3.5965 C.2       1 <0>         0.6008
     18 O4          0.2866   -4.9525   -4.3863 O.2       1 <0>        -0.5364
     19 C14         2.4633   -4.3026   -3.8421 C.2       1 <0>        -0.0113
     20 C15         3.1533   -4.8480   -4.9463 C.2       1 <0>        -0.1554
     21 C16         4.4688   -4.5339   -4.7449 C.2       1 <0>         0.0444
     22 N2          4.5328   -3.8370   -3.5741 N.pl3     1 <0>        -0.2765
     23 N3          3.3566   -3.7115   -3.0734 N.2       1 <0>        -0.2483
     24 C17         5.7611   -3.3046   -2.9789 C.3       1 <0>         0.0761
     25 C18         5.6038   -4.8825   -5.6270 C.ar      1 <0>        -0.0183
     26 C19         6.7952   -4.1588   -5.5511 C.ar      1 <0>        -0.1191
     27 C20         7.8517   -4.4843   -6.3723 C.ar      1 <0>        -0.1105
     28 C21         7.7315   -5.5364   -7.2798 C.ar      1 <0>        -0.0060
     29 C22         6.5414   -6.2596   -7.3565 C.ar      1 <0>        -0.1015
     30 C23         5.4863   -5.9393   -6.5316 C.ar      1 <0>        -0.0881
     31 C24         8.8697   -5.8861   -8.1643 C.2       1 <0>        -0.1500
     32 C25         8.9127   -6.9510   -9.1729 C.2       1 <0>        -0.2043
     33 C26        10.1377   -6.8927   -9.7218 C.2       1 <0>        -0.0325
     34 O5         10.8295   -5.9002   -9.1420 O.3       1 <0>        -0.1801
     35 C27        10.0861   -5.2829   -8.2124 C.2       1 <0>        -0.0173
     36 H1         -1.3139    0.8964    0.2913 H         1 <0>         0.0580
     37 H2         -2.6981    0.5693   -0.7788 H         1 <0>         0.0569
     38 H3         -2.9137    0.5450    0.9879 H         1 <0>         0.0672
     39 H4         -1.5956   -1.2704   -1.9204 H         1 <0>         0.1187
     40 H5         -1.0507   -4.9078    0.2393 H         1 <0>         0.1153
     41 H6         -1.5874   -3.7453    2.3413 H         1 <0>         0.1408
     42 H7          0.0660   -1.5718    4.1135 H         1 <0>         0.0503
     43 H8         -0.5056   -3.1546    4.6934 H         1 <0>         0.0750
     44 H9         -0.2644   -2.8790    2.9515 H         1 <0>         0.0673
     45 H10        -3.3768   -0.6441    4.8264 H         1 <0>         0.0568
     46 H11        -2.3386   -1.6401    5.8744 H         1 <0>         0.0782
     47 H12        -1.6555   -0.2350    5.0217 H         1 <0>         0.0502
     48 H13        -1.2658   -4.9174   -2.1770 H         1 <0>         0.0744
     49 H14        -1.4936   -3.3995   -3.0783 H         1 <0>         0.0736
     50 H15         1.0568   -3.3408   -1.8666 H         1 <0>         0.4077
     51 H16         2.7314   -5.3978   -5.7746 H         1 <0>         0.1654
     52 H17         5.9404   -2.2976   -3.3555 H         1 <0>         0.0884
     53 H18         5.6555   -3.2736   -1.8945 H         1 <0>         0.1015
     54 H19         6.6011   -3.9466   -3.2440 H         1 <0>         0.1009
     55 H20         6.8882   -3.3435   -4.8489 H         1 <0>         0.1310
     56 H21         8.7734   -3.9244   -6.3137 H         1 <0>         0.1260
     57 H22         6.4488   -7.0738   -8.0600 H         1 <0>         0.1295
     58 H23         4.5664   -6.5022   -6.5880 H         1 <0>         0.1341
     59 H24         8.1207   -7.6413   -9.4232 H         1 <0>         0.1536
     60 H25        10.5061   -7.5406  -10.5035 H         1 <0>         0.2049
     61 H26        10.4016   -4.4487   -7.6033 H         1 <0>         0.2054
@<TRIPOS>BOND
     1    1    2 1
     2    1   36 1
     3    1   37 1
     4    1   38 1
     5    2    7 ar
     6    2    3 ar
     7    3    4 ar
     8    3   39 1
     9    4    5 ar
    10    4   15 1
    11    5    6 ar
    12    5   40 1
    13    6    7 ar
    14    6   41 1
    15    7    8 1
    16    8    9 1
    17    9   10 1
    18    9   11 1
    19    9   12 1
    20   10   42 1
    21   10   43 1
    22   10   44 1
    23   11   45 1
    24   11   46 1
    25   11   47 1
    26   12   13 2
    27   12   14 1
    28   15   16 1
    29   15   48 1
    30   15   49 1
    31   16   17 am
    32   16   50 1
    33   17   18 2
    34   17   19 1
    35   19   23 2
    36   19   20 1
    37   20   21 2
    38   20   51 1
    39   21   22 1
    40   21   25 1
    41   22   23 1
    42   22   24 1
    43   24   52 1
    44   24   53 1
    45   24   54 1
    46   25   30 ar
    47   25   26 ar
    48   26   27 ar
    49   26   55 1
    50   27   28 ar
    51   27   56 1
    52   28   29 ar
    53   28   31 1
    54   29   30 ar
    55   29   57 1
    56   30   58 1
    57   31   35 2
    58   31   32 1
    59   32   33 2
    60   32   59 1
    61   33   34 1
    62   33   60 1
    63   34   35 1
    64   35   61 1
@<TRIPOS>MOLECULE
CHEMBL481549
   58    60     0     0     0
SMALL
USER_CHARGES

@<TRIPOS>ATOM
      1 C1         -0.0184    1.5028    0.0103 C.3       1 <0>        -0.1185
      2 C2          0.0021   -0.0041    0.0020 C.ar      1 <0>        -0.0690
      3 C3          0.0057   -0.6862   -1.2017 C.ar      1 <0>        -0.1229
      4 C4          0.0239   -2.0656   -1.2163 C.ar      1 <0>        -0.0867
      5 C5          0.0392   -2.7730   -0.0132 C.ar      1 <0>        -0.0207
      6 C6          0.0359   -2.0787    1.1975 C.ar      1 <0>        -0.0660
      7 C7          0.0229   -0.6992    1.1981 C.ar      1 <0>        -0.1218
      8 C8          0.0582   -4.2511   -0.0214 C.2       1 <0>         0.2250
      9 N1          0.0684   -5.0231    1.0397 N.2       1 <0>        -0.4604
     10 C9          0.0849   -6.3032    0.6386 C.2       1 <0>        -0.0002
     11 C10         0.0847   -6.3137   -0.7068 C.2       1 <0>        -0.0445
     12 O1          0.0622   -5.0300   -1.1169 O.3       1 <0>        -0.1966
     13 C11         0.1008   -7.5340   -1.5908 C.3       1 <0>        -0.0686
     14 C12         0.1011   -7.5141    1.5356 C.3       1 <0>        -0.0386
     15 C13        -1.3358   -7.9431    1.8394 C.3       1 <0>        -0.1050
     16 C14        -1.3193   -9.1724    2.7500 C.3       1 <0>        -0.1187
     17 C15        -2.7562   -9.6014    3.0538 C.3       1 <0>         0.0773
     18 O2         -2.7408  -10.7496    3.9043 O.3       1 <0>        -0.2283
     19 N2         -4.0280  -11.2296    4.2474 N.2       1 <0>        -0.3517
     20 C16        -4.1493  -12.2649    5.0129 C.2       1 <0>         0.1796
     21 C17        -2.9207  -12.9604    5.5399 C.3       1 <0>        -0.0873
     22 C18        -2.5161  -12.3374    6.8774 C.3       1 <0>        -0.1693
     23 C19        -1.2875  -13.0329    7.4044 C.2       1 <0>         0.4936
     24 O3         -0.7823  -13.9427    6.7691 O.co2     1 <0>        -0.6968
     25 O4         -0.7987  -12.6859    8.4661 O.co2     1 <0>        -0.7038
     26 C20        -5.4916  -12.7653    5.3706 C.ar      1 <0>        -0.0424
     27 C21        -5.6262  -13.8792    6.2014 C.ar      1 <0>        -0.0838
     28 C22        -6.8833  -14.3416    6.5316 C.ar      1 <0>        -0.1240
     29 C23        -8.0091  -13.7043    6.0410 C.ar      1 <0>        -0.1096
     30 C24        -7.8829  -12.5999    5.2172 C.ar      1 <0>        -0.1310
     31 C25        -6.6319  -12.1233    4.8841 C.ar      1 <0>        -0.0842
     32 H1          1.0042    1.8801    0.0026 H         1 <0>         0.0741
     33 H2         -0.5455    1.8639   -0.8728 H         1 <0>         0.0686
     34 H3         -0.5286    1.8543    0.9071 H         1 <0>         0.0696
     35 H4         -0.0062   -0.1376   -2.1319 H         1 <0>         0.1295
     36 H5          0.0259   -2.5969   -2.1566 H         1 <0>         0.1298
     37 H6          0.0473   -2.6202    2.1319 H         1 <0>         0.1395
     38 H7          0.0244   -0.1607    2.1343 H         1 <0>         0.1320
     39 H8         -0.9229   -7.8419   -1.8038 H         1 <0>         0.0858
     40 H9          0.6114   -7.2994   -2.5248 H         1 <0>         0.0778
     41 H10         0.6255   -8.3435   -1.0833 H         1 <0>         0.0955
     42 H11         0.6257   -8.3289    1.0365 H         1 <0>         0.0836
     43 H12         0.6119   -7.2696    2.4669 H         1 <0>         0.0862
     44 H13        -1.8604   -7.1283    2.3384 H         1 <0>         0.0682
     45 H14        -1.8466   -8.1876    0.9080 H         1 <0>         0.0639
     46 H15        -0.7947   -9.9872    2.2510 H         1 <0>         0.0744
     47 H16        -0.8085   -8.9279    3.6813 H         1 <0>         0.0767
     48 H17        -3.2808   -8.7866    3.5528 H         1 <0>         0.0514
     49 H18        -3.2670   -9.8459    2.1225 H         1 <0>         0.0501
     50 H19        -3.1358  -14.0194    5.6827 H         1 <0>         0.0797
     51 H20        -2.1052  -12.8484    4.8254 H         1 <0>         0.0842
     52 H21        -2.3010  -11.2784    6.7346 H         1 <0>         0.0578
     53 H22        -3.3316  -12.4493    7.5919 H         1 <0>         0.0581
     54 H23        -4.7481  -14.3780    6.5844 H         1 <0>         0.1377
     55 H24        -6.9888  -15.2031    7.1742 H         1 <0>         0.1272
     56 H25        -8.9909  -14.0708    6.3020 H         1 <0>         0.1214
     57 H26        -8.7658  -12.1074    4.8374 H         1 <0>         0.1225
     58 H27        -6.5348  -11.2582    4.2449 H         1 <0>         0.1296
@<TRIPOS>BOND
     1    1    2 1
     2    1   32 1
     3    1   33 1
     4    1   34 1
     5    2    7 ar
     6    2    3 ar
     7    3    4 ar
     8    3   35 1
     9    4    5 ar
    10    4   36 1
    11    5    6 ar
    12    5    8 1
    13    6    7 ar
    14    6   37 1
    15    7   38 1
    16    8   12 1
    17    8    9 2
    18    9   10 1
    19   10   11 2
    20   10   14 1
    21   11   12 1
    22   11   13 1
    23   13   39 1
    24   13   40 1
    25   13   41 1
    26   14   15 1
    27   14   42 1
    28   14   43 1
    29   15   16 1
    30   15   44 1
    31   15   45 1
    32   16   17 1
    33   16   46 1
    34   16   47 1
    35   17   18 1
    36   17   48 1
    37   17   49 1
    38   18   19 1
    39   19   20 2
    40   20   21 1
    41   20   26 1
    42   21   22 1
    43   21   50 1
    44   21   51 1
    45   22   23 1
    46   22   52 1
    47   22   53 1
    48   23   24 2
    49   23   25 1
    50   26   31 ar
    51   26   27 ar
    52   27   28 ar
    53   27   54 1
    54   28   29 ar
    55   28   55 1
    56   29   30 ar
    57   29   56 1
    58   30   31 ar
    59   30   57 1
    60   31   58 1
@<TRIPOS>MOLECULE
CHEMBL270801
   63    65     0     0     0
SMALL
USER_CHARGES

@<TRIPOS>ATOM
      1 C1         -0.0187    1.5258    0.0104 C.3       1 <0>        -0.1448
      2 C2          0.0021   -0.0041    0.0020 C.3       1 <0>        -0.1000
      3 C3          0.7182   -0.4975   -1.2568 C.3       1 <0>        -0.1552
      4 C4          0.6303   -2.0233   -1.3286 C.3       1 <0>        -0.0576
      5 C5          1.2271   -2.5002   -2.6276 C.ar      1 <0>        -0.0957
      6 C6          0.4280   -2.6268   -3.7491 C.ar      1 <0>        -0.0726
      7 C7          0.9725   -3.0641   -4.9407 C.ar      1 <0>        -0.2129
      8 C8          2.3226   -3.3762   -5.0120 C.ar      1 <0>         0.1274
      9 C9          3.1221   -3.2481   -3.8858 C.ar      1 <0>        -0.1418
     10 C10         2.5737   -2.8052   -2.6975 C.ar      1 <0>        -0.0358
     11 C11         4.5888   -3.5862   -3.9598 C.3       1 <0>         0.1753
     12 N1          4.7535   -5.0416   -3.9912 N.am      1 <0>        -0.7109
     13 C12         5.9877   -5.5789   -4.0575 C.2       1 <0>         0.5537
     14 O1          6.9643   -4.8559   -4.0913 O.2       1 <0>        -0.5392
     15 C13         6.1538   -7.0476   -4.0893 C.ar      1 <0>        -0.1308
     16 C14         5.0343   -7.8805   -4.0565 C.ar      1 <0>        -0.0823
     17 C15         5.1963   -9.2502   -4.0868 C.ar      1 <0>        -0.1252
     18 C16         6.4650   -9.7987   -4.1492 C.ar      1 <0>        -0.0556
     19 C17         7.5789   -8.9787   -4.1815 C.ar      1 <0>        -0.1236
     20 C18         7.4306   -7.6073   -4.1580 C.ar      1 <0>        -0.0579
     21 C19         6.6343  -11.2958   -4.1815 C.3       1 <0>        -0.0490
     22 C20         7.4599  -11.7419   -2.9731 C.3       1 <0>        -0.1119
     23 C21         7.6318  -13.2618   -3.0060 C.3       1 <0>        -0.1197
     24 C22         8.3529  -13.6658   -4.2935 C.3       1 <0>        -0.1211
     25 C23         7.5274  -13.2197   -5.5019 C.3       1 <0>        -0.1196
     26 C24         7.3554  -11.6997   -5.4690 C.3       1 <0>        -0.1114
     27 O2          2.8606   -3.8072   -6.1832 O.3       1 <0>        -0.3139
     28 C25         1.9777   -3.9157   -7.3016 C.3       1 <0>         0.0293
     29 C26         2.1652   -0.0794   -1.2080 C.2       1 <0>         0.5055
     30 O3          2.8790   -0.4588   -0.2952 O.co2     1 <0>        -0.7007
     31 O4          2.6222    0.6383   -2.0813 O.co2     1 <0>        -0.6993
     32 H1          1.0039    1.9031    0.0027 H         1 <0>         0.0588
     33 H2         -0.5459    1.8868   -0.8726 H         1 <0>         0.0456
     34 H3         -0.5289    1.8773    0.9072 H         1 <0>         0.0418
     35 H4          0.5293   -0.3651    0.8851 H         1 <0>         0.0634
     36 H5         -1.0205   -0.3814    0.0098 H         1 <0>         0.0431
     37 H6          0.2444   -0.0644   -2.1377 H         1 <0>         0.0574
     38 H7          1.1806   -2.4586   -0.4944 H         1 <0>         0.0740
     39 H8         -0.4142   -2.3300   -1.2744 H         1 <0>         0.0556
     40 H9         -0.6228   -2.3837   -3.6930 H         1 <0>         0.1207
     41 H10         0.3478   -3.1635   -5.8161 H         1 <0>         0.1235
     42 H11         3.1966   -2.7013   -1.8214 H         1 <0>         0.1371
     43 H12         5.0166   -3.1526   -4.8637 H         1 <0>         0.0787
     44 H13         5.0995   -3.1816   -3.0859 H         1 <0>         0.0806
     45 H14         3.9741   -5.6185   -3.9643 H         1 <0>         0.3977
     46 H15         4.0435   -7.4537   -4.0071 H         1 <0>         0.1255
     47 H16         4.3308   -9.8958   -4.0615 H         1 <0>         0.1258
     48 H17         8.5665   -9.4131   -4.2298 H         1 <0>         0.1263
     49 H18         8.3008   -6.9682   -4.1881 H         1 <0>         0.1357
     50 H19         5.6549  -11.7730   -4.1486 H         1 <0>         0.0787
     51 H20         8.4393  -11.2647   -3.0060 H         1 <0>         0.0656
     52 H21         6.9461  -11.4541   -2.0559 H         1 <0>         0.0645
     53 H22         8.2199  -13.5797   -2.1450 H         1 <0>         0.0623
     54 H23         6.6524  -13.7391   -2.9730 H         1 <0>         0.0616
     55 H24         9.3324  -13.1886   -4.3264 H         1 <0>         0.0617
     56 H25         8.4754  -14.7487   -4.3169 H         1 <0>         0.0599
     57 H26         8.0411  -13.5075   -6.4191 H         1 <0>         0.0619
     58 H27         6.5479  -13.6969   -5.4690 H         1 <0>         0.0615
     59 H28         6.7673  -11.3819   -6.3300 H         1 <0>         0.0637
     60 H29         8.3349  -11.2225   -5.5020 H         1 <0>         0.0654
     61 H30         2.5334   -4.2693   -8.1702 H         1 <0>         0.0944
     62 H31         1.1807   -4.6216   -7.0682 H         1 <0>         0.0514
     63 H32         1.5458   -2.9390   -7.5196 H         1 <0>         0.0535
@<TRIPOS>BOND
     1    1    2 1
     2    1   32 1
     3    1   33 1
     4    1   34 1
     5    2    3 1
     6    2   35 1
     7    2   36 1
     8    3    4 1
     9    3   29 1
    10    3   37 1
    11    4    5 1
    12    4   38 1
    13    4   39 1
    14    5   10 ar
    15    5    6 ar
    16    6    7 ar
    17    6   40 1
    18    7    8 ar
    19    7   41 1
    20    8    9 ar
    21    8   27 1
    22    9   10 ar
    23    9   11 1
    24   10   42 1
    25   11   12 1
    26   11   43 1
    27   11   44 1
    28   12   13 am
    29   12   45 1
    30   13   14 2
    31   13   15 1
    32   15   20 ar
    33   15   16 ar
    34   16   17 ar
    35   16   46 1
    36   17   18 ar
    37   17   47 1
    38   18   19 ar
    39   18   21 1
    40   19   20 ar
    41   19   48 1
    42   20   49 1
    43   21   26 1
    44   21   22 1
    45   21   50 1
    46   22   23 1
    47   22   51 1
    48   22   52 1
    49   23   24 1
    50   23   53 1
    51   23   54 1
    52   24   25 1
    53   24   55 1
    54   24   56 1
    55   25   26 1
    56   25   57 1
    57   25   58 1
    58   26   59 1
    59   26   60 1
    60   27   28 1
    61   28   61 1
    62   28   62 1
    63   28   63 1
    64   29   30 2
    65   29   31 1
@<TRIPOS>MOLECULE
CHEMBL270801__1
   63    65     0     0     0
SMALL
USER_CHARGES

@<TRIPOS>ATOM
      1 C1         -0.0187    1.5258    0.0104 C.3       1 <0>        -0.1508
      2 C2          0.0021   -0.0041    0.0020 C.3       1 <0>        -0.0911
      3 C3          0.7182   -0.4975   -1.2568 C.3       1 <0>        -0.1567
      4 C4          0.8493   -2.0210   -1.2049 C.3       1 <0>        -0.0531
      5 C5          1.6611   -2.4957   -2.3824 C.ar      1 <0>        -0.0939
      6 C6          1.0312   -2.8160   -3.5711 C.ar      1 <0>         0.0098
      7 C7          1.7730   -3.2518   -4.6516 C.ar      1 <0>        -0.2139
      8 C8          3.1515   -3.3676   -4.5439 C.ar      1 <0>         0.1303
      9 C9          3.7811   -3.0452   -3.3506 C.ar      1 <0>        -0.1631
     10 C10         3.0350   -2.6048   -2.2743 C.ar      1 <0>        -0.0658
     11 C11         5.2780   -3.1699   -3.2301 C.3       1 <0>         0.1809
     12 N1          5.6427   -4.5842   -3.1162 N.am      1 <0>        -0.7106
     13 C12         6.9375   -4.9388   -2.9968 C.2       1 <0>         0.5543
     14 O1          7.8027   -4.0852   -2.9838 O.2       1 <0>        -0.5435
     15 C13         7.3055   -6.3661   -2.8818 C.ar      1 <0>        -0.1329
     16 C14         6.3149   -7.3492   -2.9023 C.ar      1 <0>        -0.0817
     17 C15         6.6650   -8.6793   -2.7950 C.ar      1 <0>        -0.1249
     18 C16         7.9947   -9.0396   -2.6669 C.ar      1 <0>        -0.0545
     19 C17         8.9816   -8.0700   -2.6455 C.ar      1 <0>        -0.1241
     20 C18         8.6454   -6.7367   -2.7581 C.ar      1 <0>        -0.0583
     21 C19         8.3698  -10.4944   -2.5497 C.3       1 <0>        -0.0496
     22 C20         9.0933  -10.7292   -1.2222 C.3       1 <0>        -0.1115
     23 C21         9.4741  -12.2063   -1.1032 C.3       1 <0>        -0.1198
     24 C22        10.3969  -12.5900   -2.2617 C.3       1 <0>        -0.1211
     25 C23         9.6733  -12.3552   -3.5892 C.3       1 <0>        -0.1198
     26 C24         9.2925  -10.8781   -3.7082 C.3       1 <0>        -0.1114
     27 O2          3.8835   -3.7965   -5.6055 O.3       1 <0>        -0.3180
     28 C25         3.1684   -4.1111   -6.8020 C.3       1 <0>         0.0295
     29 C26        -0.0771   -0.1029   -2.4745 C.2       1 <0>         0.4961
     30 O3         -1.1200    0.5157   -2.3473 O.co2     1 <0>        -0.6951
     31 O4          0.3224   -0.4021   -3.5868 O.co2     1 <0>        -0.6879
     32 H1          1.0039    1.9031    0.0027 H         1 <0>         0.0340
     33 H2         -0.5459    1.8868   -0.8726 H         1 <0>         0.0843
     34 H3         -0.5289    1.8773    0.9072 H         1 <0>         0.0342
     35 H4          0.5293   -0.3651    0.8851 H         1 <0>         0.0346
     36 H5         -1.0205   -0.3814    0.0098 H         1 <0>         0.0574
     37 H6          1.7103   -0.0491   -1.3098 H         1 <0>         0.0604
     38 H7          1.3468   -2.3116   -0.2797 H         1 <0>         0.0558
     39 H8         -0.1422   -2.4724   -1.2416 H         1 <0>         0.0609
     40 H9         -0.0418   -2.7257   -3.6545 H         1 <0>         0.1227
     41 H10         1.2805   -3.5025   -5.5795 H         1 <0>         0.1205
     42 H11         3.5251   -2.3499   -1.3463 H         1 <0>         0.1208
     43 H12         5.7506   -2.7430   -4.1148 H         1 <0>         0.0754
     44 H13         5.6170   -2.6347   -2.3431 H         1 <0>         0.0722
     45 H14         4.9522   -5.2655   -3.1266 H         1 <0>         0.3991
     46 H15         5.2765   -7.0692   -3.0015 H         1 <0>         0.1262
     47 H16         5.8995   -9.4409   -2.8107 H         1 <0>         0.1264
     48 H17        10.0176   -8.3578   -2.5448 H         1 <0>         0.1262
     49 H18         9.4170   -5.9812   -2.7461 H         1 <0>         0.1349
     50 H19         7.4683  -11.1061   -2.5853 H         1 <0>         0.0791
     51 H20         9.9949  -10.1176   -1.1866 H         1 <0>         0.0653
     52 H21         8.4360  -10.4558   -0.3968 H         1 <0>         0.0642
     53 H22         9.9896  -12.3735   -0.1574 H         1 <0>         0.0623
     54 H23         8.5726  -12.8179   -1.1388 H         1 <0>         0.0618
     55 H24        11.2984  -11.9784   -2.2261 H         1 <0>         0.0615
     56 H25        10.6682  -13.6423   -2.1770 H         1 <0>         0.0601
     57 H26        10.3307  -12.6286   -4.4146 H         1 <0>         0.0622
     58 H27         8.7718  -12.9669   -3.6248 H         1 <0>         0.0618
     59 H28         8.7771  -10.7109   -4.6540 H         1 <0>         0.0640
     60 H29        10.1940  -10.2665   -3.6727 H         1 <0>         0.0652
     61 H30         3.8699   -4.4398   -7.5688 H         1 <0>         0.0924
     62 H31         2.4527   -4.9076   -6.5988 H         1 <0>         0.0514
     63 H32         2.6372   -3.2256   -7.1512 H         1 <0>         0.0552
@<TRIPOS>BOND
     1    1    2 1
     2    1   32 1
     3    1   33 1
     4    1   34 1
     5    2    3 1
     6    2   35 1
     7    2   36 1
     8    3    4 1
     9    3   29 1
    10    3   37 1
    11    4    5 1
    12    4   38 1
    13    4   39 1
    14    5   10 ar
    15    5    6 ar
    16    6    7 ar
    17    6   40 1
    18    7    8 ar
    19    7   41 1
    20    8    9 ar
    21    8   27 1
    22    9   10 ar
    23    9   11 1
    24   10   42 1
    25   11   12 1
    26   11   43 1
    27   11   44 1
    28   12   13 am
    29   12   45 1
    30   13   14 2
    31   13   15 1
    32   15   20 ar
    33   15   16 ar
    34   16   17 ar
    35   16   46 1
    36   17   18 ar
    37   17   47 1
    38   18   19 ar
    39   18   21 1
    40   19   20 ar
    41   19   48 1
    42   20   49 1
    43   21   26 1
    44   21   22 1
    45   21   50 1
    46   22   23 1
    47   22   51 1
    48   22   52 1
    49   23   24 1
    50   23   53 1
    51   23   54 1
    52   24   25 1
    53   24   55 1
    54   24   56 1
    55   25   26 1
    56   25   57 1
    57   25   58 1
    58   26   59 1
    59   26   60 1
    60   27   28 1
    61   28   61 1
    62   28   62 1
    63   28   63 1
    64   29   30 2
    65   29   31 1
@<TRIPOS>MOLECULE
CHEMBL21241
   80    82     0     0     0
SMALL
USER_CHARGES

@<TRIPOS>ATOM
      1 C1         -1.4579   -0.0905   -0.4585 C.3       1 <0>        -0.1062
      2 C2          0.0278    0.2268   -0.2766 C.3       1 <0>        -0.1195
      3 C3          0.2789    1.6996   -0.6061 C.3       1 <0>        -0.1362
      4 C4          0.4281   -0.0439    1.1509 C.2       1 <0>         0.5009
      5 O1          1.2954   -0.8651    1.3955 O.co2     1 <0>        -0.6638
      6 O2         -0.1153    0.5584    2.0611 O.co2     1 <0>        -0.6827
      7 S1          1.0097   -0.8175   -1.3883 S.3       1 <0>        -0.1197
      8 C5          2.6709   -0.3090   -1.0943 C.ar      1 <0>        -0.0457
      9 C6          2.9554    0.5797   -0.0644 C.ar      1 <0>        -0.0923
     10 C7          4.2584    0.9759    0.1631 C.ar      1 <0>        -0.1041
     11 C8          5.2798    0.4896   -0.6325 C.ar      1 <0>        -0.1080
     12 C9          5.0004   -0.3946   -1.6586 C.ar      1 <0>        -0.1099
     13 C10         3.7005   -0.8001   -1.8881 C.ar      1 <0>        -0.1130
     14 C11         6.7006    0.9245   -0.3811 C.3       1 <0>        -0.0873
     15 C12         7.3601   -0.0361    0.6106 C.3       1 <0>         0.1138
     16 N1          8.7413    0.3867    0.8550 N.am      1 <0>        -0.6265
     17 C13         9.0392    1.3236    1.9412 C.3       1 <0>         0.1331
     18 C14         9.3215    0.5420    3.2258 C.3       1 <0>        -0.1347
     19 C15         9.6327    1.5205    4.3601 C.3       1 <0>        -0.1163
     20 C16         9.9150    0.7389    5.6448 C.3       1 <0>        -0.1138
     21 C17        10.2262    1.7173    6.7791 C.3       1 <0>        -0.0869
     22 C18        11.5241    2.4646    6.4664 C.3       1 <0>        -0.1156
     23 C19        11.8353    3.4431    7.6007 C.3       1 <0>        -0.1205
     24 C20        11.9948    2.6702    8.9115 C.3       1 <0>        -0.1196
     25 C21        10.6969    1.9230    9.2242 C.3       1 <0>        -0.1201
     26 C22        10.3857    0.9445    8.0899 C.3       1 <0>        -0.1153
     27 C23         9.7379   -0.0863    0.0807 C.2       1 <0>         0.7084
     28 O3         10.8842    0.2646    0.2836 O.2       1 <0>        -0.5929
     29 N2          9.4638   -0.9482   -0.9185 N.am      1 <0>        -0.7440
     30 C24        10.5470   -1.4623   -1.7602 C.3       1 <0>         0.1646
     31 C25        10.8294   -0.4704   -2.8904 C.3       1 <0>        -0.1295
     32 C26        11.9607   -1.0073   -3.7694 C.3       1 <0>        -0.1162
     33 C27        11.5482   -2.3550   -4.3648 C.3       1 <0>        -0.1219
     34 C28        11.2659   -3.3469   -3.2347 C.3       1 <0>        -0.1145
     35 C29        10.1345   -2.8100   -2.3556 C.3       1 <0>        -0.1283
     36 H1         -1.7252    0.0124   -1.5102 H         1 <0>         0.0499
     37 H2         -1.6539   -1.1117   -0.1320 H         1 <0>         0.0554
     38 H3         -2.0528    0.6020    0.1370 H         1 <0>         0.0726
     39 H4         -0.2072    2.3271    0.1409 H         1 <0>         0.0689
     40 H5          1.3512    1.8951   -0.6027 H         1 <0>         0.0597
     41 H6         -0.1285    1.9260   -1.5915 H         1 <0>         0.0521
     42 H7          2.1583    0.9602    0.5570 H         1 <0>         0.1409
     43 H8          4.4802    1.6668    0.9630 H         1 <0>         0.1152
     44 H9          5.8004   -0.7721   -2.2782 H         1 <0>         0.1146
     45 H10         3.4837   -1.4946   -2.6862 H         1 <0>         0.1184
     46 H11         7.2550    0.9150   -1.3195 H         1 <0>         0.0686
     47 H12         6.7041    1.9328    0.0328 H         1 <0>         0.0729
     48 H13         6.8057   -0.0266    1.5490 H         1 <0>         0.0867
     49 H14         7.3566   -1.0445    0.1967 H         1 <0>         0.0741
     50 H15         9.9138    1.9185    1.6781 H         1 <0>         0.0819
     51 H16         8.1851    1.9826    2.0971 H         1 <0>         0.0757
     52 H17         8.4469   -0.0529    3.4888 H         1 <0>         0.0626
     53 H18        10.1757   -0.1170    3.0699 H         1 <0>         0.0647
     54 H19        10.5073    2.1154    4.0971 H         1 <0>         0.0648
     55 H20         8.7786    2.1794    4.5160 H         1 <0>         0.0624
     56 H21         9.0404    0.1440    5.9078 H         1 <0>         0.0620
     57 H22        10.7692    0.0799    5.4888 H         1 <0>         0.0601
     58 H23         9.4095    2.4327    6.8762 H         1 <0>         0.0694
     59 H24        12.3408    1.7493    6.3693 H         1 <0>         0.0598
     60 H25        11.4105    3.0152    5.5326 H         1 <0>         0.0645
     61 H26        12.7600    3.9754    7.3779 H         1 <0>         0.0587
     62 H27        11.0186    4.1584    7.6978 H         1 <0>         0.0604
     63 H28        12.8116    1.9549    8.8144 H         1 <0>         0.0595
     64 H29        12.2165    3.3673    9.7196 H         1 <0>         0.0578
     65 H30        10.8105    1.3724   10.1580 H         1 <0>         0.0588
     66 H31         9.8802    2.6383    9.3213 H         1 <0>         0.0608
     67 H32         9.4610    0.4121    8.3127 H         1 <0>         0.0611
     68 H33        11.2024    0.2292    7.9928 H         1 <0>         0.0599
     69 H34         8.5493   -1.2281   -1.0804 H         1 <0>         0.3968
     70 H35        11.4458   -1.5914   -1.1571 H         1 <0>         0.0858
     71 H36         9.9307   -0.3413   -3.4935 H         1 <0>         0.0624
     72 H37        11.1233    0.4897   -2.4662 H         1 <0>         0.0672
     73 H38        12.1619   -0.3007   -4.5745 H         1 <0>         0.0627
     74 H39        12.8595   -1.1364   -3.1663 H         1 <0>         0.0631
     75 H40        10.6495   -2.2259   -4.9679 H         1 <0>         0.0628
     76 H41        12.3542   -2.7375   -4.9911 H         1 <0>         0.0618
     77 H42        10.9720   -4.3070   -3.6589 H         1 <0>         0.0662
     78 H43        12.1646   -3.4760   -2.6315 H         1 <0>         0.0641
     79 H44         9.9334   -3.5166   -1.5505 H         1 <0>         0.0685
     80 H45         9.2358   -2.6809   -2.9588 H         1 <0>         0.0684
@<TRIPOS>BOND
     1    1    2 1
     2    1   36 1
     3    1   37 1
     4    1   38 1
     5    2    3 1
     6    2    4 1
     7    2    7 1
     8    3   39 1
     9    3   40 1
    10    3   41 1
    11    4    5 2
    12    4    6 1
    13    7    8 1
    14    8   13 ar
    15    8    9 ar
    16    9   10 ar
    17    9   42 1
    18   10   11 ar
    19   10   43 1
    20   11   12 ar
    21   11   14 1
    22   12   13 ar
    23   12   44 1
    24   13   45 1
    25   14   15 1
    26   14   46 1
    27   14   47 1
    28   15   16 1
    29   15   48 1
    30   15   49 1
    31   16   17 1
    32   16   27 am
    33   17   18 1
    34   17   50 1
    35   17   51 1
    36   18   19 1
    37   18   52 1
    38   18   53 1
    39   19   20 1
    40   19   54 1
    41   19   55 1
    42   20   21 1
    43   20   56 1
    44   20   57 1
    45   21   26 1
    46   21   22 1
    47   21   58 1
    48   22   23 1
    49   22   59 1
    50   22   60 1
    51   23   24 1
    52   23   61 1
    53   23   62 1
    54   24   25 1
    55   24   63 1
    56   24   64 1
    57   25   26 1
    58   25   65 1
    59   25   66 1
    60   26   67 1
    61   26   68 1
    62   27   28 2
    63   27   29 am
    64   29   30 1
    65   29   69 1
    66   30   35 1
    67   30   31 1
    68   30   70 1
    69   31   32 1
    70   31   71 1
    71   31   72 1
    72   32   33 1
    73   32   73 1
    74   32   74 1
    75   33   34 1
    76   33   75 1
    77   33   76 1
    78   34   35 1
    79   34   77 1
    80   34   78 1
    81   35   79 1
    82   35   80 1
@<TRIPOS>MOLECULE
CHEMBL435278
   65    67     0     0     0
SMALL
USER_CHARGES

@<TRIPOS>ATOM
      1 C1         -1.3596   -0.8101   -0.2675 C.3       1 <0>        -0.1149
      2 C2          0.1176   -0.4121   -0.2482 C.3       1 <0>         0.0297
      3 C3          0.2658    1.0232   -0.7571 C.3       1 <0>        -0.1726
      4 C4          0.6438   -0.5022    1.1611 C.2       1 <0>         0.4817
      5 O1          1.5687   -1.2533    1.4195 O.co2     1 <0>        -0.6684
      6 O2          0.1445    0.1759    2.0427 O.co2     1 <0>        -0.6864
      7 O3          0.8600   -1.2954   -1.0913 O.3       1 <0>        -0.3048
      8 C5          2.1971   -1.0744   -1.1911 C.ar      1 <0>         0.1649
      9 C6          2.8026   -0.1083   -0.4008 C.ar      1 <0>        -0.1519
     10 C7          4.1622    0.1141   -0.5039 C.ar      1 <0>        -0.0906
     11 C8          4.9193   -0.6249   -1.3940 C.ar      1 <0>        -0.1395
     12 C9          4.3181   -1.5881   -2.1831 C.ar      1 <0>        -0.0928
     13 C10         2.9600   -1.8186   -2.0794 C.ar      1 <0>        -0.1713
     14 C11         6.4021   -0.3799   -1.5047 C.3       1 <0>        -0.0607
     15 C12         7.1435   -1.2845   -0.5184 C.3       1 <0>        -0.1312
     16 C13         8.6490   -1.0357   -0.6308 C.3       1 <0>         0.1312
     17 N1          9.3589   -1.9020    0.3136 N.am      1 <0>        -0.6151
     18 C14         9.7965   -3.2365   -0.1031 C.3       1 <0>         0.1114
     19 C15        11.2071   -3.1508   -0.6894 C.3       1 <0>        -0.1072
     20 C16        11.6572   -4.5236   -1.1181 C.ar      1 <0>        -0.1109
     21 C17        12.3233   -5.3448   -0.2241 C.ar      1 <0>         0.1146
     22 C18        12.7363   -6.6058   -0.6192 C.ar      1 <0>        -0.1458
     23 C19        12.4837   -7.0443   -1.9055 C.ar      1 <0>        -0.0790
     24 C20        11.8189   -6.2247   -2.7978 C.ar      1 <0>        -0.1167
     25 C21        11.4003   -4.9662   -2.4028 C.ar      1 <0>        -0.0061
     26 Cl1        10.5591   -3.9401   -3.5223 Cl        1 <0>        -0.0461
     27 F1         12.5703   -4.9156    1.0329 F         1 <0>        -0.1286
     28 C22         9.6095   -1.4711    1.5658 C.2       1 <0>         0.7096
     29 O4          9.2463   -0.3634    1.9117 O.2       1 <0>        -0.5580
     30 N2         10.2626   -2.2680    2.4346 N.am      1 <0>        -0.6814
     31 C23        10.4226   -1.8683    3.7669 C.ar      1 <0>         0.1935
     32 C24        10.4740   -0.5181    4.0867 C.ar      1 <0>        -0.1154
     33 C25        10.6314   -0.1261    5.4018 C.ar      1 <0>        -0.0802
     34 C26        10.7383   -1.0763    6.4006 C.ar      1 <0>        -0.1212
     35 C27        10.6876   -2.4230    6.0867 C.ar      1 <0>        -0.0100
     36 C28        10.5244   -2.8217    4.7721 C.ar      1 <0>        -0.0704
     37 Cl2        10.4540   -4.5110    4.3784 Cl        1 <0>        -0.0468
     38 Cl3        10.8228   -3.6126    7.3437 Cl        1 <0>        -0.0482
     39 H1         -1.7615   -0.6665   -1.2705 H         1 <0>         0.0500
     40 H2         -1.4573   -1.8579    0.0165 H         1 <0>         0.0563
     41 H3         -1.9124   -0.1894    0.4377 H         1 <0>         0.0779
     42 H4         -0.1839    1.7108   -0.0409 H         1 <0>         0.0741
     43 H5          1.3233    1.2600   -0.8735 H         1 <0>         0.0674
     44 H6         -0.2366    1.1211   -1.7195 H         1 <0>         0.0501
     45 H7          2.2116    0.4698    0.2941 H         1 <0>         0.1383
     46 H8          4.6340    0.8662    0.1111 H         1 <0>         0.1123
     47 H9          4.9116   -2.1638   -2.8779 H         1 <0>         0.1142
     48 H10         2.4916   -2.5741   -2.6927 H         1 <0>         0.1175
     49 H11         6.7322   -0.6014   -2.5196 H         1 <0>         0.0641
     50 H12         6.6163    0.6633   -1.2725 H         1 <0>         0.0672
     51 H13         6.8134   -1.0630    0.4965 H         1 <0>         0.0719
     52 H14         6.9293   -2.3277   -0.7506 H         1 <0>         0.0639
     53 H15         8.9791   -1.2572   -1.6457 H         1 <0>         0.0792
     54 H16         8.8632    0.0075   -0.3986 H         1 <0>         0.0892
     55 H17         9.8013   -3.9031    0.7593 H         1 <0>         0.0745
     56 H18         9.1123   -3.6240   -0.8580 H         1 <0>         0.0954
     57 H19        11.2023   -2.4842   -1.5518 H         1 <0>         0.0962
     58 H20        11.8914   -2.7633    0.0655 H         1 <0>         0.0827
     59 H21        13.2562   -7.2467    0.0775 H         1 <0>         0.1433
     60 H22        12.8064   -8.0279   -2.2134 H         1 <0>         0.1439
     61 H23        11.6224   -6.5681   -3.8027 H         1 <0>         0.1425
     62 H24        10.6219   -3.1184    2.1369 H         1 <0>         0.4101
     63 H25        10.3914    0.2253    3.3076 H         1 <0>         0.1681
     64 H26        10.6714    0.9242    5.6502 H         1 <0>         0.1430
     65 H27        10.8620   -0.7667    7.4279 H         1 <0>         0.1425
@<TRIPOS>BOND
     1    1    2 1
     2    1   39 1
     3    1   40 1
     4    1   41 1
     5    2    3 1
     6    2    4 1
     7    2    7 1
     8    3   42 1
     9    3   43 1
    10    3   44 1
    11    4    5 2
    12    4    6 1
    13    7    8 1
    14    8   13 ar
    15    8    9 ar
    16    9   10 ar
    17    9   45 1
    18   10   11 ar
    19   10   46 1
    20   11   12 ar
    21   11   14 1
    22   12   13 ar
    23   12   47 1
    24   13   48 1
    25   14   15 1
    26   14   49 1
    27   14   50 1
    28   15   16 1
    29   15   51 1
    30   15   52 1
    31   16   17 1
    32   16   53 1
    33   16   54 1
    34   17   18 1
    35   17   28 am
    36   18   19 1
    37   18   55 1
    38   18   56 1
    39   19   20 1
    40   19   57 1
    41   19   58 1
    42   20   25 ar
    43   20   21 ar
    44   21   22 ar
    45   21   27 1
    46   22   23 ar
    47   22   59 1
    48   23   24 ar
    49   23   60 1
    50   24   25 ar
    51   24   61 1
    52   25   26 1
    53   28   29 2
    54   28   30 am
    55   30   31 1
    56   30   62 1
    57   31   36 ar
    58   31   32 ar
    59   32   33 ar
    60   32   63 1
    61   33   34 ar
    62   33   64 1
    63   34   35 ar
    64   34   65 1
    65   35   36 ar
    66   35   38 1
    67   36   37 1
@<TRIPOS>MOLECULE
CHEMBL190739
   48    49     0     0     0
SMALL
USER_CHARGES

@<TRIPOS>ATOM
      1 C1          1.0091    0.7912   -0.9497 C.3       1 <0>        -0.1492
      2 C2          0.9296   -0.7355   -0.8883 C.3       1 <0>        -0.1169
      3 C3          1.3463   -1.3227   -2.2383 C.3       1 <0>        -0.0993
      4 C4          1.2680   -2.8264   -2.1777 C.ar      1 <0>        -0.1241
      5 C5          2.3985   -3.5556   -1.9427 C.ar      1 <0>        -0.0263
      6 C6          2.3283   -4.9487   -1.8857 C.ar      1 <0>        -0.2032
      7 C7          1.0963   -5.5976   -2.0700 C.ar      1 <0>         0.1109
      8 C8         -0.0444   -4.8435   -2.3081 C.ar      1 <0>        -0.1137
      9 C9          0.0425   -3.4630   -2.3561 C.ar      1 <0>         0.1851
     10 O1         -1.0744   -2.7244   -2.5839 O.3       1 <0>        -0.2902
     11 C10        -1.4125   -2.4633   -3.9476 C.3       1 <0>         0.0512
     12 C11        -0.3270   -1.5935   -4.5847 C.3       1 <0>        -0.1636
     13 C12        -1.5183   -3.7862   -4.7090 C.3       1 <0>        -0.1685
     14 C13        -2.7342   -1.7418   -4.0082 C.2       1 <0>         0.5165
     15 O2         -3.3312   -1.4758   -2.9789 O.co2     1 <0>        -0.6678
     16 O3         -3.2064   -1.4241   -5.0864 O.co2     1 <0>        -0.6820
     17 C14        -1.3735   -5.5250   -2.5078 C.3       1 <0>        -0.0965
     18 C15        -1.9908   -5.8481   -1.1457 C.3       1 <0>        -0.1145
     19 C16        -3.3402   -6.5401   -1.3484 C.3       1 <0>        -0.1494
     20 O4          1.3237   -6.9230   -1.9645 O.3       1 <0>        -0.0728
     21 N1          2.6964   -7.1459   -1.7124 N.2       1 <0>        -0.3567
     22 C17         3.3234   -6.0053   -1.6587 C.2       1 <0>         0.3150
     23 O5          4.6488   -5.8264   -1.4347 O.3       1 <0>        -0.2771
     24 C18         5.4379   -7.0014   -1.2380 C.3       1 <0>         0.0258
     25 H1          2.0315    1.0929   -1.1772 H         1 <0>         0.0480
     26 H2          0.3401    1.1588   -1.7279 H         1 <0>         0.0576
     27 H3          0.7122    1.2095    0.0120 H         1 <0>         0.0519
     28 H4          1.5986   -1.1031   -0.1102 H         1 <0>         0.0534
     29 H5         -0.0928   -1.0373   -0.6608 H         1 <0>         0.0746
     30 H6          0.6773   -0.9551   -3.0164 H         1 <0>         0.1051
     31 H7          2.3687   -1.0209   -2.4658 H         1 <0>         0.0656
     32 H8          3.3453   -3.0555   -1.8015 H         1 <0>         0.1349
     33 H9          0.6506   -2.0385   -4.3991 H         1 <0>         0.0539
     34 H10        -0.4981   -1.5278   -5.6592 H         1 <0>         0.0697
     35 H11        -0.3600   -0.5946   -4.1497 H         1 <0>         0.0652
     36 H12        -2.3932   -4.3360   -4.3624 H         1 <0>         0.0693
     37 H13        -1.6150   -3.5846   -5.7759 H         1 <0>         0.0698
     38 H14        -0.6219   -4.3804   -4.5314 H         1 <0>         0.0518
     39 H15        -2.0408   -4.8647   -3.0617 H         1 <0>         0.1087
     40 H16        -1.2278   -6.4481   -3.0689 H         1 <0>         0.0684
     41 H17        -1.3235   -6.5085   -0.5918 H         1 <0>         0.0540
     42 H18        -2.1364   -4.9250   -0.5846 H         1 <0>         0.0679
     43 H19        -3.1946   -7.4632   -1.9095 H         1 <0>         0.0501
     44 H20        -3.7800   -6.7703   -0.3780 H         1 <0>         0.0515
     45 H21        -4.0075   -5.8797   -1.9023 H         1 <0>         0.0593
     46 H22         5.0657   -7.5482   -0.3716 H         1 <0>         0.0638
     47 H23         5.3733   -7.6348   -2.1227 H         1 <0>         0.0638
     48 H24         6.4767   -6.7174   -1.0696 H         1 <0>         0.1092
@<TRIPOS>BOND
     1    1    2 1
     2    1   25 1
     3    1   26 1
     4    1   27 1
     5    2    3 1
     6    2   28 1
     7    2   29 1
     8    3    4 1
     9    3   30 1
    10    3   31 1
    11    4    9 ar
    12    4    5 ar
    13    5    6 ar
    14    5   32 1
    15    6   22 1
    16    6    7 ar
    17    7    8 ar
    18    7   20 1
    19    8    9 ar
    20    8   17 1
    21    9   10 1
    22   10   11 1
    23   11   12 1
    24   11   13 1
    25   11   14 1
    26   12   33 1
    27   12   34 1
    28   12   35 1
    29   13   36 1
    30   13   37 1
    31   13   38 1
    32   14   15 2
    33   14   16 1
    34   17   18 1
    35   17   39 1
    36   17   40 1
    37   18   19 1
    38   18   41 1
    39   18   42 1
    40   19   43 1
    41   19   44 1
    42   19   45 1
    43   20   21 1
    44   21   22 2
    45   22   23 1
    46   23   24 1
    47   24   46 1
    48   24   47 1
    49   24   48 1
@<TRIPOS>MOLECULE
CHEMBL25259
   60    63     0     0     0
SMALL
USER_CHARGES

@<TRIPOS>ATOM
      1 C1         -0.7868    2.2079    0.7493 C.3       1 <0>        -0.0712
      2 C2         -0.5803    0.7151    0.7471 C.2       1 <0>        -0.0335
      3 C3         -1.5400   -0.2229    0.6480 C.2       1 <0>        -0.0029
      4 N1         -0.9455   -1.4247    0.6839 N.2       1 <0>        -0.4564
      5 C4          0.3500   -1.2487    0.8020 C.2       1 <0>         0.2255
      6 O1          0.6005    0.0717    0.8381 O.3       1 <0>        -0.1938
      7 C5          1.3629   -2.3213    0.8777 C.ar      1 <0>        -0.0135
      8 C6          0.9689   -3.6602    0.8184 C.ar      1 <0>        -0.0654
      9 C7          1.9137   -4.6590    0.8891 C.ar      1 <0>        -0.1113
     10 C8          3.2641   -4.3345    1.0200 C.ar      1 <0>        -0.0277
     11 C9          3.6585   -2.9978    1.0798 C.ar      1 <0>        -0.1124
     12 C10         2.7159   -1.9973    1.0030 C.ar      1 <0>        -0.0860
     13 C11         4.2808   -5.4112    1.0961 C.ar      1 <0>        -0.0501
     14 C12         3.8906   -6.7478    1.0312 C.ar      1 <0>        -0.1070
     15 C13         4.8413   -7.7456    1.1021 C.ar      1 <0>        -0.1179
     16 C14         6.1794   -7.4214    1.2371 C.ar      1 <0>        -0.1169
     17 C15         6.5724   -6.0967    1.3025 C.ar      1 <0>        -0.1190
     18 C16         5.6311   -5.0904    1.2269 C.ar      1 <0>        -0.1082
     19 C17        -3.0198    0.0317    0.5196 C.3       1 <0>        -0.0354
     20 C18        -3.3924    0.1384   -0.9605 C.3       1 <0>         0.0702
     21 O2         -4.7956    0.3798   -1.0822 O.3       1 <0>        -0.3184
     22 C19        -5.2941    0.5014   -2.3415 C.ar      1 <0>         0.0744
     23 C20        -4.4500    0.3848   -3.4358 C.ar      1 <0>        -0.1801
     24 C21        -4.9564    0.5083   -4.7150 C.ar      1 <0>        -0.1357
     25 C22        -6.3091    0.7484   -4.9051 C.ar      1 <0>         0.1371
     26 C23        -7.1534    0.8642   -3.8109 C.ar      1 <0>        -0.1179
     27 C24        -6.6478    0.7364   -2.5318 C.ar      1 <0>        -0.1215
     28 O3         -6.8074    0.8709   -6.1644 O.3       1 <0>        -0.3039
     29 C25        -8.1809    1.2467   -6.2849 C.3       1 <0>         0.0295
     30 C26        -8.4007    2.6001   -5.6061 C.3       1 <0>        -0.1737
     31 C27        -8.5528    1.3523   -7.7652 C.3       1 <0>        -0.1146
     32 C28        -9.0464    0.2060   -5.6225 C.2       1 <0>         0.4807
     33 O4         -8.5345   -0.7673   -5.0960 O.co2     1 <0>        -0.6688
     34 O5        -10.2585    0.3373   -5.6130 O.co2     1 <0>        -0.6860
     35 H1          0.1777    2.7080    0.8376 H         1 <0>         0.0795
     36 H2         -1.2687    2.5094   -0.1807 H         1 <0>         0.0929
     37 H3         -1.4188    2.4860    1.5927 H         1 <0>         0.0928
     38 H4         -0.0765   -3.9117    0.7174 H         1 <0>         0.1428
     39 H5          1.6093   -5.6943    0.8436 H         1 <0>         0.1356
     40 H6          4.7042   -2.7476    1.1819 H         1 <0>         0.1332
     41 H7          3.0220   -0.9624    1.0445 H         1 <0>         0.1330
     42 H8          2.8463   -7.0021    0.9261 H         1 <0>         0.1279
     43 H9          4.5402   -8.7816    1.0523 H         1 <0>         0.1254
     44 H10         6.9199   -8.2056    1.2922 H         1 <0>         0.1230
     45 H11         7.6184   -5.8495    1.4087 H         1 <0>         0.1246
     46 H12         5.9395   -4.0564    1.2731 H         1 <0>         0.1264
     47 H13        -3.5709   -0.7914    0.9746 H         1 <0>         0.0942
     48 H14        -3.2736    0.9628    1.0263 H         1 <0>         0.0918
     49 H15        -2.8413    0.9615   -1.4154 H         1 <0>         0.0566
     50 H16        -3.1386   -0.7927   -1.4671 H         1 <0>         0.0620
     51 H17        -3.3966    0.1977   -3.2877 H         1 <0>         0.1208
     52 H18        -4.2989    0.4182   -5.5671 H         1 <0>         0.1223
     53 H19        -8.2067    1.0515   -3.9589 H         1 <0>         0.1459
     54 H20        -7.3058    0.8228   -1.6798 H         1 <0>         0.1239
     55 H21        -7.9378    3.3856   -6.2034 H         1 <0>         0.0507
     56 H22        -9.4699    2.7930   -5.5180 H         1 <0>         0.0750
     57 H23        -7.9511    2.5859   -4.6132 H         1 <0>         0.0668
     58 H24        -8.3168    0.4138   -8.2670 H         1 <0>         0.0565
     59 H25        -9.6196    1.5558   -7.8582 H         1 <0>         0.0780
     60 H26        -7.9869    2.1624   -8.2252 H         1 <0>         0.0501
@<TRIPOS>BOND
     1    1    2 1
     2    1   35 1
     3    1   36 1
     4    1   37 1
     5    2    6 1
     6    2    3 2
     7    3    4 1
     8    3   19 1
     9    4    5 2
    10    5    6 1
    11    5    7 1
    12    7   12 ar
    13    7    8 ar
    14    8    9 ar
    15    8   38 1
    16    9   10 ar
    17    9   39 1
    18   10   11 ar
    19   10   13 1
    20   11   12 ar
    21   11   40 1
    22   12   41 1
    23   13   18 ar
    24   13   14 ar
    25   14   15 ar
    26   14   42 1
    27   15   16 ar
    28   15   43 1
    29   16   17 ar
    30   16   44 1
    31   17   18 ar
    32   17   45 1
    33   18   46 1
    34   19   20 1
    35   19   47 1
    36   19   48 1
    37   20   21 1
    38   20   49 1
    39   20   50 1
    40   21   22 1
    41   22   27 ar
    42   22   23 ar
    43   23   24 ar
    44   23   51 1
    45   24   25 ar
    46   24   52 1
    47   25   26 ar
    48   25   28 1
    49   26   27 ar
    50   26   53 1
    51   27   54 1
    52   28   29 1
    53   29   30 1
    54   29   31 1
    55   29   32 1
    56   30   55 1
    57   30   56 1
    58   30   57 1
    59   31   58 1
    60   31   59 1
    61   31   60 1
    62   32   33 2
    63   32   34 1
@<TRIPOS>MOLECULE
CHEMBL190665
   50    50     0     0     0
SMALL
USER_CHARGES

@<TRIPOS>ATOM
      1 C1          1.3213    1.6846   -0.1226 C.3       1 <0>        -0.1523
      2 C2          1.0820    0.2489   -0.5943 C.3       1 <0>        -0.1249
      3 C3         -0.2803   -0.2328   -0.0914 C.3       1 <0>        -0.0945
      4 C4         -0.4589   -1.6879   -0.4405 C.ar      1 <0>        -0.1161
      5 C5         -0.3228   -2.1014   -1.7408 C.ar      1 <0>        -0.0497
      6 C6         -0.4886   -3.4539   -2.0637 C.ar      1 <0>        -0.1946
      7 C7         -0.7927   -4.3773   -1.0558 C.ar      1 <0>        -0.0642
      8 C8         -0.9266   -3.9534    0.2413 C.ar      1 <0>        -0.1129
      9 C9         -0.7558   -2.6099    0.5575 C.ar      1 <0>         0.1550
     10 O1         -0.8838   -2.1965    1.8433 O.3       1 <0>        -0.2992
     11 C10         0.3041   -2.1681    2.6370 C.3       1 <0>         0.0523
     12 C11         0.9523   -3.5540    2.6345 C.3       1 <0>        -0.1621
     13 C12         1.2826   -1.1464    2.0543 C.3       1 <0>        -0.1689
     14 C13        -0.0453   -1.7796    4.0505 C.2       1 <0>         0.5151
     15 O2         -1.2042   -1.5483    4.3503 O.co2     1 <0>        -0.6706
     16 O3          0.8309   -1.6964    4.8942 O.co2     1 <0>        -0.6837
     17 C14        -1.2538   -4.9460    1.3270 C.3       1 <0>        -0.0940
     18 C15        -2.7668   -5.1683    1.3756 C.3       1 <0>        -0.1132
     19 C16        -3.1106   -6.0803    2.5550 C.3       1 <0>        -0.1512
     20 C17        -0.3444   -3.9023   -3.4548 C.2       1 <0>         0.4005
     21 O4         -0.0814   -3.1007   -4.3262 O.2       1 <0>        -0.4630
     22 C18        -0.5233   -5.3584   -3.7994 C.3       1 <0>        -0.1709
     23 C19        -0.3215   -5.5551   -5.3033 C.3       1 <0>        -0.1427
     24 H1          2.2918    2.0277   -0.4809 H         1 <0>         0.0518
     25 H2          0.5385    2.3320   -0.5178 H         1 <0>         0.0523
     26 H3          1.3039    1.7168    0.9668 H         1 <0>         0.0589
     27 H4          1.0994    0.2167   -1.6836 H         1 <0>         0.0583
     28 H5          1.8648   -0.3986   -0.1991 H         1 <0>         0.0698
     29 H6         -0.3327   -0.1096    0.9903 H         1 <0>         0.0986
     30 H7         -1.0695    0.3533   -0.5624 H         1 <0>         0.0708
     31 H8         -0.0886   -1.3853   -2.5145 H         1 <0>         0.1305
     32 H9         -0.9218   -5.4215   -1.2998 H         1 <0>         0.1285
     33 H10         1.0230   -3.9203    1.6103 H         1 <0>         0.0507
     34 H11         1.9508   -3.4889    3.0668 H         1 <0>         0.0670
     35 H12         0.3449   -4.2403    3.2246 H         1 <0>         0.0627
     36 H13         0.8547   -0.1471    2.1339 H         1 <0>         0.0632
     37 H14         2.2208   -1.1851    2.6078 H         1 <0>         0.0660
     38 H15         1.4695   -1.3792    1.0059 H         1 <0>         0.0595
     39 H16        -0.7542   -5.8918    1.1173 H         1 <0>         0.0656
     40 H17        -0.9123   -4.5597    2.2874 H         1 <0>         0.0981
     41 H18        -3.2711   -4.2099    1.4984 H         1 <0>         0.0671
     42 H19        -3.0954   -5.6355    0.4473 H         1 <0>         0.0539
     43 H20        -2.6063   -7.0388    2.4323 H         1 <0>         0.0492
     44 H21        -2.7820   -5.6131    3.4834 H         1 <0>         0.0600
     45 H22        -4.1885   -6.2387    2.5897 H         1 <0>         0.0511
     46 H23         0.2088   -5.9536   -3.2537 H         1 <0>         0.0977
     47 H24        -1.5286   -5.6764   -3.5231 H         1 <0>         0.0977
     48 H25        -1.0537   -4.9599   -5.8490 H         1 <0>         0.0589
     49 H26         0.6838   -5.2371   -5.5796 H         1 <0>         0.0589
     50 H27        -0.4509   -6.6082   -5.5526 H         1 <0>         0.0591
@<TRIPOS>BOND
     1    1    2 1
     2    1   24 1
     3    1   25 1
     4    1   26 1
     5    2    3 1
     6    2   27 1
     7    2   28 1
     8    3    4 1
     9    3   29 1
    10    3   30 1
    11    4    9 ar
    12    4    5 ar
    13    5    6 ar
    14    5   31 1
    15    6    7 ar
    16    6   20 1
    17    7    8 ar
    18    7   32 1
    19    8    9 ar
    20    8   17 1
    21    9   10 1
    22   10   11 1
    23   11   12 1
    24   11   13 1
    25   11   14 1
    26   12   33 1
    27   12   34 1
    28   12   35 1
    29   13   36 1
    30   13   37 1
    31   13   38 1
    32   14   15 2
    33   14   16 1
    34   17   18 1
    35   17   39 1
    36   17   40 1
    37   18   19 1
    38   18   41 1
    39   18   42 1
    40   19   43 1
    41   19   44 1
    42   19   45 1
    43   20   21 2
    44   20   22 1
    45   22   23 1
    46   22   46 1
    47   22   47 1
    48   23   48 1
    49   23   49 1
    50   23   50 1
@<TRIPOS>MOLECULE
CHEMBL522754
   58    60     0     0     0
SMALL
USER_CHARGES

@<TRIPOS>ATOM
      1 C1         -0.0187    1.5258    0.0104 C.3       1 <0>        -0.1437
      2 C2          0.0021   -0.0041    0.0020 C.3       1 <0>         0.0665
      3 O1         -1.3386   -0.4987    0.0122 O.3       1 <0>        -0.3680
      4 C3         -1.4321   -1.9246    0.0054 C.3       1 <0>         0.0334
      5 C4         -2.7188   -2.3480   -0.7059 C.3       1 <0>        -0.0681
      6 C5         -2.6464   -1.9463   -2.1566 C.ar      1 <0>        -0.0749
      7 C6         -3.1039   -0.7029   -2.5521 C.ar      1 <0>        -0.0612
      8 C7         -3.0391   -0.3325   -3.8814 C.ar      1 <0>        -0.1400
      9 C8         -2.5138   -1.2091   -4.8197 C.ar      1 <0>         0.0909
     10 C9         -2.0549   -2.4559   -4.4202 C.ar      1 <0>        -0.2012
     11 C10        -2.1173   -2.8195   -3.0889 C.ar      1 <0>        -0.0824
     12 O2         -2.4493   -0.8472   -6.1280 O.3       1 <0>        -0.3309
     13 C11        -1.8965   -1.8001   -7.0382 C.3       1 <0>         0.0251
     14 C12        -1.9067   -1.2190   -8.4535 C.3       1 <0>         0.0015
     15 N1         -1.0082   -0.0584   -8.5127 N.4       1 <0>        -0.3892
     16 C13        -1.0984    0.5669   -9.8417 C.3       1 <0>        -0.0019
     17 C14        -0.3635    1.9092   -9.8008 C.3       1 <0>        -0.1106
     18 C15         1.0028    1.7173   -9.2021 C.2       1 <0>        -0.0593
     19 C16         1.3280    0.6398   -8.5208 C.2       1 <0>        -0.1637
     20 C17         0.3740   -0.4951   -8.2833 C.3       1 <0>         0.0300
     21 C18         2.0166    2.7769   -9.3860 C.ar      1 <0>        -0.0553
     22 C19         2.6458    2.9380  -10.6212 C.ar      1 <0>        -0.0867
     23 C20         3.5913    3.9287  -10.7872 C.ar      1 <0>        -0.0980
     24 C21         3.9177    4.7625   -9.7325 C.ar      1 <0>        -0.0863
     25 C22         3.2987    4.6092   -8.5041 C.ar      1 <0>        -0.0304
     26 C23         2.3447    3.6247   -8.3265 C.ar      1 <0>        -0.0222
     27 Cl1         1.5628    3.4376   -6.7879 Cl        1 <0>        -0.0343
     28 Cl2         3.7154    5.6600   -7.1865 Cl        1 <0>        -0.0312
     29 C24        -1.4514   -2.4335    1.4237 C.2       1 <0>         0.4755
     30 O3         -1.4828   -1.6456    2.3537 O.co2     1 <0>        -0.6747
     31 O4         -1.4356   -3.6330    1.6413 O.co2     1 <0>        -0.6973
     32 H1          1.0039    1.9031    0.0027 H         1 <0>         0.0609
     33 H2         -0.5459    1.8868   -0.8726 H         1 <0>         0.0515
     34 H3         -0.5289    1.8773    0.9072 H         1 <0>         0.0653
     35 H4          0.5123   -0.3556   -0.8948 H         1 <0>         0.0267
     36 H5          0.5293   -0.3651    0.8851 H         1 <0>         0.0485
     37 H6         -0.5727   -2.3426   -0.5189 H         1 <0>         0.0477
     38 H7         -2.8350   -3.4293   -0.6337 H         1 <0>         0.0912
     39 H8         -3.5718   -1.8587   -0.2356 H         1 <0>         0.0791
     40 H9         -3.5128   -0.0209   -1.8213 H         1 <0>         0.1374
     41 H10        -3.3972    0.6385   -4.1899 H         1 <0>         0.1269
     42 H11        -1.6456   -3.1401   -5.1487 H         1 <0>         0.1214
     43 H12        -1.7561   -3.7883   -2.7767 H         1 <0>         0.1300
     44 H13        -0.8714   -2.0288   -6.7467 H         1 <0>         0.0838
     45 H14        -2.4927   -2.7124   -7.0157 H         1 <0>         0.1081
     46 H15        -1.5683   -1.9770   -9.1599 H         1 <0>         0.1486
     47 H16        -2.9191   -0.9082   -8.7114 H         1 <0>         0.1437
     48 H17        -0.6337   -0.0823  -10.5838 H         1 <0>         0.1343
     49 H18        -2.1449    0.7304  -10.0988 H         1 <0>         0.1393
     50 H19        -0.2645    2.2998  -10.8136 H         1 <0>         0.1257
     51 H20        -0.9301    2.6150   -9.1935 H         1 <0>         0.1090
     52 H21         2.3259    0.5683   -8.1142 H         1 <0>         0.1522
     53 H22         0.4762   -0.8429   -7.2554 H         1 <0>         0.1425
     54 H23         0.6110   -1.3136   -8.9631 H         1 <0>         0.1432
     55 H24         2.3931    2.2878  -11.4458 H         1 <0>         0.1411
     56 H25         4.0784    4.0535  -11.7430 H         1 <0>         0.1462
     57 H26         4.6590    5.5362   -9.8682 H         1 <0>         0.1489
     58 H27        -1.2729    0.6101   -7.8049 H         1 <0>         0.4352
@<TRIPOS>BOND
     1    1    2 1
     2    1   32 1
     3    1   33 1
     4    1   34 1
     5    2    3 1
     6    2   35 1
     7    2   36 1
     8    3    4 1
     9    4    5 1
    10    4   29 1
    11    4   37 1
    12    5    6 1
    13    5   38 1
    14    5   39 1
    15    6   11 ar
    16    6    7 ar
    17    7    8 ar
    18    7   40 1
    19    8    9 ar
    20    8   41 1
    21    9   10 ar
    22    9   12 1
    23   10   11 ar
    24   10   42 1
    25   11   43 1
    26   12   13 1
    27   13   14 1
    28   13   44 1
    29   13   45 1
    30   14   15 1
    31   14   46 1
    32   14   47 1
    33   15   20 1
    34   15   16 1
    35   15   58 1
    36   16   17 1
    37   16   48 1
    38   16   49 1
    39   17   18 1
    40   17   50 1
    41   17   51 1
    42   18   19 2
    43   18   21 1
    44   19   20 1
    45   19   52 1
    46   20   53 1
    47   20   54 1
    48   21   26 ar
    49   21   22 ar
    50   22   23 ar
    51   22   55 1
    52   23   24 ar
    53   23   56 1
    54   24   25 ar
    55   24   57 1
    56   25   26 ar
    57   25   28 1
    58   26   27 1
    59   29   30 2
    60   29   31 1
@<TRIPOS>MOLECULE
CHEMBL522754__1
   57    59     0     0     0
SMALL
USER_CHARGES

@<TRIPOS>ATOM
      1 C1         -0.0187    1.5258    0.0104 C.3       1 <0>        -0.1434
      2 C2          0.0021   -0.0041    0.0020 C.3       1 <0>         0.0665
      3 O1          0.6932   -0.4774    1.1597 O.3       1 <0>        -0.3662
      4 C3          0.7699   -1.9016    1.2491 C.3       1 <0>         0.0336
      5 C4          0.8077   -2.3190    2.7205 C.3       1 <0>        -0.0604
      6 C5         -0.4946   -1.9476    3.3817 C.ar      1 <0>        -0.0985
      7 C6         -0.6396   -0.7054    3.9713 C.ar      1 <0>        -0.0620
      8 C7         -1.8323   -0.3627    4.5784 C.ar      1 <0>        -0.1513
      9 C8         -2.8851   -1.2659    4.5957 C.ar      1 <0>         0.1150
     10 C9         -2.7373   -2.5115    4.0029 C.ar      1 <0>        -0.2119
     11 C10        -1.5443   -2.8474    3.3926 C.ar      1 <0>        -0.0827
     12 O2         -4.0592   -0.9313    5.1927 O.3       1 <0>        -0.3001
     13 C11        -5.0996   -1.9107    5.1723 C.3       1 <0>         0.0637
     14 C12        -6.3345   -1.3579    5.8867 C.3       1 <0>         0.0568
     15 N1         -6.8640   -0.2129    5.1341 N.3       1 <0>        -0.5229
     16 C13        -7.9172    0.4779    5.8963 C.3       1 <0>         0.0550
     17 C14        -8.2025    1.8227    5.2228 C.3       1 <0>        -0.0691
     18 C15        -8.4043    1.6178    3.7472 C.2       1 <0>        -0.0870
     19 C16        -8.0317    0.5209    3.1253 C.2       1 <0>        -0.1205
     20 C17        -7.3777   -0.6357    3.8251 C.3       1 <0>         0.0815
     21 C18        -9.0473    2.6934    2.9636 C.ar      1 <0>        -0.0267
     22 C19       -10.4227    2.9071    3.0639 C.ar      1 <0>        -0.0950
     23 C20       -11.0176    3.9125    2.3301 C.ar      1 <0>        -0.1040
     24 C21       -10.2544    4.7090    1.4949 C.ar      1 <0>        -0.1027
     25 C22        -8.8898    4.5034    1.3894 C.ar      1 <0>        -0.0316
     26 C23        -8.2804    3.5036    2.1244 C.ar      1 <0>        -0.0261
     27 Cl1        -6.5676    3.2509    1.9977 Cl        1 <0>        -0.0287
     28 Cl2        -7.9408    5.5076    0.3384 Cl        1 <0>        -0.0470
     29 C24         2.0203   -2.3816    0.5584 C.2       1 <0>         0.4772
     30 O3          2.8214   -1.5750    0.1180 O.co2     1 <0>        -0.6797
     31 O4          2.2309   -3.5767    0.4402 O.co2     1 <0>        -0.7012
     32 H1          1.0039    1.9031    0.0027 H         1 <0>         0.0624
     33 H2         -0.5459    1.8868   -0.8726 H         1 <0>         0.0594
     34 H3         -0.5289    1.8773    0.9072 H         1 <0>         0.0546
     35 H4         -1.0205   -0.3814    0.0098 H         1 <0>         0.0292
     36 H5          0.5123   -0.3556   -0.8948 H         1 <0>         0.0449
     37 H6         -0.1030   -2.3433    0.7684 H         1 <0>         0.0476
     38 H7          0.9554   -3.3968    2.7888 H         1 <0>         0.0857
     39 H8          1.6289   -1.8072    3.2224 H         1 <0>         0.0733
     40 H9          0.1803   -0.0026    3.9576 H         1 <0>         0.1295
     41 H10        -1.9448    0.6074    5.0395 H         1 <0>         0.1242
     42 H11        -3.5554   -3.2164    4.0151 H         1 <0>         0.1191
     43 H12        -1.4302   -3.8153    2.9271 H         1 <0>         0.1220
     44 H13        -5.3537   -2.1495    4.1396 H         1 <0>         0.0600
     45 H14        -4.7593   -2.8129    5.6806 H         1 <0>         0.0639
     46 H15        -7.0963   -2.1350    5.9495 H         1 <0>         0.0550
     47 H16        -6.0597   -1.0366    6.8914 H         1 <0>         0.0891
     48 H17        -8.8229   -0.1284    5.9014 H         1 <0>         0.0376
     49 H18        -7.5792    0.6450    6.9190 H         1 <0>         0.0817
     50 H19        -9.1024    2.2608    5.6545 H         1 <0>         0.0746
     51 H20        -7.3597    2.4949    5.3836 H         1 <0>         0.0856
     52 H21        -8.2048    0.4480    2.0617 H         1 <0>         0.1128
     53 H22        -6.5530   -1.0062    3.2163 H         1 <0>         0.0912
     54 H23        -8.1074   -1.4333    3.9642 H         1 <0>         0.0486
     55 H24       -11.0205    2.2862    3.7146 H         1 <0>         0.1373
     56 H25       -12.0820    4.0781    2.4075 H         1 <0>         0.1388
     57 H26       -10.7256    5.4944    0.9226 H         1 <0>         0.1412
@<TRIPOS>BOND
     1    1    2 1
     2    1   32 1
     3    1   33 1
     4    1   34 1
     5    2    3 1
     6    2   35 1
     7    2   36 1
     8    3    4 1
     9    4    5 1
    10    4   29 1
    11    4   37 1
    12    5    6 1
    13    5   38 1
    14    5   39 1
    15    6   11 ar
    16    6    7 ar
    17    7    8 ar
    18    7   40 1
    19    8    9 ar
    20    8   41 1
    21    9   10 ar
    22    9   12 1
    23   10   11 ar
    24   10   42 1
    25   11   43 1
    26   12   13 1
    27   13   14 1
    28   13   44 1
    29   13   45 1
    30   14   15 1
    31   14   46 1
    32   14   47 1
    33   15   20 1
    34   15   16 1
    35   16   17 1
    36   16   48 1
    37   16   49 1
    38   17   18 1
    39   17   50 1
    40   17   51 1
    41   18   19 2
    42   18   21 1
    43   19   20 1
    44   19   52 1
    45   20   53 1
    46   20   54 1
    47   21   26 ar
    48   21   22 ar
    49   22   23 ar
    50   22   55 1
    51   23   24 ar
    52   23   56 1
    53   24   25 ar
    54   24   57 1
    55   25   26 ar
    56   25   28 1
    57   26   27 1
    58   29   30 2
    59   29   31 1
@<TRIPOS>MOLECULE
CHEMBL522754__2
   58    60     0     0     0
SMALL
USER_CHARGES

@<TRIPOS>ATOM
      1 C1         -0.0187    1.5258    0.0104 C.3       1 <0>        -0.1427
      2 C2          0.0021   -0.0041    0.0020 C.3       1 <0>         0.0656
      3 O1         -1.3386   -0.4987    0.0122 O.3       1 <0>        -0.3687
      4 C3         -1.4321   -1.9246    0.0054 C.3       1 <0>         0.0331
      5 C4         -2.7050   -2.3557    0.7365 C.3       1 <0>        -0.0680
      6 C5         -2.6049   -1.9696    2.1898 C.ar      1 <0>        -0.0751
      7 C6         -2.0530   -2.8506    3.1014 C.ar      1 <0>        -0.0813
      8 C7         -1.9604   -2.4992    4.4343 C.ar      1 <0>        -0.1401
      9 C8         -2.4214   -1.2611    4.8576 C.ar      1 <0>         0.0908
     10 C9         -2.9743   -0.3788    3.9408 C.ar      1 <0>        -0.2009
     11 C10        -3.0599   -0.7329    2.6083 C.ar      1 <0>        -0.0620
     12 O2         -2.3319   -0.9133    6.1683 O.3       1 <0>        -0.3313
     13 C11        -2.8265    0.3770    6.5324 C.3       1 <0>         0.0251
     14 C12        -2.6419    0.5882    8.0365 C.3       1 <0>         0.0015
     15 N1         -1.2081    0.6176    8.3545 N.4       1 <0>        -0.3892
     16 C13        -1.0288    0.7121    9.8120 C.3       1 <0>        -0.0019
     17 C14         0.4489    0.4812   10.1383 C.3       1 <0>        -0.1105
     18 C15         1.3010    1.3593    9.2637 C.2       1 <0>        -0.0597
     19 C16         0.8329    1.9401    8.1800 C.2       1 <0>        -0.1633
     20 C17        -0.5883    1.7870    7.7203 C.3       1 <0>         0.0298
     21 C18         2.7147    1.5778    9.6352 C.ar      1 <0>        -0.0551
     22 C19         3.0375    2.4239   10.6971 C.ar      1 <0>        -0.0866
     23 C20         4.3588    2.6243   11.0395 C.ar      1 <0>        -0.0979
     24 C21         5.3645    1.9891   10.3327 C.ar      1 <0>        -0.0864
     25 C22         5.0530    1.1489    9.2780 C.ar      1 <0>        -0.0304
     26 C23         3.7326    0.9344    8.9290 C.ar      1 <0>        -0.0221
     27 Cl1         3.3418   -0.1257    7.6110 Cl        1 <0>        -0.0348
     28 Cl2         6.3219    0.3570    8.3969 Cl        1 <0>        -0.0313
     29 C24        -1.4785   -2.4182   -1.4177 C.2       1 <0>         0.4755
     30 O3         -1.4670   -3.6154   -1.6484 O.co2     1 <0>        -0.6964
     31 O4         -1.5276   -1.6204   -2.3384 O.co2     1 <0>        -0.6755
     32 H1          1.0039    1.9031    0.0027 H         1 <0>         0.0611
     33 H2         -0.5459    1.8868   -0.8726 H         1 <0>         0.0651
     34 H3         -0.5289    1.8773    0.9072 H         1 <0>         0.0500
     35 H4          0.5123   -0.3556   -0.8948 H         1 <0>         0.0489
     36 H5          0.5293   -0.3651    0.8851 H         1 <0>         0.0274
     37 H6         -0.5629   -2.3481    0.5087 H         1 <0>         0.0488
     38 H7         -3.5668   -1.8615    0.2879 H         1 <0>         0.0782
     39 H8         -2.8227   -3.4363    0.6549 H         1 <0>         0.0921
     40 H9         -1.6943   -3.8143    2.7713 H         1 <0>         0.1351
     41 H10        -1.5299   -3.1879    5.1461 H         1 <0>         0.1269
     42 H11        -3.3339    0.5856    4.2680 H         1 <0>         0.1214
     43 H12        -3.4862   -0.0446    1.8934 H         1 <0>         0.1323
     44 H13        -2.2761    1.1441    5.9876 H         1 <0>         0.0842
     45 H14        -3.8855    0.4437    6.2833 H         1 <0>         0.1082
     46 H15        -3.0986    1.5336    8.3293 H         1 <0>         0.1486
     47 H16        -3.1178   -0.2287    8.5791 H         1 <0>         0.1436
     48 H17        -1.3287    1.7027   10.1540 H         1 <0>         0.1343
     49 H18        -1.6355   -0.0473   10.3052 H         1 <0>         0.1393
     50 H19         0.6318    0.7244   11.1850 H         1 <0>         0.1257
     51 H20         0.7012   -0.5639    9.9592 H         1 <0>         0.1089
     52 H21         1.5008    2.5547    7.5948 H         1 <0>         0.1523
     53 H22        -0.6055    1.6614    6.6377 H         1 <0>         0.1428
     54 H23        -1.1514    2.6818    7.9856 H         1 <0>         0.1434
     55 H24         2.2541    2.9212   11.2497 H         1 <0>         0.1412
     56 H25         4.6088    3.2789   11.8612 H         1 <0>         0.1462
     57 H26         6.3971    2.1501   10.6050 H         1 <0>         0.1489
     58 H27        -0.7691   -0.2241    8.0129 H         1 <0>         0.4350
@<TRIPOS>BOND
     1    1    2 1
     2    1   32 1
     3    1   33 1
     4    1   34 1
     5    2    3 1
     6    2   35 1
     7    2   36 1
     8    3    4 1
     9    4    5 1
    10    4   29 1
    11    4   37 1
    12    5    6 1
    13    5   38 1
    14    5   39 1
    15    6   11 ar
    16    6    7 ar
    17    7    8 ar
    18    7   40 1
    19    8    9 ar
    20    8   41 1
    21    9   10 ar
    22    9   12 1
    23   10   11 ar
    24   10   42 1
    25   11   43 1
    26   12   13 1
    27   13   14 1
    28   13   44 1
    29   13   45 1
    30   14   15 1
    31   14   46 1
    32   14   47 1
    33   15   20 1
    34   15   16 1
    35   15   58 1
    36   16   17 1
    37   16   48 1
    38   16   49 1
    39   17   18 1
    40   17   50 1
    41   17   51 1
    42   18   19 2
    43   18   21 1
    44   19   20 1
    45   19   52 1
    46   20   53 1
    47   20   54 1
    48   21   26 ar
    49   21   22 ar
    50   22   23 ar
    51   22   55 1
    52   23   24 ar
    53   23   56 1
    54   24   25 ar
    55   24   57 1
    56   25   26 ar
    57   25   28 1
    58   26   27 1
    59   29   30 2
    60   29   31 1
@<TRIPOS>MOLECULE
CHEMBL522754__3
   57    59     0     0     0
SMALL
USER_CHARGES

@<TRIPOS>ATOM
      1 C1         -0.0187    1.5258    0.0104 C.3       1 <0>        -0.1427
      2 C2          0.0021   -0.0041    0.0020 C.3       1 <0>         0.0658
      3 O1          0.6932   -0.4774    1.1597 O.3       1 <0>        -0.3669
      4 C3          0.7699   -1.9016    1.2491 C.3       1 <0>         0.0332
      5 C4          2.0499   -2.2981    1.9875 C.3       1 <0>        -0.0603
      6 C5          3.2484   -1.8847    1.1728 C.ar      1 <0>        -0.0988
      7 C6          3.7840   -2.7557    0.2422 C.ar      1 <0>        -0.0821
      8 C7          4.8829   -2.3792   -0.5056 C.ar      1 <0>        -0.1516
      9 C8          5.4488   -1.1259   -0.3223 C.ar      1 <0>         0.1149
     10 C9          4.9092   -0.2536    0.6118 C.ar      1 <0>        -0.2115
     11 C10         3.8070   -0.6328    1.3533 C.ar      1 <0>        -0.0623
     12 O2          6.5301   -0.7534   -1.0564 O.3       1 <0>        -0.3004
     13 C11         7.0601    0.5515   -0.8146 C.3       1 <0>         0.0638
     14 C12         8.2649    0.7898   -1.7271 C.3       1 <0>         0.0568
     15 N1          7.8230    0.8033   -3.1280 N.3       1 <0>        -0.5230
     16 C13         8.9750    0.8146   -4.0445 C.3       1 <0>         0.0550
     17 C14         8.4748    0.5084   -5.4584 C.3       1 <0>        -0.0689
     18 C15         7.2960    1.3844   -5.7797 C.2       1 <0>        -0.0874
     19 C16         6.6152    2.0256   -4.8555 C.2       1 <0>        -0.1202
     20 C17         6.9506    1.9541   -3.3935 C.3       1 <0>         0.0813
     21 C18         6.8854    1.5304   -7.1920 C.ar      1 <0>        -0.0265
     22 C19         7.6373    2.3209   -8.0622 C.ar      1 <0>        -0.0949
     23 C20         7.2493    2.4537   -9.3794 C.ar      1 <0>        -0.1039
     24 C21         6.1168    1.8056   -9.8397 C.ar      1 <0>        -0.1027
     25 C22         5.3654    1.0201   -8.9831 C.ar      1 <0>        -0.0315
     26 C23         5.7471    0.8735   -7.6626 C.ar      1 <0>        -0.0260
     27 Cl1         4.8086   -0.1181   -6.5903 Cl        1 <0>        -0.0292
     28 Cl2         3.9457    0.2114   -9.5699 Cl        1 <0>        -0.0472
     29 C24        -0.4267   -2.4228    2.0025 C.2       1 <0>         0.4773
     30 O3         -0.6021   -3.6243    2.1120 O.co2     1 <0>        -0.7003
     31 O4         -1.2193   -1.6429    2.5025 O.co2     1 <0>        -0.6805
     32 H1          1.0039    1.9031    0.0027 H         1 <0>         0.0533
     33 H2         -0.5459    1.8868   -0.8726 H         1 <0>         0.0596
     34 H3         -0.5289    1.8773    0.9072 H         1 <0>         0.0622
     35 H4         -1.0205   -0.3814    0.0098 H         1 <0>         0.0453
     36 H5          0.5123   -0.3556   -0.8948 H         1 <0>         0.0298
     37 H6          0.7819   -2.3284    0.2462 H         1 <0>         0.0486
     38 H7          2.0796   -1.7996    2.9564 H         1 <0>         0.0724
     39 H8          2.0651   -3.3781    2.1339 H         1 <0>         0.0866
     40 H9          3.3432   -3.7313    0.0999 H         1 <0>         0.1271
     41 H10         5.3014   -3.0602   -1.2319 H         1 <0>         0.1243
     42 H11         5.3479    0.7226    0.7563 H         1 <0>         0.1191
     43 H12         3.3839    0.0475    2.0775 H         1 <0>         0.1244
     44 H13         6.2941    1.2988   -1.0215 H         1 <0>         0.0604
     45 H14         7.3721    0.6297    0.2269 H         1 <0>         0.0640
     46 H15         8.7229    1.7479   -1.4813 H         1 <0>         0.0551
     47 H16         8.9930   -0.0085   -1.5834 H         1 <0>         0.0889
     48 H17         9.4466    1.7971   -4.0277 H         1 <0>         0.0377
     49 H18         9.6941    0.0549   -3.7380 H         1 <0>         0.0817
     50 H19         9.2739    0.6985   -6.1749 H         1 <0>         0.0746
     51 H20         8.1760   -0.5381   -5.5188 H         1 <0>         0.0854
     52 H21         5.7762    2.6325   -5.1622 H         1 <0>         0.1129
     53 H22         6.0313    1.8508   -2.8171 H         1 <0>         0.0915
     54 H23         7.4603    2.8701   -3.0946 H         1 <0>         0.0487
     55 H24         8.5212    2.8283   -7.7050 H         1 <0>         0.1373
     56 H25         7.8310    3.0654  -10.0531 H         1 <0>         0.1388
     57 H26         5.8177    1.9135  -10.8719 H         1 <0>         0.1413
@<TRIPOS>BOND
     1    1    2 1
     2    1   32 1
     3    1   33 1
     4    1   34 1
     5    2    3 1
     6    2   35 1
     7    2   36 1
     8    3    4 1
     9    4    5 1
    10    4   29 1
    11    4   37 1
    12    5    6 1
    13    5   38 1
    14    5   39 1
    15    6   11 ar
    16    6    7 ar
    17    7    8 ar
    18    7   40 1
    19    8    9 ar
    20    8   41 1
    21    9   10 ar
    22    9   12 1
    23   10   11 ar
    24   10   42 1
    25   11   43 1
    26   12   13 1
    27   13   14 1
    28   13   44 1
    29   13   45 1
    30   14   15 1
    31   14   46 1
    32   14   47 1
    33   15   20 1
    34   15   16 1
    35   16   17 1
    36   16   48 1
    37   16   49 1
    38   17   18 1
    39   17   50 1
    40   17   51 1
    41   18   19 2
    42   18   21 1
    43   19   20 1
    44   19   52 1
    45   20   53 1
    46   20   54 1
    47   21   26 ar
    48   21   22 ar
    49   22   23 ar
    50   22   55 1
    51   23   24 ar
    52   23   56 1
    53   24   25 ar
    54   24   57 1
    55   25   26 ar
    56   25   28 1
    57   26   27 1
    58   29   30 2
    59   29   31 1
@<TRIPOS>MOLECULE
CHEMBL477095
   56    59     0     0     0
SMALL
USER_CHARGES

@<TRIPOS>ATOM
      1 C1         -0.0184    1.5028    0.0103 C.3       1 <0>        -0.0673
      2 C2          0.0021   -0.0041    0.0020 C.2       1 <0>        -0.0457
      3 C3         -1.0705   -0.8164    0.0025 C.2       1 <0>         0.0002
      4 N1         -0.6270   -2.0826   -0.0064 N.2       1 <0>        -0.4589
      5 C4          0.6851   -2.0676   -0.0123 C.2       1 <0>         0.2236
      6 O1          1.0981   -0.7883   -0.0131 O.3       1 <0>        -0.1962
      7 C5          1.5619   -3.2577   -0.0227 C.ar      1 <0>        -0.0139
      8 C6          1.0059   -4.5378   -0.0330 C.ar      1 <0>        -0.0708
      9 C7          1.8298   -5.6443   -0.0432 C.ar      1 <0>        -0.1203
     10 C8          3.2044   -5.4871   -0.0433 C.ar      1 <0>        -0.1032
     11 C9          3.7620   -4.2209   -0.0327 C.ar      1 <0>        -0.1218
     12 C10         2.9493   -3.1060   -0.0282 C.ar      1 <0>        -0.0921
     13 C11        -2.5133   -0.3814    0.0119 C.3       1 <0>        -0.0368
     14 C12        -3.0085   -0.2260   -1.4274 C.3       1 <0>        -0.1076
     15 C13        -4.4733    0.2157   -1.4179 C.3       1 <0>        -0.0716
     16 C14        -4.9610    0.3688   -2.8355 C.ar      1 <0>        -0.0882
     17 C15        -4.8340    1.5837   -3.4827 C.ar      1 <0>        -0.1442
     18 C16        -5.2814    1.7242   -4.7831 C.ar      1 <0>        -0.1187
     19 C17        -5.8554    0.6496   -5.4365 C.ar      1 <0>        -0.0810
     20 C18        -5.9816   -0.5655   -4.7895 C.ar      1 <0>        -0.0129
     21 C19        -5.5303   -0.7071   -3.4906 C.ar      1 <0>        -0.1412
     22 C20        -6.3440    0.8031   -6.8538 C.3       1 <0>        -0.0617
     23 C21        -5.2116    0.4597   -7.8236 C.3       1 <0>         0.0601
     24 H1         -4.3396    1.0728   -7.5957 H         1 <0>         0.0871
     25 C22        -4.8525   -0.9969   -7.6812 C.2       1 <0>         0.4900
     26 O2         -4.4214   -1.6151   -8.6396 O.co2     1 <0>        -0.6727
     27 O3         -4.9931   -1.5573   -6.6075 O.co2     1 <0>        -0.6659
     28 N2         -5.6482    0.7230   -9.1970 N.pl3     1 <0>        -0.4036
     29 C23        -6.7119    0.1386   -9.8182 C.2       1 <0>         0.0116
     30 C24        -6.7942    0.6347  -11.0694 C.2       1 <0>        -0.2239
     31 C25        -5.7427    1.5593  -11.2265 C.2       1 <0>        -0.2155
     32 C26        -5.0615    1.5973  -10.0633 C.2       1 <0>        -0.0210
     33 H2          1.0042    1.8801    0.0026 H         1 <0>         0.0769
     34 H3         -0.5455    1.8639   -0.8728 H         1 <0>         0.0915
     35 H4         -0.5286    1.8543    0.9071 H         1 <0>         0.0890
     36 H5         -0.0670   -4.6619   -0.0326 H         1 <0>         0.1393
     37 H6          1.4008   -6.6354   -0.0508 H         1 <0>         0.1323
     38 H7          3.8450   -6.3565   -0.0513 H         1 <0>         0.1276
     39 H8          4.8357   -4.1050   -0.0321 H         1 <0>         0.1296
     40 H9          3.3858   -2.1181   -0.0249 H         1 <0>         0.1292
     41 H10        -3.1156   -1.1316    0.5243 H         1 <0>         0.0818
     42 H11        -2.6018    0.5726    0.5316 H         1 <0>         0.0792
     43 H12        -2.4061    0.5242   -1.9398 H         1 <0>         0.0625
     44 H13        -2.9200   -1.1800   -1.9471 H         1 <0>         0.0698
     45 H14        -5.0756   -0.5344   -0.9055 H         1 <0>         0.0687
     46 H15        -4.5618    1.1697   -0.8982 H         1 <0>         0.0663
     47 H16        -4.3855    2.4232   -2.9723 H         1 <0>         0.1087
     48 H17        -5.1827    2.6735   -5.2885 H         1 <0>         0.1085
     49 H18        -6.4304   -1.4048   -5.2999 H         1 <0>         0.1373
     50 H19        -5.6255   -1.6575   -2.9865 H         1 <0>         0.1112
     51 H20        -7.1842    0.1297   -7.0233 H         1 <0>         0.0700
     52 H21        -6.6640    1.8320   -7.0184 H         1 <0>         0.0600
     53 H22        -7.3741   -0.5955   -9.3834 H         1 <0>         0.1472
     54 H23        -7.5307    0.3716  -11.8143 H         1 <0>         0.1249
     55 H24        -5.5251    2.1352  -12.1138 H         1 <0>         0.1244
     56 H25        -4.1987    2.2124   -9.8546 H         1 <0>         0.1481
@<TRIPOS>BOND
     1    1    2 1
     2    1   33 1
     3    1   34 1
     4    1   35 1
     5    2    6 1
     6    2    3 2
     7    3    4 1
     8    3   13 1
     9    4    5 2
    10    5    6 1
    11    5    7 1
    12    7   12 ar
    13    7    8 ar
    14    8    9 ar
    15    8   36 1
    16    9   10 ar
    17    9   37 1
    18   10   11 ar
    19   10   38 1
    20   11   12 ar
    21   11   39 1
    22   12   40 1
    23   13   14 1
    24   13   41 1
    25   13   42 1
    26   14   15 1
    27   14   43 1
    28   14   44 1
    29   15   16 1
    30   15   45 1
    31   15   46 1
    32   16   21 ar
    33   16   17 ar
    34   17   18 ar
    35   17   47 1
    36   18   19 ar
    37   18   48 1
    38   19   20 ar
    39   19   22 1
    40   20   21 ar
    41   20   49 1
    42   21   50 1
    43   22   23 1
    44   22   51 1
    45   22   52 1
    46   23   24 1
    47   23   25 1
    48   23   28 1
    49   25   26 2
    50   25   27 1
    51   28   32 1
    52   28   29 1
    53   29   30 2
    54   29   53 1
    55   30   31 1
    56   30   54 1
    57   31   32 2
    58   31   55 1
    59   32   56 1
@<TRIPOS>MOLECULE
CHEMBL333304
   45    47     0     0     0
SMALL
USER_CHARGES

@<TRIPOS>ATOM
      1 C1         -0.0178    1.4608    0.0101 C.3       1 <0>         0.0556
      2 N1          0.0021   -0.0041    0.0020 N.pl3     1 <0>        -0.5910
      3 C2          0.0241   -0.7433    1.2666 C.3       1 <0>         0.1145
      4 C3         -1.4105   -1.0203    1.7205 C.3       1 <0>         0.0306
      5 O1         -2.0465   -1.8923    0.7840 O.3       1 <0>        -0.3203
      6 C4         -3.3348   -2.2400    1.0412 C.ar      1 <0>         0.1254
      7 C5         -3.9756   -1.7474    2.1688 C.ar      1 <0>        -0.2040
      8 C6         -5.2854   -2.1021    2.4278 C.ar      1 <0>        -0.0654
      9 C7         -5.9575   -2.9475    1.5646 C.ar      1 <0>        -0.1221
     10 C8         -5.3210   -3.4402    0.4404 C.ar      1 <0>        -0.0603
     11 C9         -4.0133   -3.0837    0.1736 C.ar      1 <0>        -0.1461
     12 C10        -7.3862   -3.3331    1.8499 C.3       1 <0>        -0.0555
     13 C11        -8.3282   -2.3252    1.1885 C.3       1 <0>        -0.0697
     14 H1         -8.0909   -1.3060    1.4933 H         1 <0>         0.1596
     15 C12        -9.7859   -2.6623    1.4695 C.2       1 <0>         0.5292
     16 O2        -10.2448   -2.6686    2.5917 O.2       1 <0>        -0.4534
     17 N2        -10.5170   -2.9474    0.4052 N.am      1 <0>        -0.6890
     18 C13       -10.0318   -2.9469   -0.8502 C.2       1 <0>         0.5657
     19 O3        -10.6238   -3.1938   -1.8830 O.2       1 <0>        -0.4109
     20 S1         -8.3132   -2.4970   -0.6448 S.3       1 <0>        -0.1554
     21 C14         0.0000   -0.6925   -1.2055 C.ar      1 <0>         0.4449
     22 C15         0.0132   -2.0839   -1.2060 C.ar      1 <0>        -0.1767
     23 C16         0.0110   -2.7560   -2.4146 C.ar      1 <0>         0.0308
     24 C17        -0.0044   -2.0117   -3.5870 C.ar      1 <0>        -0.1664
     25 C18        -0.0170   -0.6335   -3.5127 C.ar      1 <0>         0.1393
     26 N3         -0.0200   -0.0186   -2.3450 N.ar      1 <0>        -0.5040
     27 H2          1.0048    1.8381    0.0023 H         1 <0>         0.0863
     28 H3         -0.5450    1.8219   -0.8730 H         1 <0>         0.0733
     29 H4         -0.5280    1.8123    0.9069 H         1 <0>         0.1054
     30 H5          0.5496   -1.6879    1.1262 H         1 <0>         0.1083
     31 H6          0.5371   -0.1514    2.0246 H         1 <0>         0.1284
     32 H7         -1.3961   -1.4911    2.7035 H         1 <0>         0.0918
     33 H8         -1.9619   -0.0816    1.7754 H         1 <0>         0.0738
     34 H9         -3.4507   -1.0876    2.8437 H         1 <0>         0.1287
     35 H10        -5.7846   -1.7188    3.3055 H         1 <0>         0.1320
     36 H11        -5.8481   -4.1007   -0.2321 H         1 <0>         0.1384
     37 H12        -3.5179   -3.4652   -0.7070 H         1 <0>         0.1298
     38 H13        -7.5805   -4.3285    1.4504 H         1 <0>         0.0942
     39 H14        -7.5539   -3.3347    2.9269 H         1 <0>         0.1083
     40 H15       -11.4523   -3.1688    0.5362 H         1 <0>         0.4215
     41 H16         0.0254   -2.6314   -0.2752 H         1 <0>         0.1791
     42 H17         0.0214   -3.8355   -2.4461 H         1 <0>         0.1728
     43 H18        -0.0062   -2.5062   -4.5471 H         1 <0>         0.1796
     44 H19        -0.0287   -0.0508   -4.4219 H         1 <0>         0.2049
     45 H20        -0.0329    0.9510   -2.3209 H         1 <0>         0.4380
@<TRIPOS>BOND
     1    1    2 1
     2    1   27 1
     3    1   28 1
     4    1   29 1
     5    2    3 1
     6    2   21 1
     7    3    4 1
     8    3   30 1
     9    3   31 1
    10    4    5 1
    11    4   32 1
    12    4   33 1
    13    5    6 1
    14    6   11 ar
    15    6    7 ar
    16    7    8 ar
    17    7   34 1
    18    8    9 ar
    19    8   35 1
    20    9   10 ar
    21    9   12 1
    22   10   11 ar
    23   10   36 1
    24   11   37 1
    25   12   13 1
    26   12   38 1
    27   12   39 1
    28   13   14 1
    29   13   20 1
    30   13   15 1
    31   15   16 2
    32   15   17 am
    33   17   18 am
    34   17   40 1
    35   18   19 2
    36   18   20 1
    37   21   26 ar
    38   21   22 ar
    39   22   23 ar
    40   22   41 1
    41   23   24 ar
    42   23   42 1
    43   24   25 ar
    44   24   43 1
    45   25   26 ar
    46   25   44 1
    47   26   45 1
@<TRIPOS>MOLECULE
CHEMBL333304__1
   44    46     0     0     0
SMALL
USER_CHARGES

@<TRIPOS>ATOM
      1 C1         -0.0178    1.4608    0.0101 C.3       1 <0>         0.0945
      2 N1          0.0021   -0.0041    0.0020 N.pl3     1 <0>        -0.6142
      3 C2          0.0241   -0.7433    1.2666 C.3       1 <0>         0.1321
      4 C3         -1.4105   -1.0203    1.7205 C.3       1 <0>         0.0411
      5 O1         -2.0465   -1.8923    0.7840 O.3       1 <0>        -0.2835
      6 C4         -3.3348   -2.2400    1.0412 C.ar      1 <0>         0.1409
      7 C5         -3.9756   -1.7474    2.1688 C.ar      1 <0>        -0.2139
      8 C6         -5.2854   -2.1021    2.4278 C.ar      1 <0>        -0.0668
      9 C7         -5.9575   -2.9475    1.5646 C.ar      1 <0>        -0.1417
     10 C8         -5.3210   -3.4402    0.4404 C.ar      1 <0>        -0.0611
     11 C9         -4.0133   -3.0837    0.1736 C.ar      1 <0>        -0.1489
     12 C10        -7.3862   -3.3331    1.8499 C.3       1 <0>        -0.0487
     13 C11        -8.3282   -2.3252    1.1885 C.3       1 <0>        -0.0711
     14 H1         -8.0909   -1.3060    1.4933 H         1 <0>         0.1601
     15 C12        -9.7859   -2.6623    1.4695 C.2       1 <0>         0.5303
     16 O2        -10.2448   -2.6686    2.5917 O.2       1 <0>        -0.4587
     17 N2        -10.5170   -2.9474    0.4052 N.am      1 <0>        -0.6898
     18 C13       -10.0318   -2.9469   -0.8502 C.2       1 <0>         0.5609
     19 O3        -10.6238   -3.1938   -1.8830 O.2       1 <0>        -0.4172
     20 S1         -8.3132   -2.4970   -0.6448 S.3       1 <0>        -0.1415
     21 C14         0.0000   -0.6925   -1.2055 C.ar      1 <0>         0.4038
     22 C15         0.0901    0.0128   -2.4015 C.ar      1 <0>        -0.2402
     23 C16         0.0870   -0.6849   -3.5956 C.ar      1 <0>        -0.0374
     24 C17        -0.0066   -2.0699   -3.5538 C.ar      1 <0>        -0.2340
     25 C18        -0.0930   -2.7051   -2.3314 C.ar      1 <0>         0.1464
     26 N3         -0.0823   -2.0140   -1.2072 N.ar      1 <0>        -0.5186
     27 H2          1.0048    1.8381    0.0023 H         1 <0>         0.0541
     28 H3         -0.5450    1.8219   -0.8730 H         1 <0>         0.0704
     29 H4         -0.5280    1.8123    0.9069 H         1 <0>         0.0696
     30 H5          0.5496   -1.6879    1.1262 H         1 <0>         0.0964
     31 H6          0.5371   -0.1514    2.0246 H         1 <0>         0.0936
     32 H7         -1.3961   -1.4911    2.7035 H         1 <0>         0.0686
     33 H8         -1.9619   -0.0816    1.7754 H         1 <0>         0.0586
     34 H9         -3.4507   -1.0876    2.8437 H         1 <0>         0.1263
     35 H10        -5.7846   -1.7188    3.3055 H         1 <0>         0.1256
     36 H11        -5.8481   -4.1007   -0.2321 H         1 <0>         0.1327
     37 H12        -3.5179   -3.4652   -0.7070 H         1 <0>         0.1303
     38 H13        -7.5805   -4.3285    1.4504 H         1 <0>         0.0900
     39 H14        -7.5539   -3.3347    2.9269 H         1 <0>         0.1041
     40 H15       -11.4523   -3.1688    0.5362 H         1 <0>         0.4181
     41 H16         0.1612    1.0904   -2.3974 H         1 <0>         0.1282
     42 H17         0.1553   -0.1643   -4.5394 H         1 <0>         0.1296
     43 H18        -0.0120   -2.6441   -4.4685 H         1 <0>         0.1287
     44 H19        -0.1662   -3.7820   -2.2944 H         1 <0>         0.1520
@<TRIPOS>BOND
     1    1    2 1
     2    1   27 1
     3    1   28 1
     4    1   29 1
     5    2    3 1
     6    2   21 1
     7    3    4 1
     8    3   30 1
     9    3   31 1
    10    4    5 1
    11    4   32 1
    12    4   33 1
    13    5    6 1
    14    6   11 ar
    15    6    7 ar
    16    7    8 ar
    17    7   34 1
    18    8    9 ar
    19    8   35 1
    20    9   10 ar
    21    9   12 1
    22   10   11 ar
    23   10   36 1
    24   11   37 1
    25   12   13 1
    26   12   38 1
    27   12   39 1
    28   13   14 1
    29   13   20 1
    30   13   15 1
    31   15   16 2
    32   15   17 am
    33   17   18 am
    34   17   40 1
    35   18   19 2
    36   18   20 1
    37   21   26 ar
    38   21   22 ar
    39   22   23 ar
    40   22   41 1
    41   23   24 ar
    42   23   42 1
    43   24   25 ar
    44   24   43 1
    45   25   26 ar
    46   25   44 1
@<TRIPOS>MOLECULE
CHEMBL520272
   61    63     0     0     0
SMALL
USER_CHARGES

@<TRIPOS>ATOM
      1 C1          0.3753    2.0714    2.5401 C.3       1 <0>        -0.1191
      2 C2          0.3188    0.5959    2.2390 C.ar      1 <0>        -0.0677
      3 C3          0.2173    0.1638    0.9286 C.ar      1 <0>        -0.1226
      4 C4          0.1646   -1.1856    0.6462 C.ar      1 <0>        -0.0862
      5 C5          0.2145   -2.1155    1.6858 C.ar      1 <0>        -0.0225
      6 C6          0.3174   -1.6729    3.0054 C.ar      1 <0>        -0.0659
      7 C7          0.3744   -0.3208    3.2738 C.ar      1 <0>        -0.1220
      8 C8          0.1581   -3.5629    1.3905 C.2       1 <0>         0.2275
      9 N1          0.1913   -4.5280    2.2789 N.2       1 <0>        -0.4620
     10 C9          0.1193   -5.7041    1.6376 C.2       1 <0>        -0.0021
     11 C10         0.0398   -5.4502    0.3187 C.2       1 <0>        -0.0451
     12 O1          0.0584   -4.1111    0.1671 O.3       1 <0>        -0.1962
     13 C11        -0.0579   -6.4729   -0.7839 C.3       1 <0>        -0.0684
     14 C12         0.1266   -7.0672    2.2800 C.3       1 <0>        -0.0384
     15 C13        -1.3099   -7.4922    2.5912 C.3       1 <0>        -0.1107
     16 C14        -1.3024   -8.8761    3.2435 C.3       1 <0>        -0.1139
     17 C15        -2.7389   -9.3010    3.5546 C.3       1 <0>        -0.1150
     18 C16        -2.7314  -10.6850    4.2069 C.3       1 <0>         0.0737
     19 O2         -4.0731  -11.0819    4.4976 O.3       1 <0>        -0.2447
     20 N2         -4.1777  -12.3559    5.1066 N.2       1 <0>        -0.3403
     21 C17        -5.3398  -12.8295    5.4196 C.2       1 <0>         0.1870
     22 C18        -5.4445  -14.1154    6.1984 C.3       1 <0>        -0.0400
     23 C19        -5.4512  -13.8052    7.6966 C.3       1 <0>        -0.1752
     24 C20        -5.5560  -15.0911    8.4754 C.2       1 <0>         0.4938
     25 O3         -5.6194  -16.1569    7.8867 O.co2     1 <0>        -0.6955
     26 O4         -5.5773  -15.0656    9.6942 O.co2     1 <0>        -0.7020
     27 C21        -6.5638  -12.1104    5.0139 C.ar      1 <0>        -0.0902
     28 C22        -6.6161  -11.4544    3.7826 C.ar      1 <0>        -0.0788
     29 C23        -7.7628  -10.7843    3.4098 C.ar      1 <0>        -0.1309
     30 C24        -8.8594  -10.7611    4.2532 C.ar      1 <0>        -0.1119
     31 C25        -8.8144  -11.4091    5.4748 C.ar      1 <0>        -0.1266
     32 C26        -7.6761  -12.0882    5.8574 C.ar      1 <0>        -0.0874
     33 H1          1.4135    2.4035    2.5366 H         1 <0>         0.0744
     34 H2         -0.1837    2.6188    1.7812 H         1 <0>         0.0691
     35 H3         -0.0629    2.2593    3.5203 H         1 <0>         0.0700
     36 H4          0.1788    0.8844    0.1251 H         1 <0>         0.1300
     37 H5          0.0847   -1.5216   -0.3771 H         1 <0>         0.1299
     38 H6          0.3561   -2.3873    3.8144 H         1 <0>         0.1390
     39 H7          0.4581    0.0229    4.2942 H         1 <0>         0.1322
     40 H8         -1.1066   -6.6935   -0.9829 H         1 <0>         0.0859
     41 H9          0.4083   -6.0791   -1.6870 H         1 <0>         0.0781
     42 H10         0.4539   -7.3857   -0.4791 H         1 <0>         0.0943
     43 H11         0.5791   -7.7877    1.5986 H         1 <0>         0.0812
     44 H12         0.7029   -7.0301    3.2045 H         1 <0>         0.0833
     45 H13        -1.7623   -6.7717    3.2727 H         1 <0>         0.0673
     46 H14        -1.8861   -7.5293    1.6667 H         1 <0>         0.0631
     47 H15        -0.8499   -9.5965    2.5620 H         1 <0>         0.0667
     48 H16        -0.7262   -8.8390    4.1680 H         1 <0>         0.0682
     49 H17        -3.1914   -8.5806    4.2361 H         1 <0>         0.0700
     50 H18        -3.3151   -9.3382    2.6302 H         1 <0>         0.0683
     51 H19        -2.2790  -11.4054    3.5255 H         1 <0>         0.0519
     52 H20        -2.1552  -10.6478    5.1314 H         1 <0>         0.0536
     53 H21        -6.3677  -14.6289    5.9296 H         1 <0>         0.0887
     54 H22        -4.5923  -14.7531    5.9632 H         1 <0>         0.0870
     55 H23        -4.5281  -13.2917    7.9655 H         1 <0>         0.0621
     56 H24        -6.3034  -13.1675    7.9318 H         1 <0>         0.0606
     57 H25        -5.7605  -11.4712    3.1237 H         1 <0>         0.1252
     58 H26        -7.8046  -10.2765    2.4576 H         1 <0>         0.1201
     59 H27        -9.7545  -10.2344    3.9567 H         1 <0>         0.1196
     60 H28        -9.6737  -11.3867    6.1285 H         1 <0>         0.1246
     61 H29        -7.6439  -12.5976    6.8091 H         1 <0>         0.1349
@<TRIPOS>BOND
     1    1    2 1
     2    1   33 1
     3    1   34 1
     4    1   35 1
     5    2    7 ar
     6    2    3 ar
     7    3    4 ar
     8    3   36 1
     9    4    5 ar
    10    4   37 1
    11    5    6 ar
    12    5    8 1
    13    6    7 ar
    14    6   38 1
    15    7   39 1
    16    8   12 1
    17    8    9 2
    18    9   10 1
    19   10   11 2
    20   10   14 1
    21   11   12 1
    22   11   13 1
    23   13   40 1
    24   13   41 1
    25   13   42 1
    26   14   15 1
    27   14   43 1
    28   14   44 1
    29   15   16 1
    30   15   45 1
    31   15   46 1
    32   16   17 1
    33   16   47 1
    34   16   48 1
    35   17   18 1
    36   17   49 1
    37   17   50 1
    38   18   19 1
    39   18   51 1
    40   18   52 1
    41   19   20 1
    42   20   21 2
    43   21   22 1
    44   21   27 1
    45   22   23 1
    46   22   53 1
    47   22   54 1
    48   23   24 1
    49   23   55 1
    50   23   56 1
    51   24   25 2
    52   24   26 1
    53   27   32 ar
    54   27   28 ar
    55   28   29 ar
    56   28   57 1
    57   29   30 ar
    58   29   58 1
    59   30   31 ar
    60   30   59 1
    61   31   32 ar
    62   31   60 1
    63   32   61 1
@<TRIPOS>MOLECULE
CHEMBL454508
   75    79     0     0     0
SMALL
USER_CHARGES

@<TRIPOS>ATOM
      1 C1         -1.0951    0.9663   -1.2220 C.3       1 <0>        -0.1529
      2 C2         -1.1653   -0.5614   -1.2681 C.3       1 <0>        -0.1151
      3 C3         -0.5563   -1.0605   -2.5799 C.3       1 <0>        -0.0735
      4 C4         -0.6254   -2.5652   -2.6254 C.ar      1 <0>        -0.1070
      5 C5          0.4294   -3.3369   -2.1104 C.ar      1 <0>        -0.0111
      6 C6          1.5659   -2.7340   -1.5441 C.ar      1 <0>        -0.0918
      7 C7          2.5810   -3.4935   -1.0482 C.ar      1 <0>        -0.1131
      8 C8          2.5404   -4.8805   -1.0793 C.ar      1 <0>        -0.0830
      9 C9          1.4472   -5.5438   -1.6246 C.ar      1 <0>        -0.1302
     10 C10         0.3440   -4.7498   -2.1632 C.ar      1 <0>        -0.0517
     11 C11        -0.7860   -5.3561   -2.7251 C.ar      1 <0>        -0.0771
     12 C12        -1.7936   -4.5816   -3.2162 C.ar      1 <0>        -0.1737
     13 C13        -1.7169   -3.1872   -3.1626 C.ar      1 <0>         0.1364
     14 O1         -2.7394   -2.4400   -3.6555 O.3       1 <0>        -0.3034
     15 C14        -3.8535   -3.1468   -4.2045 C.3       1 <0>         0.0628
     16 C15        -4.8962   -2.1454   -4.7053 C.3       1 <0>        -0.1402
     17 C16        -6.0890   -2.9021   -5.2930 C.3       1 <0>         0.1221
     18 N1         -7.0874   -1.9432   -5.7725 N.pl3     1 <0>        -0.4866
     19 C17        -8.1661   -1.5059   -5.0537 C.2       1 <0>         0.0403
     20 C18        -8.8793   -0.6335   -5.7833 C.2       1 <0>        -0.2059
     21 C19        -8.2024   -0.5009   -7.0757 C.ar      1 <0>        -0.0789
     22 C20        -7.0769   -1.3423   -7.0137 C.ar      1 <0>         0.0608
     23 C21        -6.2224   -1.4254   -8.1076 C.ar      1 <0>        -0.1137
     24 C22        -6.4791   -0.6843   -9.2397 C.ar      1 <0>        -0.1184
     25 C23        -7.5903    0.1522   -9.3029 C.ar      1 <0>         0.1505
     26 C24        -8.4555    0.2422   -8.2305 C.ar      1 <0>        -0.1407
     27 O2         -7.8288    0.8774  -10.4282 O.3       1 <0>        -0.3039
     28 C25        -6.9767    0.6345  -11.5493 C.3       1 <0>         0.0302
     29 C26        -7.0851   -0.8343  -11.9636 C.3       1 <0>        -0.1710
     30 C27        -7.4034    1.5265  -12.7169 C.3       1 <0>        -0.1136
     31 C28        -5.5511    0.9466  -11.1737 C.2       1 <0>         0.4811
     32 O3         -5.2890    1.3405  -10.0500 O.co2     1 <0>        -0.6681
     33 O4         -4.6597    0.8052  -11.9934 O.co2     1 <0>        -0.6873
     34 C29         1.4014   -7.0158   -1.6595 C.2       1 <0>         0.4491
     35 O5          1.1692   -7.6412   -0.6426 O.2       1 <0>        -0.4383
     36 C30         1.6377   -7.7325   -2.9301 C.ar      1 <0>        -0.1689
     37 C31         2.0229   -7.0271   -4.0723 C.ar      1 <0>        -0.0612
     38 C32         2.2417   -7.7024   -5.2549 C.ar      1 <0>        -0.1318
     39 C33         2.0799   -9.0756   -5.3114 C.ar      1 <0>        -0.0843
     40 C34         1.6984   -9.7808   -4.1835 C.ar      1 <0>        -0.1340
     41 C35         1.4823   -9.1191   -2.9928 C.ar      1 <0>        -0.0616
     42 H1         -0.0543    1.2843   -1.2835 H         1 <0>         0.0530
     43 H2         -1.6520    1.3812   -2.0621 H         1 <0>         0.0576
     44 H3         -1.5290    1.3219   -0.2874 H         1 <0>         0.0533
     45 H4         -0.6084   -0.9762   -0.4280 H         1 <0>         0.0589
     46 H5         -2.2061   -0.8793   -1.2066 H         1 <0>         0.0633
     47 H6         -1.1132   -0.6457   -3.4201 H         1 <0>         0.0823
     48 H7          0.4845   -0.7426   -2.6415 H         1 <0>         0.0723
     49 H8          1.6347   -1.6570   -1.5023 H         1 <0>         0.1338
     50 H9          3.4421   -3.0031   -0.6189 H         1 <0>         0.1293
     51 H10         3.3654   -5.4494   -0.6767 H         1 <0>         0.1276
     52 H11        -0.8584   -6.4327   -2.7694 H         1 <0>         0.1258
     53 H12        -2.6642   -5.0513   -3.6495 H         1 <0>         0.1335
     54 H13        -3.5168   -3.7668   -5.0353 H         1 <0>         0.0659
     55 H14        -4.2971   -3.7793   -3.4356 H         1 <0>         0.0638
     56 H15        -5.2329   -1.5254   -3.8744 H         1 <0>         0.0809
     57 H16        -4.4525   -1.5129   -5.4742 H         1 <0>         0.0865
     58 H17        -5.7523   -3.5221   -6.1239 H         1 <0>         0.0848
     59 H18        -6.5326   -3.5346   -4.5241 H         1 <0>         0.0867
     60 H19        -8.4080   -1.8164   -4.0480 H         1 <0>         0.1592
     61 H20        -9.7815   -0.1256   -5.4758 H         1 <0>         0.1397
     62 H21        -5.3573   -2.0709   -8.0693 H         1 <0>         0.1097
     63 H22        -5.8120   -0.7524  -10.0863 H         1 <0>         0.1448
     64 H23        -9.3164    0.8925   -8.2802 H         1 <0>         0.1201
     65 H24        -8.1283   -1.0796  -12.1627 H         1 <0>         0.0513
     66 H25        -6.4941   -1.0025  -12.8638 H         1 <0>         0.0711
     67 H26        -6.7102   -1.4673  -11.1593 H         1 <0>         0.0662
     68 H27        -7.2429    2.5719  -12.4531 H         1 <0>         0.0559
     69 H28        -6.8116    1.2793  -13.5982 H         1 <0>         0.0753
     70 H29        -8.4597    1.3639  -12.9312 H         1 <0>         0.0510
     71 H30         2.1488   -5.9553   -4.0297 H         1 <0>         0.1316
     72 H31         2.5396   -7.1582   -6.1389 H         1 <0>         0.1310
     73 H32         2.2518   -9.5993   -6.2402 H         1 <0>         0.1286
     74 H33         1.5735  -10.8524   -4.2347 H         1 <0>         0.1299
     75 H34         1.1889   -9.6712   -2.1122 H         1 <0>         0.1334
@<TRIPOS>BOND
     1    1    2 1
     2    1   42 1
     3    1   43 1
     4    1   44 1
     5    2    3 1
     6    2   45 1
     7    2   46 1
     8    3    4 1
     9    3   47 1
    10    3   48 1
    11    4   13 ar
    12    4    5 ar
    13    5   10 ar
    14    5    6 ar
    15    6    7 ar
    16    6   49 1
    17    7    8 ar
    18    7   50 1
    19    8    9 ar
    20    8   51 1
    21    9   10 ar
    22    9   34 1
    23   10   11 ar
    24   11   12 ar
    25   11   52 1
    26   12   13 ar
    27   12   53 1
    28   13   14 1
    29   14   15 1
    30   15   16 1
    31   15   54 1
    32   15   55 1
    33   16   17 1
    34   16   56 1
    35   16   57 1
    36   17   18 1
    37   17   58 1
    38   17   59 1
    39   18   22 1
    40   18   19 1
    41   19   20 2
    42   19   60 1
    43   20   21 1
    44   20   61 1
    45   21   26 ar
    46   21   22 ar
    47   22   23 ar
    48   23   24 ar
    49   23   62 1
    50   24   25 ar
    51   24   63 1
    52   25   26 ar
    53   25   27 1
    54   26   64 1
    55   27   28 1
    56   28   29 1
    57   28   30 1
    58   28   31 1
    59   29   65 1
    60   29   66 1
    61   29   67 1
    62   30   68 1
    63   30   69 1
    64   30   70 1
    65   31   32 2
    66   31   33 1
    67   34   35 2
    68   34   36 1
    69   36   41 ar
    70   36   37 ar
    71   37   38 ar
    72   37   71 1
    73   38   39 ar
    74   38   72 1
    75   39   40 ar
    76   39   73 1
    77   40   41 ar
    78   40   74 1
    79   41   75 1
@<TRIPOS>MOLECULE
CHEMBL400625
   49    51     0     0     0
SMALL
USER_CHARGES

@<TRIPOS>ATOM
      1 C1          0.2753    1.1890   -0.1587 C.3       1 <0>        -0.0961
      2 C2          0.1609   -0.3095   -0.0466 C.ar      1 <0>        -0.1220
      3 C3          0.2118   -1.0926   -1.1830 C.ar      1 <0>        -0.0688
      4 C4          0.1063   -2.4737   -1.0794 C.ar      1 <0>        -0.1338
      5 C5         -0.0504   -3.0658    0.1677 C.ar      1 <0>        -0.1075
      6 C6         -0.1011   -2.2810    1.3025 C.ar      1 <0>        -0.1344
      7 C7          0.0101   -0.9020    1.1983 C.ar      1 <0>         0.1733
      8 O1         -0.0339   -0.1302    2.3173 O.3       1 <0>        -0.2966
      9 C8         -0.0637   -0.8104    3.5737 C.3       1 <0>         0.0286
     10 C9          1.1832   -1.6868    3.7089 C.3       1 <0>        -0.1738
     11 C10        -0.0914    0.2155    4.7085 C.3       1 <0>        -0.1147
     12 C11        -1.2958   -1.6749    3.6479 C.2       1 <0>         0.4812
     13 O2         -2.0761   -1.7058    2.7116 O.co2     1 <0>        -0.6686
     14 O3         -1.5123   -2.3435    4.6442 O.co2     1 <0>        -0.6850
     15 S1          0.1706   -3.4741   -2.5285 S.3       1 <0>        -0.1001
     16 C12        -0.0049   -5.1671   -1.9011 C.3       1 <0>        -0.0282
     17 C13         0.0341   -6.1366   -3.0542 C.2       1 <0>         0.2799
     18 N1         -1.0659   -6.4878   -3.6752 N.2       1 <0>        -0.4973
     19 C14        -0.9585   -7.3441   -4.6809 C.2       1 <0>         0.0828
     20 S2          0.6954   -7.6383   -4.7318 S.3       1 <0>         0.3156
     21 N2          1.1702   -6.6469   -3.4661 N.2       1 <0>        -0.4498
     22 C15        -2.0252   -7.9005   -5.5416 C.ar      1 <0>         0.0082
     23 C16        -3.3538   -7.5242   -5.3422 C.ar      1 <0>        -0.0632
     24 C17        -4.3442   -8.0467   -6.1483 C.ar      1 <0>        -0.0694
     25 C18        -4.0220   -8.9421   -7.1526 C.ar      1 <0>        -0.1640
     26 C19        -2.7065   -9.3192   -7.3554 C.ar      1 <0>        -0.0685
     27 C20        -1.7062   -8.7994   -6.5598 C.ar      1 <0>        -0.0908
     28 C21        -5.1088   -9.5093   -8.0290 C.3       1 <0>         0.5083
     29 F1         -5.2883   -8.6827   -9.1434 F         1 <0>        -0.1737
     30 F2         -4.7439  -10.7915   -8.4535 F         1 <0>        -0.1754
     31 F3         -6.3031   -9.5804   -7.3040 F         1 <0>        -0.1739
     32 H1          1.3242    1.4790   -0.0960 H         1 <0>         0.0613
     33 H2         -0.1350    1.5142   -1.1147 H         1 <0>         0.0588
     34 H3         -0.2804    1.6576    0.6535 H         1 <0>         0.0698
     35 H4          0.3333   -0.6313   -2.1520 H         1 <0>         0.1239
     36 H5         -0.1329   -4.1396    0.2495 H         1 <0>         0.1139
     37 H6         -0.2229   -2.7410    2.2720 H         1 <0>         0.1441
     38 H7          2.0591   -1.0533    3.8487 H         1 <0>         0.0518
     39 H8          1.0715   -2.3473    4.5687 H         1 <0>         0.0754
     40 H9          1.3072   -2.2840    2.8056 H         1 <0>         0.0661
     41 H10        -0.9332    0.8931    4.5652 H         1 <0>         0.0572
     42 H11        -0.1989   -0.3007    5.6625 H         1 <0>         0.0785
     43 H12         0.8379    0.7851    4.7062 H         1 <0>         0.0509
     44 H13         0.8123   -5.3865   -1.2141 H         1 <0>         0.1155
     45 H14        -0.9559   -5.2637   -1.3773 H         1 <0>         0.1201
     46 H15        -3.6066   -6.8256   -4.5583 H         1 <0>         0.1529
     47 H16        -5.3731   -7.7565   -5.9948 H         1 <0>         0.1472
     48 H17        -2.4615  -10.0188   -8.1409 H         1 <0>         0.1471
     49 H18        -0.6791   -9.0911   -6.7220 H         1 <0>         0.1432
@<TRIPOS>BOND
     1    1    2 1
     2    1   32 1
     3    1   33 1
     4    1   34 1
     5    2    7 ar
     6    2    3 ar
     7    3    4 ar
     8    3   35 1
     9    4    5 ar
    10    4   15 1
    11    5    6 ar
    12    5   36 1
    13    6    7 ar
    14    6   37 1
    15    7    8 1
    16    8    9 1
    17    9   10 1
    18    9   11 1
    19    9   12 1
    20   10   38 1
    21   10   39 1
    22   10   40 1
    23   11   41 1
    24   11   42 1
    25   11   43 1
    26   12   13 2
    27   12   14 1
    28   15   16 1
    29   16   17 1
    30   16   44 1
    31   16   45 1
    32   17   21 2
    33   17   18 1
    34   18   19 2
    35   19   20 1
    36   19   22 1
    37   20   21 1
    38   22   27 ar
    39   22   23 ar
    40   23   24 ar
    41   23   46 1
    42   24   25 ar
    43   24   47 1
    44   25   26 ar
    45   25   28 1
    46   26   27 ar
    47   26   48 1
    48   27   49 1
    49   28   29 1
    50   28   30 1
    51   28   31 1
@<TRIPOS>MOLECULE
CHEMBL246279
   65    68     0     0     0
SMALL
USER_CHARGES

@<TRIPOS>ATOM
      1 C1         -0.0187    1.5258    0.0104 C.3       1 <0>        -0.1430
      2 C2          0.0021   -0.0041    0.0020 C.3       1 <0>         0.0658
      3 O1         -1.3386   -0.4987    0.0122 O.3       1 <0>        -0.3677
      4 C3         -1.4321   -1.9246    0.0054 C.3       1 <0>         0.0329
      5 H1         -0.5629   -2.3481    0.5087 H         1 <0>         0.0489
      6 C4         -2.7050   -2.3557    0.7365 C.3       1 <0>        -0.0607
      7 C5         -2.6049   -1.9696    2.1898 C.ar      1 <0>        -0.0958
      8 C6         -2.0530   -2.8506    3.1014 C.ar      1 <0>        -0.0822
      9 C7         -1.9604   -2.4992    4.4343 C.ar      1 <0>        -0.1509
     10 C8         -2.4214   -1.2611    4.8576 C.ar      1 <0>         0.1106
     11 C9         -2.9743   -0.3788    3.9408 C.ar      1 <0>        -0.2083
     12 C10        -3.0599   -0.7329    2.6083 C.ar      1 <0>        -0.0622
     13 O2         -2.3319   -0.9133    6.1683 O.3       1 <0>        -0.3150
     14 C11        -2.8265    0.3770    6.5324 C.3       1 <0>         0.0900
     15 C12        -2.6447    0.5850    8.0138 C.2       1 <0>        -0.1347
     16 C13        -2.1634    1.7336    8.4677 C.2       1 <0>        -0.1068
     17 C14        -1.9851    1.9377    9.9211 C.ar      1 <0>        -0.0450
     18 C15        -2.3177    0.9203   10.8142 C.ar      1 <0>        -0.1010
     19 C16        -2.1495    1.1133   12.1821 C.ar      1 <0>        -0.0392
     20 C17        -1.6494    2.3220   12.6587 C.ar      1 <0>        -0.1004
     21 C18        -1.3170    3.3387   11.7675 C.ar      1 <0>        -0.0412
     22 C19        -1.4790    3.1455   10.3989 C.ar      1 <0>        -0.0954
     23 C20        -0.7839    4.6268   12.2769 C.ar      1 <0>        -0.0436
     24 C21        -0.6098    4.8190   13.6458 C.ar      1 <0>        -0.1115
     25 C22        -0.1132    6.0186   14.1140 C.ar      1 <0>        -0.1175
     26 C23         0.2114    7.0291   13.2269 C.ar      1 <0>        -0.1194
     27 C24         0.0400    6.8438   11.8670 C.ar      1 <0>        -0.1164
     28 C25        -0.4504    5.6460   11.3875 C.ar      1 <0>        -0.1100
     29 C26        -2.5040    0.0305   13.1332 C.ar      1 <0>        -0.0448
     30 C27        -2.3422    0.2229   14.5036 C.ar      1 <0>        -0.1114
     31 C28        -2.6738   -0.7873   15.3836 C.ar      1 <0>        -0.1178
     32 C29        -3.1660   -1.9890   14.9073 C.ar      1 <0>        -0.1188
     33 C30        -3.3282   -2.1855   13.5478 C.ar      1 <0>        -0.1155
     34 C31        -3.0051   -1.1800   12.6592 C.ar      1 <0>        -0.1092
     35 C32        -1.4785   -2.4182   -1.4177 C.2       1 <0>         0.4774
     36 O3         -1.4355   -1.6227   -2.3406 O.co2     1 <0>        -0.6806
     37 O4         -1.5590   -3.6131   -1.6462 O.co2     1 <0>        -0.6997
     38 H2          1.0039    1.9031    0.0027 H         1 <0>         0.0598
     39 H3         -0.5459    1.8868   -0.8726 H         1 <0>         0.0623
     40 H4         -0.5289    1.8773    0.9072 H         1 <0>         0.0531
     41 H5          0.5123   -0.3556   -0.8948 H         1 <0>         0.0472
     42 H6          0.5293   -0.3651    0.8851 H         1 <0>         0.0293
     43 H7         -3.5668   -1.8615    0.2879 H         1 <0>         0.0727
     44 H8         -2.8227   -3.4363    0.6549 H         1 <0>         0.0885
     45 H9         -1.6943   -3.8143    2.7713 H         1 <0>         0.1289
     46 H10        -1.5299   -3.1879    5.1461 H         1 <0>         0.1253
     47 H11        -3.3339    0.5856    4.2680 H         1 <0>         0.1217
     48 H12        -3.4862   -0.0446    1.8934 H         1 <0>         0.1263
     49 H13        -2.2761    1.1441    5.9876 H         1 <0>         0.0686
     50 H14        -3.8855    0.4437    6.2833 H         1 <0>         0.0744
     51 H15        -2.9066   -0.2018    8.7058 H         1 <0>         0.1233
     52 H16        -1.9015    2.5204    7.7758 H         1 <0>         0.1250
     53 H17        -2.7060   -0.0173   10.4447 H         1 <0>         0.1312
     54 H18        -1.5195    2.4712   13.7204 H         1 <0>         0.1287
     55 H19        -1.2166    3.9325    9.7074 H         1 <0>         0.1301
     56 H20        -0.8632    4.0308   14.3393 H         1 <0>         0.1239
     57 H21         0.0218    6.1688   15.1750 H         1 <0>         0.1240
     58 H22         0.5996    7.9662   13.5976 H         1 <0>         0.1227
     59 H23         0.2947    7.6362   11.1787 H         1 <0>         0.1250
     60 H24        -0.5796    5.5008   10.3251 H         1 <0>         0.1265
     61 H25        -1.9576    1.1607   14.8765 H         1 <0>         0.1237
     62 H26        -2.5484   -0.6393   16.4461 H         1 <0>         0.1240
     63 H27        -3.4242   -2.7768   15.5995 H         1 <0>         0.1229
     64 H28        -3.7126   -3.1259   13.1813 H         1 <0>         0.1257
     65 H29        -3.1364   -1.3329   11.5982 H         1 <0>         0.1259
@<TRIPOS>BOND
     1    1    2 1
     2    1   38 1
     3    1   39 1
     4    1   40 1
     5    2    3 1
     6    2   41 1
     7    2   42 1
     8    3    4 1
     9    4    5 1
    10    4    6 1
    11    4   35 1
    12    6    7 1
    13    6   43 1
    14    6   44 1
    15    7   12 ar
    16    7    8 ar
    17    8    9 ar
    18    8   45 1
    19    9   10 ar
    20    9   46 1
    21   10   11 ar
    22   10   13 1
    23   11   12 ar
    24   11   47 1
    25   12   48 1
    26   13   14 1
    27   14   15 1
    28   14   49 1
    29   14   50 1
    30   15   16 2
    31   15   51 1
    32   16   17 1
    33   16   52 1
    34   17   22 ar
    35   17   18 ar
    36   18   19 ar
    37   18   53 1
    38   19   20 ar
    39   19   29 1
    40   20   21 ar
    41   20   54 1
    42   21   22 ar
    43   21   23 1
    44   22   55 1
    45   23   28 ar
    46   23   24 ar
    47   24   25 ar
    48   24   56 1
    49   25   26 ar
    50   25   57 1
    51   26   27 ar
    52   26   58 1
    53   27   28 ar
    54   27   59 1
    55   28   60 1
    56   29   34 ar
    57   29   30 ar
    58   30   31 ar
    59   30   61 1
    60   31   32 ar
    61   31   62 1
    62   32   33 ar
    63   32   63 1
    64   33   34 ar
    65   33   64 1
    66   34   65 1
    67   35   36 2
    68   35   37 1
@<TRIPOS>MOLECULE
CHEMBL149438
   68    70     0     0     0
SMALL
USER_CHARGES

@<TRIPOS>ATOM
      1 C1         -0.4739    2.2611   -0.7308 C.3       1 <0>        -0.1487
      2 C2         -0.4447    0.7363   -0.6089 C.3       1 <0>        -0.1417
      3 C3         -1.8763    0.1964   -0.6182 C.3       1 <0>         0.1276
      4 N1         -1.8484   -1.2636   -0.5015 N.am      1 <0>        -0.5548
      5 C4         -1.7872   -2.1528   -1.5466 C.2       1 <0>         0.2769
      6 N2         -1.7792   -3.3563   -1.0712 N.2       1 <0>        -0.2668
      7 N3         -1.8364   -3.2736    0.3269 N.am      1 <0>        -0.4491
      8 C5         -1.8725   -1.9639    0.6503 C.2       1 <0>         0.6441
      9 O1         -1.9207   -1.5000    1.7755 O.2       1 <0>        -0.5613
     10 C6         -1.8483   -4.3999    1.2637 C.3       1 <0>         0.1643
     11 C7         -3.2935   -4.8245    1.5323 C.3       1 <0>        -0.1043
     12 C8         -3.9146   -5.3643    0.2423 C.3       1 <0>        -0.1097
     13 C9         -5.3597   -5.7889    0.5109 C.3       1 <0>        -0.1196
     14 C10        -5.3796   -6.8809    1.5824 C.3       1 <0>        -0.1202
     15 C11        -4.7585   -6.3412    2.8723 C.3       1 <0>        -0.1170
     16 C12        -3.3134   -5.9166    2.6037 C.3       1 <0>        -0.1108
     17 C13        -1.7375   -1.7868   -3.0077 C.3       1 <0>        -0.0438
     18 C14        -1.6757   -3.0619   -3.8510 C.3       1 <0>        -0.1039
     19 C15        -1.6253   -2.6903   -5.3344 C.3       1 <0>        -0.0663
     20 C16        -1.5645   -3.9462   -6.1651 C.ar      1 <0>        -0.1402
     21 C17        -0.3399   -4.4978   -6.4934 C.ar      1 <0>        -0.0897
     22 C18        -0.2814   -5.6488   -7.2551 C.ar      1 <0>        -0.1710
     23 C19        -1.4528   -6.2514   -7.6904 C.ar      1 <0>         0.1670
     24 C20        -2.6802   -5.6961   -7.3592 C.ar      1 <0>        -0.1573
     25 C21        -2.7335   -4.5480   -6.5929 C.ar      1 <0>        -0.0895
     26 O2         -1.3979   -7.3834   -8.4403 O.3       1 <0>        -0.3043
     27 C22        -2.6404   -8.0186   -8.7480 C.3       1 <0>         0.0304
     28 C23        -2.3767   -9.2887   -9.5594 C.3       1 <0>        -0.1153
     29 C24        -3.3619   -8.3838   -7.4492 C.3       1 <0>        -0.1753
     30 C25        -3.4997   -7.0778   -9.5527 C.2       1 <0>         0.4821
     31 O3         -3.0865   -5.9664   -9.8363 O.co2     1 <0>        -0.6696
     32 O4         -4.6083   -7.4281   -9.9201 O.co2     1 <0>        -0.6872
     33 H1          0.5460    2.6457   -0.7242 H         1 <0>         0.0612
     34 H2         -0.9619    2.5417   -1.6641 H         1 <0>         0.0598
     35 H3         -1.0264    2.6823    0.1091 H         1 <0>         0.0578
     36 H4          0.1079    0.3151   -1.4488 H         1 <0>         0.0697
     37 H5          0.0434    0.4556    0.3245 H         1 <0>         0.0684
     38 H6         -2.4288    0.6176    0.2217 H         1 <0>         0.0933
     39 H7         -2.3643    0.4771   -1.5515 H         1 <0>         0.0945
     40 H8         -1.2979   -5.2364    0.8331 H         1 <0>         0.0943
     41 H9         -1.3781   -4.0989    2.1998 H         1 <0>         0.0917
     42 H10        -3.8663   -3.9646    1.8792 H         1 <0>         0.0727
     43 H11        -3.9004   -4.5863   -0.5210 H         1 <0>         0.0659
     44 H12        -3.3417   -6.2242   -0.1046 H         1 <0>         0.0654
     45 H13        -5.9326   -4.9289    0.8579 H         1 <0>         0.0568
     46 H14        -5.8022   -6.1734   -0.4080 H         1 <0>         0.0633
     47 H15        -6.4092   -7.1834    1.7737 H         1 <0>         0.0595
     48 H16        -4.8068   -7.7409    1.2354 H         1 <0>         0.0628
     49 H17        -5.3314   -5.4812    3.2193 H         1 <0>         0.0602
     50 H18        -4.7727   -7.1192    3.6356 H         1 <0>         0.0623
     51 H19        -2.7405   -6.7765    2.2567 H         1 <0>         0.0668
     52 H20        -2.8709   -5.5321    3.5226 H         1 <0>         0.0638
     53 H21        -2.6306   -1.2201   -3.2708 H         1 <0>         0.0958
     54 H22        -0.8525   -1.1804   -3.2004 H         1 <0>         0.0956
     55 H23        -0.7826   -3.6286   -3.5879 H         1 <0>         0.0738
     56 H24        -2.5608   -3.6682   -3.6583 H         1 <0>         0.0742
     57 H25        -2.5184   -2.1235   -5.5975 H         1 <0>         0.0672
     58 H26        -0.7403   -2.0839   -5.5271 H         1 <0>         0.0665
     59 H27         0.5717   -4.0283   -6.1543 H         1 <0>         0.1154
     60 H28         0.6754   -6.0789   -7.5119 H         1 <0>         0.1180
     61 H29        -3.5935   -6.1634   -7.6969 H         1 <0>         0.1381
     62 H30        -3.6889   -4.1178   -6.3311 H         1 <0>         0.1120
     63 H31        -1.8280  -10.0039   -8.9466 H         1 <0>         0.0500
     64 H32        -3.3261   -9.7269   -9.8672 H         1 <0>         0.0779
     65 H33        -1.7880   -9.0400  -10.4425 H         1 <0>         0.0565
     66 H34        -3.4331   -7.5018   -6.8127 H         1 <0>         0.0700
     67 H35        -4.3634   -8.7472   -7.6798 H         1 <0>         0.0738
     68 H36        -2.8034   -9.1626   -6.9299 H         1 <0>         0.0500
@<TRIPOS>BOND
     1    1    2 1
     2    1   33 1
     3    1   34 1
     4    1   35 1
     5    2    3 1
     6    2   36 1
     7    2   37 1
     8    3    4 1
     9    3   38 1
    10    3   39 1
    11    4    8 am
    12    4    5 1
    13    5    6 2
    14    5   17 1
    15    6    7 1
    16    7    8 am
    17    7   10 1
    18    8    9 2
    19   10   11 1
    20   10   40 1
    21   10   41 1
    22   11   16 1
    23   11   12 1
    24   11   42 1
    25   12   13 1
    26   12   43 1
    27   12   44 1
    28   13   14 1
    29   13   45 1
    30   13   46 1
    31   14   15 1
    32   14   47 1
    33   14   48 1
    34   15   16 1
    35   15   49 1
    36   15   50 1
    37   16   51 1
    38   16   52 1
    39   17   18 1
    40   17   53 1
    41   17   54 1
    42   18   19 1
    43   18   55 1
    44   18   56 1
    45   19   20 1
    46   19   57 1
    47   19   58 1
    48   20   25 ar
    49   20   21 ar
    50   21   22 ar
    51   21   59 1
    52   22   23 ar
    53   22   60 1
    54   23   24 ar
    55   23   26 1
    56   24   25 ar
    57   24   61 1
    58   25   62 1
    59   26   27 1
    60   27   28 1
    61   27   29 1
    62   27   30 1
    63   28   63 1
    64   28   64 1
    65   28   65 1
    66   29   66 1
    67   29   67 1
    68   29   68 1
    69   30   31 2
    70   30   32 1
@<TRIPOS>MOLECULE
CHEMBL148639
   68    70     0     0     0
SMALL
USER_CHARGES

@<TRIPOS>ATOM
      1 C1         -0.3242    2.5662   -0.4028 C.3       1 <0>        -0.1388
      2 C2         -0.1864    1.0444   -0.3250 C.3       1 <0>        -0.0315
      3 C3          0.6037    0.6674    0.9297 C.3       1 <0>        -0.1377
      4 C4         -1.5768    0.4090   -0.2622 C.3       1 <0>        -0.1457
      5 C5          0.5404    0.5427   -1.5461 C.ar      1 <0>        -0.0596
      6 C6         -0.0780   -0.3513   -2.3999 C.ar      1 <0>        -0.1257
      7 C7          0.5887   -0.8115   -3.5200 C.ar      1 <0>        -0.0855
      8 C8          1.8738   -0.3774   -3.7864 C.ar      1 <0>        -0.1249
      9 C9          2.4919    0.5173   -2.9330 C.ar      1 <0>        -0.0915
     10 C10         1.8236    0.9808   -1.8153 C.ar      1 <0>        -0.1220
     11 C11         2.6010   -0.8798   -5.0070 C.3       1 <0>         0.2030
     12 N1          2.3285    0.0098   -6.1385 N.am      1 <0>        -0.4476
     13 C12         3.0468    1.0958   -6.4932 C.2       1 <0>         0.6456
     14 O1          4.0418    1.5174   -5.9311 O.2       1 <0>        -0.5608
     15 N2          2.4605    1.6280   -7.5843 N.am      1 <0>        -0.5592
     16 C13         1.3678    0.8602   -7.9056 C.2       1 <0>         0.2785
     17 N3          1.2770   -0.1126   -7.0572 N.2       1 <0>        -0.2679
     18 C14         0.4316    1.1070   -9.0604 C.3       1 <0>        -0.0430
     19 C15        -0.6551    0.0300   -9.0751 C.3       1 <0>        -0.1043
     20 C16        -1.6056    0.2806  -10.2476 C.3       1 <0>        -0.0663
     21 C17        -2.6759   -0.7802  -10.2621 C.ar      1 <0>        -0.1403
     22 C18        -2.4763   -1.9525  -10.9675 C.ar      1 <0>        -0.0897
     23 C19        -3.4561   -2.9262  -10.9827 C.ar      1 <0>        -0.1710
     24 C20        -4.6409   -2.7273  -10.2890 C.ar      1 <0>         0.1669
     25 C21        -4.8386   -1.5503   -9.5815 C.ar      1 <0>        -0.1574
     26 C22        -3.8536   -0.5819   -9.5652 C.ar      1 <0>        -0.0896
     27 O2         -5.6065   -3.6835  -10.3028 O.3       1 <0>        -0.3042
     28 C23        -6.7457   -3.4671   -9.4676 C.3       1 <0>         0.0304
     29 C24        -7.6981   -4.6588   -9.5855 C.3       1 <0>        -0.1153
     30 C25        -6.2917   -3.3189   -8.0141 C.3       1 <0>        -0.1752
     31 C26        -7.4562   -2.2113   -9.9026 C.2       1 <0>         0.4822
     32 O3         -7.0268   -1.5617  -10.8407 O.co2     1 <0>        -0.6696
     33 O4         -8.4604   -1.8448   -9.3162 O.co2     1 <0>        -0.6872
     34 C27         2.9116    2.8216   -8.3042 C.3       1 <0>         0.0951
     35 H1          0.6663    3.0189   -0.4476 H         1 <0>         0.0560
     36 H2         -0.8872    2.8348   -1.2967 H         1 <0>         0.0567
     37 H3         -0.8500    2.9291    0.4803 H         1 <0>         0.0588
     38 H4          0.0780    1.0302    1.8129 H         1 <0>         0.0583
     39 H5          0.7019   -0.4168    0.9852 H         1 <0>         0.0566
     40 H6          1.5943    1.1200    0.8850 H         1 <0>         0.0562
     41 H7         -2.1398    0.6776   -1.1561 H         1 <0>         0.0603
     42 H8         -1.4787   -0.6752   -0.2067 H         1 <0>         0.0596
     43 H9         -2.1026    0.7718    0.6210 H         1 <0>         0.0584
     44 H10        -1.0820   -0.6905   -2.1918 H         1 <0>         0.1287
     45 H11         0.1058   -1.5105   -4.1867 H         1 <0>         0.1261
     46 H12         3.4961    0.8563   -3.1410 H         1 <0>         0.1239
     47 H13         2.3051    1.6827   -1.1505 H         1 <0>         0.1200
     48 H14         3.6728   -0.8984   -4.8093 H         1 <0>         0.1006
     49 H15         2.2580   -1.8866   -5.2455 H         1 <0>         0.1030
     50 H16        -0.0305    2.0880   -8.9503 H         1 <0>         0.0964
     51 H17         0.9908    1.0717   -9.9954 H         1 <0>         0.0965
     52 H18        -0.1929   -0.9510   -9.1853 H         1 <0>         0.0741
     53 H19        -1.2143    0.0653   -8.1402 H         1 <0>         0.0740
     54 H20        -2.0677    1.2616  -10.1375 H         1 <0>         0.0673
     55 H21        -1.0464    0.2453  -11.1826 H         1 <0>         0.0668
     56 H22        -1.5538   -2.1069  -11.5074 H         1 <0>         0.1156
     57 H23        -3.3000   -3.8414  -11.5345 H         1 <0>         0.1181
     58 H24        -5.7601   -1.3931   -9.0407 H         1 <0>         0.1381
     59 H25        -4.0051    0.3326   -9.0110 H         1 <0>         0.1120
     60 H26        -7.2134   -5.5517   -9.1910 H         1 <0>         0.0500
     61 H27        -8.6055   -4.4564   -9.0164 H         1 <0>         0.0778
     62 H28        -7.9541   -4.8171  -10.6331 H         1 <0>         0.0565
     63 H29        -5.5152   -2.5565   -7.9519 H         1 <0>         0.0700
     64 H30        -7.1403   -3.0244   -7.3966 H         1 <0>         0.0738
     65 H31        -5.8962   -4.2702   -7.6582 H         1 <0>         0.0500
     66 H32         3.8034    3.2215   -7.8216 H         1 <0>         0.0930
     67 H33         3.1442    2.5574   -9.3358 H         1 <0>         0.0786
     68 H34         2.1229    3.5737   -8.2907 H         1 <0>         0.0782
@<TRIPOS>BOND
     1    1    2 1
     2    1   35 1
     3    1   36 1
     4    1   37 1
     5    2    3 1
     6    2    4 1
     7    2    5 1
     8    3   38 1
     9    3   39 1
    10    3   40 1
    11    4   41 1
    12    4   42 1
    13    4   43 1
    14    5   10 ar
    15    5    6 ar
    16    6    7 ar
    17    6   44 1
    18    7    8 ar
    19    7   45 1
    20    8    9 ar
    21    8   11 1
    22    9   10 ar
    23    9   46 1
    24   10   47 1
    25   11   12 1
    26   11   48 1
    27   11   49 1
    28   12   17 1
    29   12   13 am
    30   13   14 2
    31   13   15 am
    32   15   16 1
    33   15   34 1
    34   16   17 2
    35   16   18 1
    36   18   19 1
    37   18   50 1
    38   18   51 1
    39   19   20 1
    40   19   52 1
    41   19   53 1
    42   20   21 1
    43   20   54 1
    44   20   55 1
    45   21   26 ar
    46   21   22 ar
    47   22   23 ar
    48   22   56 1
    49   23   24 ar
    50   23   57 1
    51   24   25 ar
    52   24   27 1
    53   25   26 ar
    54   25   58 1
    55   26   59 1
    56   27   28 1
    57   28   29 1
    58   28   30 1
    59   28   31 1
    60   29   60 1
    61   29   61 1
    62   29   62 1
    63   30   63 1
    64   30   64 1
    65   30   65 1
    66   31   32 2
    67   31   33 1
    68   34   66 1
    69   34   67 1
    70   34   68 1
@<TRIPOS>MOLECULE
CHEMBL253923
   49    51     0     0     0
SMALL
USER_CHARGES

@<TRIPOS>ATOM
      1 C1         -0.0167    1.3790    0.0096 C.ar      1 <0>        -0.1025
      2 C2          1.1676    2.0878    0.0021 C.ar      1 <0>        -0.1044
      3 C3          2.3836    1.4076   -0.0131 C.ar      1 <0>        -0.0577
      4 C4          2.3965    0.0142   -0.0207 C.ar      1 <0>        -0.1045
      5 C5          1.2063   -0.6844   -0.0130 C.ar      1 <0>        -0.1026
      6 C6          0.0021   -0.0041    0.0020 C.ar      1 <0>        -0.0521
      7 C7         -1.2943   -0.7725    0.0107 C.3       1 <0>        -0.1082
      8 C8         -1.7404   -1.0210   -1.4071 C.2       1 <0>         0.5095
      9 O1         -1.0716   -0.6142   -2.3334 O.2       1 <0>        -0.5398
     10 N1         -2.8827   -1.6953   -1.6457 N.am      1 <0>        -0.7221
     11 C9         -3.3165   -1.9369   -3.0240 C.3       1 <0>         0.1803
     12 C10        -4.6128   -2.7054   -3.0153 C.ar      1 <0>        -0.2171
     13 C11        -4.5951   -4.0881   -3.0172 C.ar      1 <0>        -0.0574
     14 C12        -5.7813   -4.7954   -3.0093 C.ar      1 <0>        -0.1747
     15 C13        -6.9930   -4.1163   -2.9993 C.ar      1 <0>         0.2853
     16 C14        -7.0071   -2.7272   -2.9975 C.ar      1 <0>        -0.2594
     17 C15        -5.8173   -2.0261   -2.9998 C.ar      1 <0>        -0.0437
     18 N2         -8.1945   -4.8285   -2.9917 N.2       1 <0>        -1.0569
     19 S1         -9.6380   -4.0170   -2.9799 S.o2      1 <0>         2.5058
     20 O2         -9.6497   -3.3158   -1.7441 O.2       1 <0>        -0.9577
     21 O3         -9.6676   -3.3118   -4.2133 O.2       1 <0>        -0.9568
     22 C16       -10.9034   -5.3167   -2.9728 C.3       1 <0>        -0.0070
     23 F1        -10.7479   -6.1127   -1.8329 F         1 <0>        -0.1647
     24 F2        -12.1737   -4.7307   -2.9626 F         1 <0>        -0.1838
     25 F3        -10.7645   -6.1091   -4.1174 F         1 <0>        -0.1644
     26 C17         3.6600    2.1642   -0.0217 C.ar      1 <0>        -0.0304
     27 C18         3.6467    3.5575   -0.0089 C.ar      1 <0>        -0.1015
     28 C19         4.8364    4.2567   -0.0170 C.ar      1 <0>        -0.1063
     29 C20         6.0418    3.5760   -0.0383 C.ar      1 <0>        -0.0391
     30 C21         6.0602    2.1918   -0.0512 C.ar      1 <0>        -0.1063
     31 C22         4.8759    1.4836   -0.0369 C.ar      1 <0>        -0.1015
     32 Cl1         7.5351    4.4612   -0.0496 Cl        1 <0>        -0.0731
     33 H1         -0.9597    1.9052    0.0260 H         1 <0>         0.1242
     34 H2          1.1518    3.1677    0.0077 H         1 <0>         0.1248
     35 H3          3.3362   -0.5180   -0.0328 H         1 <0>         0.1248
     36 H4          1.2152   -1.7644   -0.0192 H         1 <0>         0.1243
     37 H5         -1.1480   -1.7261    0.5180 H         1 <0>         0.1039
     38 H6         -2.0555   -0.1949    0.5352 H         1 <0>         0.1039
     39 H7         -3.4176   -2.0207   -0.9048 H         1 <0>         0.4024
     40 H8         -3.4627   -0.9833   -3.5313 H         1 <0>         0.0646
     41 H9         -2.5552   -2.5145   -3.5485 H         1 <0>         0.0658
     42 H10        -3.6527   -4.6155   -3.0253 H         1 <0>         0.1095
     43 H11        -5.7668   -5.8753   -3.0111 H         1 <0>         0.1180
     44 H12        -7.9475   -2.1961   -2.9902 H         1 <0>         0.1013
     45 H13        -5.8275   -0.9462   -2.9939 H         1 <0>         0.1059
     46 H14         2.7069    4.0894    0.0071 H         1 <0>         0.1358
     47 H15         4.8272    5.3366   -0.0070 H         1 <0>         0.1348
     48 H16         7.0030    1.6653   -0.0678 H         1 <0>         0.1348
     49 H17         4.8913    0.4038   -0.0424 H         1 <0>         0.1358
@<TRIPOS>BOND
     1    1    6 ar
     2    1    2 ar
     3    1   33 1
     4    2    3 ar
     5    2   34 1
     6    3    4 ar
     7    3   26 1
     8    4    5 ar
     9    4   35 1
    10    5    6 ar
    11    5   36 1
    12    6    7 1
    13    7    8 1
    14    7   37 1
    15    7   38 1
    16    8    9 2
    17    8   10 am
    18   10   11 1
    19   10   39 1
    20   11   12 1
    21   11   40 1
    22   11   41 1
    23   12   17 ar
    24   12   13 ar
    25   13   14 ar
    26   13   42 1
    27   14   15 ar
    28   14   43 1
    29   15   16 ar
    30   15   18 1
    31   16   17 ar
    32   16   44 1
    33   17   45 1
    34   18   19 1
    35   19   20 2
    36   19   21 2
    37   19   22 1
    38   22   23 1
    39   22   24 1
    40   22   25 1
    41   26   31 ar
    42   26   27 ar
    43   27   28 ar
    44   27   46 1
    45   28   29 ar
    46   28   47 1
    47   29   30 ar
    48   29   32 1
    49   30   31 ar
    50   30   48 1
    51   31   49 1
@<TRIPOS>MOLECULE
CHEMBL253923__1
   50    52     0     0     0
SMALL
USER_CHARGES

@<TRIPOS>ATOM
      1 C1          0.0076    1.3952   -0.1066 C.ar      1 <0>        -0.1011
      2 C2          1.1802    2.1225   -0.1370 C.ar      1 <0>        -0.1051
      3 C3          2.4042    1.4626   -0.2255 C.ar      1 <0>        -0.0484
      4 C4          2.4370    0.0708   -0.2829 C.ar      1 <0>        -0.1053
      5 C5          1.2583   -0.6465   -0.2518 C.ar      1 <0>        -0.1014
      6 C6          0.0460    0.0137   -0.1639 C.ar      1 <0>        -0.0635
      7 C7         -1.2376   -0.7750   -0.1298 C.3       1 <0>        -0.1037
      8 C8         -1.7380   -0.9811   -1.5363 C.2       1 <0>         0.5146
      9 O1         -1.1137   -0.5318   -2.4740 O.2       1 <0>        -0.5251
     10 N1         -2.8793   -1.6648   -1.7521 N.am      1 <0>        -0.7308
     11 C9         -3.3657   -1.8652   -3.1194 C.3       1 <0>         0.1597
     12 C10        -4.6494   -2.6539   -3.0854 C.ar      1 <0>        -0.1041
     13 C11        -4.6118   -4.0353   -3.1369 C.ar      1 <0>        -0.0828
     14 C12        -5.7863   -4.7612   -3.1059 C.ar      1 <0>        -0.1147
     15 C13        -7.0063   -4.1022   -3.0229 C.ar      1 <0>         0.1205
     16 C14        -7.0404   -2.7144   -2.9713 C.ar      1 <0>        -0.1390
     17 C15        -5.8619   -1.9949   -2.9970 C.ar      1 <0>        -0.0759
     18 N2         -8.1960   -4.8332   -2.9918 N.pl3     1 <0>        -1.0224
     19 S1         -9.3688   -4.4594   -1.8840 S.o2      1 <0>         2.6042
     20 O2         -9.6243   -3.0753   -2.0794 O.2       1 <0>        -0.8659
     21 O3        -10.3913   -5.4223   -2.0996 O.2       1 <0>        -0.8753
     22 C16        -8.5875   -4.7287   -0.2691 C.3       1 <0>        -0.0368
     23 F1         -7.5455   -3.8112   -0.0964 F         1 <0>        -0.1559
     24 F2         -9.5367   -4.5524    0.7434 F         1 <0>        -0.1579
     25 F3         -8.0776   -6.0301   -0.2090 F         1 <0>        -0.1579
     26 C17         3.6682    2.2393   -0.2591 C.ar      1 <0>        -0.0378
     27 C18         3.6353    3.6309   -0.1964 C.ar      1 <0>        -0.0996
     28 C19         4.8135    4.3487   -0.2280 C.ar      1 <0>        -0.1064
     29 C20         6.0266    3.6885   -0.3223 C.ar      1 <0>        -0.0358
     30 C21         6.0645    2.3060   -0.3849 C.ar      1 <0>        -0.1064
     31 C22         4.8921    1.5791   -0.3477 C.ar      1 <0>        -0.0997
     32 Cl1         7.5053    4.5972   -0.3628 Cl        1 <0>        -0.0684
     33 H1         -0.9414    1.9055   -0.0334 H         1 <0>         0.1236
     34 H2          1.1491    3.2012   -0.0925 H         1 <0>         0.1267
     35 H3          3.3830   -0.4457   -0.3520 H         1 <0>         0.1265
     36 H4          1.2825   -1.7253   -0.2966 H         1 <0>         0.1233
     37 H5         -1.0569   -1.7433    0.3370 H         1 <0>         0.1052
     38 H6         -1.9849   -0.2282    0.4452 H         1 <0>         0.1056
     39 H7         -3.3786   -2.0242   -1.0022 H         1 <0>         0.4029
     40 H8         -3.5465   -0.8970   -3.5863 H         1 <0>         0.0806
     41 H9         -2.6184   -2.4120   -3.6945 H         1 <0>         0.0800
     42 H10        -3.6630   -4.5471   -3.2019 H         1 <0>         0.1353
     43 H11        -5.7563   -5.8400   -3.1466 H         1 <0>         0.1371
     44 H12        -7.9872   -2.1989   -2.9070 H         1 <0>         0.1593
     45 H13        -5.8874   -0.9161   -2.9524 H         1 <0>         0.1378
     46 H14        -8.3354   -5.5598   -3.6191 H         1 <0>         0.4411
     47 H15         2.6894    4.1469   -0.1235 H         1 <0>         0.1355
     48 H16         4.7890    5.4274   -0.1795 H         1 <0>         0.1362
     49 H17         7.0133    1.7954   -0.4584 H         1 <0>         0.1361
     50 H18         4.9229    0.5004   -0.3920 H         1 <0>         0.1354
@<TRIPOS>BOND
     1    1    6 ar
     2    1    2 ar
     3    1   33 1
     4    2    3 ar
     5    2   34 1
     6    3    4 ar
     7    3   26 1
     8    4    5 ar
     9    4   35 1
    10    5    6 ar
    11    5   36 1
    12    6    7 1
    13    7    8 1
    14    7   37 1
    15    7   38 1
    16    8    9 2
    17    8   10 am
    18   10   11 1
    19   10   39 1
    20   11   12 1
    21   11   40 1
    22   11   41 1
    23   12   17 ar
    24   12   13 ar
    25   13   14 ar
    26   13   42 1
    27   14   15 ar
    28   14   43 1
    29   15   16 ar
    30   15   18 1
    31   16   17 ar
    32   16   44 1
    33   17   45 1
    34   18   19 1
    35   18   46 1
    36   19   20 2
    37   19   21 2
    38   19   22 1
    39   22   23 1
    40   22   24 1
    41   22   25 1
    42   26   31 ar
    43   26   27 ar
    44   27   28 ar
    45   27   47 1
    46   28   29 ar
    47   28   48 1
    48   29   30 ar
    49   29   32 1
    50   30   31 ar
    51   30   49 1
    52   31   50 1
@<TRIPOS>MOLECULE
CHEMBL474148
   60    64     0     0     0
SMALL
USER_CHARGES

@<TRIPOS>ATOM
      1 C1          0.3270   -1.3912   -0.4236 C.3       1 <0>        -0.0711
      2 C2         -0.0055   -2.8474   -0.6237 C.2       1 <0>        -0.0339
      3 C3         -1.2379   -3.3853   -0.6693 C.2       1 <0>        -0.0027
      4 N1         -1.1029   -4.7061   -0.8619 N.2       1 <0>        -0.4570
      5 C4          0.1759   -4.9909   -0.9353 C.2       1 <0>         0.2258
      6 O1          0.8763   -3.8520   -0.7960 O.3       1 <0>        -0.1943
      7 C5          0.7499   -6.3373   -1.1428 C.ar      1 <0>        -0.0152
      8 C6         -0.0899   -7.4429   -1.2855 C.ar      1 <0>        -0.0708
      9 C7          0.4522   -8.6966   -1.4794 C.ar      1 <0>        -0.1202
     10 C8          1.8251   -8.8593   -1.5323 C.ar      1 <0>        -0.1023
     11 C9          2.6632   -7.7676   -1.3911 C.ar      1 <0>        -0.1218
     12 C10         2.1339   -6.5076   -1.2025 C.ar      1 <0>        -0.0914
     13 C11        -2.5385   -2.6373   -0.5285 C.3       1 <0>        -0.0376
     14 C12        -3.0153   -2.1793   -1.9083 C.3       1 <0>         0.0695
     15 O2         -4.2487   -1.4699   -1.7748 O.3       1 <0>        -0.3082
     16 C13        -4.8119   -0.9917   -2.9154 C.ar      1 <0>         0.1242
     17 C14        -4.1932   -1.2058   -4.1387 C.ar      1 <0>        -0.2143
     18 C15        -4.7679   -0.7191   -5.2965 C.ar      1 <0>        -0.0903
     19 C16        -5.9590   -0.0190   -5.2372 C.ar      1 <0>        -0.1531
     20 C17        -6.5772    0.1961   -4.0196 C.ar      1 <0>        -0.0303
     21 C18        -6.0093   -0.2936   -2.8591 C.ar      1 <0>        -0.1202
     22 C19        -7.8748    0.9599   -3.9586 C.3       1 <0>        -0.0247
     23 C20        -9.0283    0.0048   -4.1266 C.2       1 <0>         0.1116
     24 C21        -9.7531   -0.5914   -3.1105 C.2       1 <0>        -0.2604
     25 C22       -10.7352   -1.4056   -3.7223 C.2       1 <0>         0.0873
     26 N2        -10.6005   -1.2983   -5.0151 N.2       1 <0>        -0.3168
     27 N3         -9.5465   -0.4205   -5.2915 N.pl3     1 <0>        -0.3356
     28 C23        -9.1039   -0.0493   -6.5684 C.ar      1 <0>         0.1748
     29 C24        -8.8181    1.2807   -6.8462 C.ar      1 <0>        -0.1349
     30 C25        -8.3821    1.6435   -8.1055 C.ar      1 <0>        -0.1009
     31 C26        -8.2301    0.6836   -9.0892 C.ar      1 <0>        -0.1311
     32 C27        -8.5139   -0.6418   -8.8156 C.ar      1 <0>        -0.1033
     33 C28        -8.9448   -1.0116   -7.5565 C.ar      1 <0>        -0.1136
     34 C29        -9.5423   -0.4129   -1.6667 C.2       1 <0>         0.5540
     35 O3        -10.2571   -1.0014   -0.8667 O.co2     1 <0>        -0.6915
     36 O4         -8.6521    0.3241   -1.2648 O.co2     1 <0>        -0.6866
     37 H1          1.4090   -1.2603   -0.4377 H         1 <0>         0.0795
     38 H2         -0.1206   -0.8029   -1.2247 H         1 <0>         0.0920
     39 H3         -0.0670   -1.0571    0.5362 H         1 <0>         0.0941
     40 H4         -1.1618   -7.3172   -1.2440 H         1 <0>         0.1397
     41 H5         -0.1966   -9.5530   -1.5896 H         1 <0>         0.1327
     42 H6          2.2444   -9.8429   -1.6843 H         1 <0>         0.1279
     43 H7          3.7341   -7.9015   -1.4327 H         1 <0>         0.1300
     44 H8          2.7891   -5.6556   -1.0972 H         1 <0>         0.1297
     45 H9         -3.2880   -3.2921   -0.0840 H         1 <0>         0.0972
     46 H10        -2.3901   -1.7678    0.1118 H         1 <0>         0.0947
     47 H11        -2.2659   -1.5244   -2.3528 H         1 <0>         0.0583
     48 H12        -3.1637   -3.0488   -2.5485 H         1 <0>         0.0625
     49 H13        -3.2628   -1.7522   -4.1855 H         1 <0>         0.1190
     50 H14        -4.2865   -0.8852   -6.2489 H         1 <0>         0.1173
     51 H15        -6.4068    0.3608   -6.1437 H         1 <0>         0.1162
     52 H16        -6.4949   -0.1293   -1.9086 H         1 <0>         0.1597
     53 H17        -7.9561    1.4617   -2.9943 H         1 <0>         0.1306
     54 H18        -7.8979    1.7015   -4.7571 H         1 <0>         0.0760
     55 H19       -11.4680   -2.0104   -3.2087 H         1 <0>         0.1882
     56 H20        -8.9370    2.0309   -6.0784 H         1 <0>         0.1323
     57 H21        -8.1600    2.6779   -8.3223 H         1 <0>         0.1292
     58 H22        -7.8894    0.9697  -10.0733 H         1 <0>         0.1242
     59 H23        -8.3946   -1.3892   -9.5860 H         1 <0>         0.1268
     60 H24        -9.1617   -2.0477   -7.3421 H         1 <0>         0.1287
@<TRIPOS>BOND
     1    1    2 1
     2    1   37 1
     3    1   38 1
     4    1   39 1
     5    2    6 1
     6    2    3 2
     7    3    4 1
     8    3   13 1
     9    4    5 2
    10    5    6 1
    11    5    7 1
    12    7   12 ar
    13    7    8 ar
    14    8    9 ar
    15    8   40 1
    16    9   10 ar
    17    9   41 1
    18   10   11 ar
    19   10   42 1
    20   11   12 ar
    21   11   43 1
    22   12   44 1
    23   13   14 1
    24   13   45 1
    25   13   46 1
    26   14   15 1
    27   14   47 1
    28   14   48 1
    29   15   16 1
    30   16   21 ar
    31   16   17 ar
    32   17   18 ar
    33   17   49 1
    34   18   19 ar
    35   18   50 1
    36   19   20 ar
    37   19   51 1
    38   20   21 ar
    39   20   22 1
    40   21   52 1
    41   22   23 1
    42   22   53 1
    43   22   54 1
    44   23   27 1
    45   23   24 2
    46   24   25 1
    47   24   34 1
    48   25   26 2
    49   25   55 1
    50   26   27 1
    51   27   28 1
    52   28   33 ar
    53   28   29 ar
    54   29   30 ar
    55   29   56 1
    56   30   31 ar
    57   30   57 1
    58   31   32 ar
    59   31   58 1
    60   32   33 ar
    61   32   59 1
    62   33   60 1
    63   34   35 2
    64   34   36 1
@<TRIPOS>MOLECULE
CHEMBL371120
   62    65     0     0     0
SMALL
USER_CHARGES

@<TRIPOS>ATOM
      1 C1          0.2568    0.9390   -0.3411 C.3       1 <0>        -0.0723
      2 C2          0.4265   -0.5273   -0.6448 C.2       1 <0>        -0.0318
      3 C3         -0.5546   -1.4450   -0.7206 C.2       1 <0>        -0.0119
      4 N1          0.0099   -2.6271   -1.0103 N.2       1 <0>        -0.4617
      5 C4          1.3071   -2.4585   -1.1136 C.2       1 <0>         0.2376
      6 O1          1.5885   -1.1620   -0.8965 O.3       1 <0>        -0.1916
      7 C5          2.2930   -3.5156   -1.4231 C.ar      1 <0>        -0.0235
      8 C6          1.8690   -4.8275   -1.6403 C.ar      1 <0>        -0.0697
      9 C7          2.7942   -5.8093   -1.9292 C.ar      1 <0>        -0.1203
     10 C8          4.1397   -5.4957   -2.0039 C.ar      1 <0>        -0.0975
     11 C9          4.5667   -4.1973   -1.7892 C.ar      1 <0>        -0.1205
     12 C10         3.6512   -3.2050   -1.5052 C.ar      1 <0>        -0.0892
     13 C11        -2.0257   -1.1904   -0.5161 C.3       1 <0>        -0.0338
     14 C12        -2.6718   -0.8293   -1.8552 C.3       1 <0>         0.0645
     15 O2         -4.0669   -0.5879   -1.6613 O.3       1 <0>        -0.3064
     16 C13        -4.7936   -0.2529   -2.7597 C.ar      1 <0>         0.1618
     17 C14        -4.1778   -0.1641   -3.9997 C.ar      1 <0>        -0.2083
     18 C15        -4.9188    0.1762   -5.1148 C.ar      1 <0>        -0.0497
     19 C16        -6.2730    0.4286   -4.9958 C.ar      1 <0>        -0.1867
     20 C17        -6.8890    0.3412   -3.7610 C.ar      1 <0>        -0.0525
     21 C18        -6.1536   -0.0047   -2.6439 C.ar      1 <0>        -0.1480
     22 C19        -7.0788    0.8001   -6.2139 C.3       1 <0>         0.0402
     23 N2         -7.6104   -0.4181   -6.8395 N.4       1 <0>        -0.3561
     24 C20        -8.2944   -0.0672   -8.0913 C.3       1 <0>         0.0398
     25 C21        -7.2912    0.4735   -9.0773 C.ar      1 <0>        -0.1399
     26 C22        -7.1078    1.8383   -9.1986 C.ar      1 <0>        -0.1021
     27 C23        -6.1876    2.3343  -10.1030 C.ar      1 <0>        -0.1207
     28 C24        -5.4505    1.4656  -10.8859 C.ar      1 <0>        -0.0974
     29 C25        -5.6332    0.1008  -10.7640 C.ar      1 <0>        -0.1167
     30 C26        -6.5504   -0.3953   -9.8565 C.ar      1 <0>        -0.0891
     31 C27        -8.5627   -1.0626   -5.9252 C.3       1 <0>        -0.0894
     32 C28        -8.9847   -2.3924   -6.4950 C.2       1 <0>         0.4886
     33 O3         -8.4513   -2.8199   -7.5046 O.co2     1 <0>        -0.6741
     34 O4         -9.8594   -3.0407   -5.9464 O.co2     1 <0>        -0.6405
     35 H1          1.2311    1.4276   -0.3534 H         1 <0>         0.0824
     36 H2         -0.3873    1.3937   -1.0938 H         1 <0>         0.0896
     37 H3         -0.1960    1.0561    0.6434 H         1 <0>         0.0938
     38 H4          0.8191   -5.0736   -1.5820 H         1 <0>         0.1385
     39 H5          2.4676   -6.8249   -2.0972 H         1 <0>         0.1340
     40 H6          4.8600   -6.2680   -2.2304 H         1 <0>         0.1303
     41 H7          5.6184   -3.9592   -1.8483 H         1 <0>         0.1321
     42 H8          3.9853   -2.1909   -1.3426 H         1 <0>         0.1302
     43 H9         -2.4975   -2.0875   -0.1153 H         1 <0>         0.0975
     44 H10        -2.1578   -0.3663    0.1849 H         1 <0>         0.0947
     45 H11        -2.2001    0.0679   -2.2560 H         1 <0>         0.0661
     46 H12        -2.5397   -1.6534   -2.5563 H         1 <0>         0.0714
     47 H13        -3.1199   -0.3605   -4.0930 H         1 <0>         0.1353
     48 H14        -4.4398    0.2454   -6.0803 H         1 <0>         0.1313
     49 H15        -7.9468    0.5392   -3.6706 H         1 <0>         0.1390
     50 H16        -6.6361   -0.0771   -1.6804 H         1 <0>         0.1423
     51 H17        -7.9048    1.4475   -5.9195 H         1 <0>         0.1268
     52 H18        -6.4412    1.3252   -6.9250 H         1 <0>         0.1277
     53 H19        -8.7698   -0.9557   -8.5069 H         1 <0>         0.1560
     54 H20        -9.0521    0.6904   -7.8913 H         1 <0>         0.1209
     55 H21        -7.6837    2.5170   -8.5870 H         1 <0>         0.1279
     56 H22        -6.0449    3.4006  -10.1983 H         1 <0>         0.1294
     57 H23        -4.7321    1.8532  -11.5930 H         1 <0>         0.1286
     58 H24        -5.0576   -0.5779  -11.3758 H         1 <0>         0.1313
     59 H25        -6.6905   -1.4617   -9.7586 H         1 <0>         0.1398
     60 H26        -8.0884   -1.2166   -4.9560 H         1 <0>         0.1266
     61 H27        -9.4383   -0.4249   -5.8039 H         1 <0>         0.1223
     62 H28        -6.8517   -1.0532   -7.0373 H         1 <0>         0.4232
@<TRIPOS>BOND
     1    1    2 1
     2    1   35 1
     3    1   36 1
     4    1   37 1
     5    2    6 1
     6    2    3 2
     7    3    4 1
     8    3   13 1
     9    4    5 2
    10    5    6 1
    11    5    7 1
    12    7   12 ar
    13    7    8 ar
    14    8    9 ar
    15    8   38 1
    16    9   10 ar
    17    9   39 1
    18   10   11 ar
    19   10   40 1
    20   11   12 ar
    21   11   41 1
    22   12   42 1
    23   13   14 1
    24   13   43 1
    25   13   44 1
    26   14   15 1
    27   14   45 1
    28   14   46 1
    29   15   16 1
    30   16   21 ar
    31   16   17 ar
    32   17   18 ar
    33   17   47 1
    34   18   19 ar
    35   18   48 1
    36   19   20 ar
    37   19   22 1
    38   20   21 ar
    39   20   49 1
    40   21   50 1
    41   22   23 1
    42   22   51 1
    43   22   52 1
    44   23   24 1
    45   23   31 1
    46   23   62 1
    47   24   25 1
    48   24   53 1
    49   24   54 1
    50   25   30 ar
    51   25   26 ar
    52   26   27 ar
    53   26   55 1
    54   27   28 ar
    55   27   56 1
    56   28   29 ar
    57   28   57 1
    58   29   30 ar
    59   29   58 1
    60   30   59 1
    61   31   32 1
    62   31   60 1
    63   31   61 1
    64   32   33 2
    65   32   34 1
@<TRIPOS>MOLECULE
CHEMBL494142
   69    72     0     0     0
SMALL
USER_CHARGES

@<TRIPOS>ATOM
      1 C1          0.5141   -0.0967   -1.4872 C.3       1 <0>        -0.1535
      2 C2          0.3480   -1.6090   -1.3251 C.3       1 <0>        -0.1156
      3 C3         -1.1295   -1.9390   -1.1035 C.3       1 <0>        -0.0737
      4 C4         -1.2931   -3.4285   -0.9439 C.ar      1 <0>        -0.1238
      5 C5         -1.6163   -4.2052   -2.0337 C.ar      1 <0>        -0.0384
      6 C6         -1.7679   -5.5873   -1.8843 C.ar      1 <0>        -0.2033
      7 C7         -1.5902   -6.1745   -0.6273 C.ar      1 <0>        -0.0219
      8 C8         -1.2672   -5.3905    0.4567 C.ar      1 <0>        -0.2199
      9 C9         -1.1118   -4.0171    0.3026 C.ar      1 <0>         0.1707
     10 O1         -0.7879   -3.2486    1.3729 O.3       1 <0>        -0.2997
     11 C10        -0.6163   -3.9177    2.6238 C.3       1 <0>         0.0613
     12 C11        -0.2568   -2.8954    3.7039 C.3       1 <0>        -0.1404
     13 C12        -0.0731   -3.6117    5.0433 C.3       1 <0>         0.1249
     14 N1          0.2711   -2.6329    6.0775 N.pl3     1 <0>        -0.4907
     15 C13         1.5447   -2.3178    6.4698 C.2       1 <0>         0.0169
     16 C14         1.5079   -1.3863    7.4353 C.2       1 <0>        -0.1686
     17 C15         0.0966   -1.0801    7.6812 C.ar      1 <0>        -0.1476
     18 C16        -0.6375   -1.8883    6.7958 C.ar      1 <0>         0.1308
     19 C17        -2.0273   -1.8131    6.7925 C.ar      1 <0>        -0.1959
     20 C18        -2.6729   -0.9489    7.6493 C.ar      1 <0>        -0.0590
     21 C19        -1.9525   -0.1466    8.5225 C.ar      1 <0>        -0.2000
     22 C20        -0.5725   -0.2101    8.5506 C.ar      1 <0>         0.2186
     23 O2          0.1312    0.5776    9.4053 O.3       1 <0>        -0.2974
     24 C21        -0.6207    1.3531   10.3409 C.3       1 <0>         0.0296
     25 C22        -1.4594    0.4214   11.2181 C.3       1 <0>        -0.1718
     26 C23         0.3367    2.1583   11.2219 C.3       1 <0>        -0.1135
     27 C24        -1.5305    2.2956    9.5959 C.2       1 <0>         0.4828
     28 O3         -1.5346    2.3025    8.3767 O.co2     1 <0>        -0.6676
     29 O4         -2.2624    3.0511   10.2123 O.co2     1 <0>        -0.6881
     30 C25        -2.1146   -6.4233   -3.0488 C.2       1 <0>         0.4433
     31 O5         -2.5879   -7.5309   -2.8827 O.2       1 <0>        -0.4531
     32 C26        -1.8867   -5.9149   -4.4176 C.ar      1 <0>        -0.1571
     33 C27        -0.8880   -4.9683   -4.6571 C.ar      1 <0>        -0.0810
     34 C28        -0.6804   -4.4984   -5.9371 C.ar      1 <0>        -0.1297
     35 C29        -1.4592   -4.9624   -6.9827 C.ar      1 <0>        -0.0923
     36 C30        -2.4504   -5.9002   -6.7526 C.ar      1 <0>        -0.1299
     37 C31        -2.6651   -6.3830   -5.4785 C.ar      1 <0>        -0.0657
     38 H1          1.5667    0.1383   -1.6450 H         1 <0>         0.0541
     39 H2         -0.0666    0.2427   -2.3449 H         1 <0>         0.0531
     40 H3          0.1605    0.4062   -0.5871 H         1 <0>         0.0575
     41 H4          0.7015   -2.1119   -2.2252 H         1 <0>         0.0585
     42 H5          0.9287   -1.9485   -0.4674 H         1 <0>         0.0643
     43 H6         -1.4831   -1.4361   -0.2034 H         1 <0>         0.0802
     44 H7         -1.7102   -1.5995   -1.9612 H         1 <0>         0.0719
     45 H8         -1.7530   -3.7477   -3.0024 H         1 <0>         0.1409
     46 H9         -1.7067   -7.2415   -0.5075 H         1 <0>         0.1350
     47 H10        -1.1301   -5.8430    1.4277 H         1 <0>         0.1362
     48 H11        -1.5431   -4.4228    2.8958 H         1 <0>         0.0683
     49 H12         0.1852   -4.6512    2.5366 H         1 <0>         0.0673
     50 H13         0.6700   -2.3902    3.4320 H         1 <0>         0.0820
     51 H14        -1.0583   -2.1619    3.7911 H         1 <0>         0.0856
     52 H15        -0.9999   -4.1169    5.3152 H         1 <0>         0.0849
     53 H16         0.7284   -4.3452    4.9561 H         1 <0>         0.0873
     54 H17         2.4449   -2.7539    6.0627 H         1 <0>         0.1600
     55 H18         2.3575   -0.9464    7.9363 H         1 <0>         0.1414
     56 H19        -2.5997   -2.4322    6.1177 H         1 <0>         0.1068
     57 H20        -3.7515   -0.8951    7.6411 H         1 <0>         0.1172
     58 H21        -2.4732    0.5258    9.1882 H         1 <0>         0.1414
     59 H22        -0.8085   -0.3095   11.6978 H         1 <0>         0.0499
     60 H23        -1.9737    1.0060   11.9810 H         1 <0>         0.0711
     61 H24        -2.1936   -0.0958   10.6004 H         1 <0>         0.0700
     62 H25         0.8713    2.8838   10.6089 H         1 <0>         0.0557
     63 H26        -0.2308    2.6811   11.9918 H         1 <0>         0.0758
     64 H27         1.0515    1.4834   11.6928 H         1 <0>         0.0506
     65 H28        -0.2800   -4.6049   -3.8418 H         1 <0>         0.1353
     66 H29         0.0915   -3.7665   -6.1238 H         1 <0>         0.1301
     67 H30        -1.2929   -4.5905   -7.9830 H         1 <0>         0.1272
     68 H31        -3.0548   -6.2577   -7.5731 H         1 <0>         0.1291
     69 H32        -3.4360   -7.1182   -5.3009 H         1 <0>         0.1315
@<TRIPOS>BOND
     1    1    2 1
     2    1   38 1
     3    1   39 1
     4    1   40 1
     5    2    3 1
     6    2   41 1
     7    2   42 1
     8    3    4 1
     9    3   43 1
    10    3   44 1
    11    4    9 ar
    12    4    5 ar
    13    5    6 ar
    14    5   45 1
    15    6    7 ar
    16    6   30 1
    17    7    8 ar
    18    7   46 1
    19    8    9 ar
    20    8   47 1
    21    9   10 1
    22   10   11 1
    23   11   12 1
    24   11   48 1
    25   11   49 1
    26   12   13 1
    27   12   50 1
    28   12   51 1
    29   13   14 1
    30   13   52 1
    31   13   53 1
    32   14   18 1
    33   14   15 1
    34   15   16 2
    35   15   54 1
    36   16   17 1
    37   16   55 1
    38   17   22 ar
    39   17   18 ar
    40   18   19 ar
    41   19   20 ar
    42   19   56 1
    43   20   21 ar
    44   20   57 1
    45   21   22 ar
    46   21   58 1
    47   22   23 1
    48   23   24 1
    49   24   25 1
    50   24   26 1
    51   24   27 1
    52   25   59 1
    53   25   60 1
    54   25   61 1
    55   26   62 1
    56   26   63 1
    57   26   64 1
    58   27   28 2
    59   27   29 1
    60   30   31 2
    61   30   32 1
    62   32   37 ar
    63   32   33 ar
    64   33   34 ar
    65   33   65 1
    66   34   35 ar
    67   34   66 1
    68   35   36 ar
    69   35   67 1
    70   36   37 ar
    71   36   68 1
    72   37   69 1
@<TRIPOS>MOLECULE
CHEMBL448996
   80    84     0     0     0
SMALL
USER_CHARGES

@<TRIPOS>ATOM
      1 C1         -0.9478    1.2549    1.4593 C.3       1 <0>        -0.1529
      2 C2         -1.0169   -0.2733    1.4816 C.3       1 <0>        -0.1154
      3 C3         -2.4489   -0.7236    1.1858 C.3       1 <0>        -0.0719
      4 C4         -2.5169   -2.2289    1.2077 C.ar      1 <0>        -0.1241
      5 C5         -2.2891   -2.9628    0.0339 C.ar      1 <0>         0.0155
      6 C6         -1.9943   -2.3136   -1.1805 C.ar      1 <0>        -0.1210
      7 C7         -1.7774   -3.0413   -2.3043 C.ar      1 <0>        -0.0632
      8 C8         -1.8422   -4.4473   -2.2768 C.ar      1 <0>        -0.1735
      9 C9         -2.1299   -5.1155   -1.0958 C.ar      1 <0>        -0.0383
     10 C10        -2.3573   -4.3794    0.0753 C.ar      1 <0>        -0.0982
     11 C11        -2.6510   -5.0250    1.2910 C.ar      1 <0>        -0.0611
     12 C12        -2.8668   -4.2897    2.4134 C.ar      1 <0>        -0.1881
     13 C13        -2.7973   -2.8927    2.3812 C.ar      1 <0>         0.1513
     14 O1         -3.0123   -2.1832    3.5191 O.3       1 <0>        -0.3026
     15 C14        -3.2986   -2.9288    4.7041 C.3       1 <0>         0.0609
     16 C15        -3.5099   -1.9657    5.8740 C.3       1 <0>        -0.1439
     17 C16        -3.8165   -2.7640    7.1427 C.3       1 <0>         0.1420
     18 N1         -4.0188   -1.8418    8.2630 N.pl3     1 <0>        -0.6335
     19 C17        -2.8848   -1.4191    9.0960 C.3       1 <0>         0.1307
     20 C18        -3.3261   -1.4978   10.5634 C.3       1 <0>        -0.1324
     21 C19        -4.4693   -0.5083   10.7885 C.3       1 <0>        -0.0552
     22 C20        -5.5492   -0.7073    9.7580 C.ar      1 <0>        -0.1949
     23 C21        -5.2941   -1.3448    8.5533 C.ar      1 <0>         0.2302
     24 C22        -6.3114   -1.5036    7.6181 C.ar      1 <0>        -0.2364
     25 C23        -7.5789   -1.0243    7.8839 C.ar      1 <0>        -0.0629
     26 C24        -7.8383   -0.3856    9.0814 C.ar      1 <0>        -0.1978
     27 C25        -6.8277   -0.2329   10.0240 C.ar      1 <0>         0.2048
     28 O2         -7.0860    0.3956   11.2009 O.3       1 <0>        -0.2996
     29 C26        -8.4445    0.7555   11.4597 C.3       1 <0>         0.0311
     30 C27        -9.3157   -0.5022   11.4519 C.3       1 <0>        -0.1714
     31 C28        -8.5406    1.4340   12.8277 C.3       1 <0>        -0.1135
     32 C29        -8.9244    1.7056   10.3929 C.2       1 <0>         0.4828
     33 O3         -8.1727    2.0432    9.4943 O.co2     1 <0>        -0.6672
     34 O4        -10.0643    2.1367   10.4285 O.co2     1 <0>        -0.6887
     35 C30        -1.6027   -5.2159   -3.5135 C.2       1 <0>         0.4396
     36 O5         -1.0128   -4.7018   -4.4440 O.2       1 <0>        -0.4483
     37 C31        -2.0798   -6.6102   -3.6209 C.ar      1 <0>        -0.1582
     38 C32        -3.1869   -7.0319   -2.8810 C.ar      1 <0>        -0.0820
     39 C33        -3.6268   -8.3349   -2.9860 C.ar      1 <0>        -0.1295
     40 C34        -2.9738   -9.2238   -3.8218 C.ar      1 <0>        -0.0917
     41 C35        -1.8760   -8.8129   -4.5574 C.ar      1 <0>        -0.1296
     42 C36        -1.4293   -7.5111   -4.4671 C.ar      1 <0>        -0.0652
     43 H1          0.0724    1.5757    1.6700 H         1 <0>         0.0534
     44 H2         -1.2470    1.6179    0.4760 H         1 <0>         0.0529
     45 H3         -1.6197    1.6600    2.2160 H         1 <0>         0.0570
     46 H4         -0.3450   -0.6784    0.7249 H         1 <0>         0.0590
     47 H5         -0.7177   -0.6363    2.4649 H         1 <0>         0.0631
     48 H6         -3.1207   -0.3185    1.9425 H         1 <0>         0.0806
     49 H7         -2.7481   -0.3606    0.2025 H         1 <0>         0.0718
     50 H8         -1.9413   -1.2355   -1.2170 H         1 <0>         0.1360
     51 H9         -1.5526   -2.5358   -3.2319 H         1 <0>         0.1321
     52 H10        -2.1787   -6.1942   -1.0788 H         1 <0>         0.1393
     53 H11        -2.7052   -6.1029    1.3317 H         1 <0>         0.1334
     54 H12        -3.0918   -4.7906    3.3434 H         1 <0>         0.1344
     55 H13        -4.2019   -3.5197    4.5522 H         1 <0>         0.0647
     56 H14        -2.4633   -3.5927    4.9263 H         1 <0>         0.0625
     57 H15        -2.6066   -1.3748    6.0259 H         1 <0>         0.0748
     58 H16        -4.3453   -1.3018    5.6517 H         1 <0>         0.0834
     59 H17        -4.7197   -3.3548    6.9909 H         1 <0>         0.0755
     60 H18        -2.9811   -3.4279    7.3650 H         1 <0>         0.0699
     61 H19        -2.0366   -2.0832    8.9295 H         1 <0>         0.0704
     62 H20        -2.6066   -0.3947    8.8486 H         1 <0>         0.0556
     63 H21        -3.6679   -2.5081   10.7884 H         1 <0>         0.0652
     64 H22        -2.4880   -1.2410   11.2112 H         1 <0>         0.0702
     65 H23        -4.8879   -0.6616   11.7832 H         1 <0>         0.0707
     66 H24        -4.0848    0.5090   10.7156 H         1 <0>         0.0632
     67 H25        -6.1094   -2.0026    6.6818 H         1 <0>         0.1099
     68 H26        -8.3670   -1.1484    7.1560 H         1 <0>         0.1117
     69 H27        -8.8300   -0.0116    9.2892 H         1 <0>         0.1373
     70 H28        -8.9225   -1.2210   12.1708 H         1 <0>         0.0491
     71 H29       -10.3376   -0.2381   11.7240 H         1 <0>         0.0703
     72 H30        -9.3076   -0.9436   10.4553 H         1 <0>         0.0702
     73 H31        -7.9914    2.3752   12.8058 H         1 <0>         0.0554
     74 H32        -9.5866    1.6290   13.0638 H         1 <0>         0.0755
     75 H33        -8.1121    0.7809   13.5880 H         1 <0>         0.0500
     76 H34        -3.6970   -6.3393   -2.2279 H         1 <0>         0.1353
     77 H35        -4.4827   -8.6622   -2.4145 H         1 <0>         0.1306
     78 H36        -3.3223  -10.2430   -3.9000 H         1 <0>         0.1277
     79 H37        -1.3706   -9.5121   -5.2071 H         1 <0>         0.1295
     80 H38        -0.5754   -7.1905   -5.0454 H         1 <0>         0.1318
@<TRIPOS>BOND
     1    1    2 1
     2    1   43 1
     3    1   44 1
     4    1   45 1
     5    2    3 1
     6    2   46 1
     7    2   47 1
     8    3    4 1
     9    3   48 1
    10    3   49 1
    11    4   13 ar
    12    4    5 ar
    13    5   10 ar
    14    5    6 ar
    15    6    7 ar
    16    6   50 1
    17    7    8 ar
    18    7   51 1
    19    8    9 ar
    20    8   35 1
    21    9   10 ar
    22    9   52 1
    23   10   11 ar
    24   11   12 ar
    25   11   53 1
    26   12   13 ar
    27   12   54 1
    28   13   14 1
    29   14   15 1
    30   15   16 1
    31   15   55 1
    32   15   56 1
    33   16   17 1
    34   16   57 1
    35   16   58 1
    36   17   18 1
    37   17   59 1
    38   17   60 1
    39   18   23 1
    40   18   19 1
    41   19   20 1
    42   19   61 1
    43   19   62 1
    44   20   21 1
    45   20   63 1
    46   20   64 1
    47   21   22 1
    48   21   65 1
    49   21   66 1
    50   22   27 ar
    51   22   23 ar
    52   23   24 ar
    53   24   25 ar
    54   24   67 1
    55   25   26 ar
    56   25   68 1
    57   26   27 ar
    58   26   69 1
    59   27   28 1
    60   28   29 1
    61   29   30 1
    62   29   31 1
    63   29   32 1
    64   30   70 1
    65   30   71 1
    66   30   72 1
    67   31   73 1
    68   31   74 1
    69   31   75 1
    70   32   33 2
    71   32   34 1
    72   35   36 2
    73   35   37 1
    74   37   42 ar
    75   37   38 ar
    76   38   39 ar
    77   38   76 1
    78   39   40 ar
    79   39   77 1
    80   40   41 ar
    81   40   78 1
    82   41   42 ar
    83   41   79 1
    84   42   80 1
@<TRIPOS>MOLECULE
CHEMBL526740
   47    48     0     0     0
SMALL
USER_CHARGES

@<TRIPOS>ATOM
      1 C1         -0.0187    1.5258    0.0104 C.3       1 <0>        -0.1429
      2 C2          0.0021   -0.0041    0.0020 C.3       1 <0>         0.0666
      3 O1          0.6709   -0.4649   -1.1737 O.3       1 <0>        -0.3657
      4 C3          0.7457   -1.8880   -1.2798 C.3       1 <0>         0.0332
      5 H1         -0.1179   -2.3349   -0.7873 H         1 <0>         0.0492
      6 C4          0.7554   -2.2896   -2.7561 C.3       1 <0>        -0.0655
      7 C5         -0.5593   -1.9112   -3.3882 C.ar      1 <0>        -0.0680
      8 C6         -1.6115   -2.8099   -3.3835 C.ar      1 <0>        -0.1007
      9 C7         -2.8215   -2.4709   -3.9619 C.ar      1 <0>        -0.1261
     10 C8         -2.9869   -1.2326   -4.5475 C.ar      1 <0>        -0.1027
     11 C9         -1.9298   -0.3210   -4.5553 C.ar      1 <0>        -0.0637
     12 C10        -0.7128   -0.6678   -3.9651 C.ar      1 <0>        -0.0572
     13 C11        -2.0994    1.0058   -5.1805 C.2       1 <0>         0.1815
     14 N1         -1.1180    1.8481   -5.1861 N.2       1 <0>        -0.3343
     15 O2         -1.2806    3.1206   -5.7857 O.3       1 <0>        -0.2365
     16 C12        -0.1170    3.9474   -5.7193 C.3       1 <0>         0.1130
     17 C13        -0.4017    5.2696   -6.3839 C.ar      1 <0>        -0.0676
     18 C14        -0.1617    5.4294   -7.7359 C.ar      1 <0>        -0.0916
     19 C15        -0.4227    6.6420   -8.3457 C.ar      1 <0>        -0.0890
     20 C16        -0.9240    7.6955   -7.6032 C.ar      1 <0>        -0.0938
     21 C17        -1.1640    7.5355   -6.2507 C.ar      1 <0>        -0.0886
     22 C18        -0.9081    6.3208   -5.6426 C.ar      1 <0>        -0.0908
     23 I1         -1.3191    9.5339   -8.5270 I         1 <0>        -0.0453
     24 C19        -3.4159    1.3784   -5.8120 C.3       1 <0>        -0.1472
     25 C20         2.0091   -2.3753   -0.6184 C.2       1 <0>         0.4777
     26 O3          2.2218   -3.5716   -0.5170 O.co2     1 <0>        -0.7001
     27 O4          2.8185   -1.5733   -0.1846 O.co2     1 <0>        -0.6785
     28 H2          1.0039    1.9031    0.0027 H         1 <0>         0.0624
     29 H3         -0.5459    1.8868   -0.8726 H         1 <0>         0.0535
     30 H4         -0.5289    1.8773    0.9072 H         1 <0>         0.0595
     31 H5          0.5293   -0.3651    0.8851 H         1 <0>         0.0457
     32 H6         -1.0205   -0.3814    0.0098 H         1 <0>         0.0294
     33 H7          1.5669   -1.7723   -3.2680 H         1 <0>         0.0759
     34 H8          0.9017   -3.3665   -2.8387 H         1 <0>         0.0900
     35 H9         -1.4873   -3.7806   -2.9266 H         1 <0>         0.1254
     36 H10        -3.6384   -3.1773   -3.9555 H         1 <0>         0.1240
     37 H11        -3.9320   -0.9693   -4.9990 H         1 <0>         0.1247
     38 H12         0.1077    0.0345   -3.9639 H         1 <0>         0.1344
     39 H13         0.1503    4.1153   -4.6760 H         1 <0>         0.0710
     40 H14         0.7091    3.4539   -6.2311 H         1 <0>         0.0694
     41 H15         0.2301    4.6067   -8.3156 H         1 <0>         0.1337
     42 H16        -0.2349    6.7669   -9.4019 H         1 <0>         0.1311
     43 H17        -1.5555    8.3580   -5.6706 H         1 <0>         0.1314
     44 H18        -1.1000    6.1943   -4.5873 H         1 <0>         0.1344
     45 H19        -4.0560    1.8501   -5.0664 H         1 <0>         0.0823
     46 H20        -3.2412    2.0738   -6.6331 H         1 <0>         0.0774
     47 H21        -3.9029    0.4809   -6.1934 H         1 <0>         0.0791
@<TRIPOS>BOND
     1    1    2 1
     2    1   28 1
     3    1   29 1
     4    1   30 1
     5    2    3 1
     6    2   31 1
     7    2   32 1
     8    3    4 1
     9    4    5 1
    10    4    6 1
    11    4   25 1
    12    6    7 1
    13    6   33 1
    14    6   34 1
    15    7   12 ar
    16    7    8 ar
    17    8    9 ar
    18    8   35 1
    19    9   10 ar
    20    9   36 1
    21   10   11 ar
    22   10   37 1
    23   11   12 ar
    24   11   13 1
    25   12   38 1
    26   13   14 2
    27   13   24 1
    28   14   15 1
    29   15   16 1
    30   16   17 1
    31   16   39 1
    32   16   40 1
    33   17   22 ar
    34   17   18 ar
    35   18   19 ar
    36   18   41 1
    37   19   20 ar
    38   19   42 1
    39   20   21 ar
    40   20   23 1
    41   21   22 ar
    42   21   43 1
    43   22   44 1
    44   24   45 1
    45   24   46 1
    46   24   47 1
    47   25   26 2
    48   25   27 1
@<TRIPOS>MOLECULE
CHEMBL39687
   46    48     0     0     0
SMALL
USER_CHARGES

@<TRIPOS>ATOM
      1 C1         -0.0184    1.5028    0.0103 C.3       1 <0>        -0.0775
      2 C2          0.0021   -0.0041    0.0020 C.2       1 <0>         0.0273
      3 C3          0.0078   -0.7904   -1.0897 C.2       1 <0>        -0.0436
      4 O1          0.0271   -2.0685   -0.6622 O.3       1 <0>        -0.1833
      5 C4          0.0329   -2.0496    0.6819 C.2       1 <0>         0.2310
      6 N1          0.0236   -0.7999    1.0819 N.2       1 <0>        -0.4589
      7 C5          0.0523   -3.2374    1.5617 C.ar      1 <0>         0.0186
      8 C6          0.0722   -4.5188    1.0089 C.ar      1 <0>        -0.0895
      9 C7          0.0907   -5.6231    1.8357 C.ar      1 <0>        -0.0687
     10 C8          0.0895   -5.4624    3.2098 C.ar      1 <0>        -0.1684
     11 C9          0.0698   -4.1949    3.7642 C.ar      1 <0>        -0.0698
     12 C10         0.0565   -3.0822    2.9487 C.ar      1 <0>        -0.0717
     13 C11         0.1093   -6.6733    4.1068 C.3       1 <0>         0.5088
     14 F1          1.4342   -7.0274    4.3831 F         1 <0>        -0.1737
     15 F2         -0.5538   -6.3785    5.3029 F         1 <0>        -0.1749
     16 F3         -0.5343   -7.7380    3.4670 F         1 <0>        -0.1749
     17 C12        -0.0054   -0.3281   -2.5240 C.3       1 <0>         0.1489
     18 O2          1.3376   -0.1633   -2.9837 O.3       1 <0>        -0.3127
     19 C13         1.5038    0.2525   -4.2668 C.ar      1 <0>         0.1052
     20 C14         0.3971    0.5024   -5.0651 C.ar      1 <0>        -0.2043
     21 C15         0.5688    0.9255   -6.3690 C.ar      1 <0>        -0.0812
     22 C16         1.8423    1.0995   -6.8786 C.ar      1 <0>        -0.0932
     23 C17         2.9469    0.8507   -6.0851 C.ar      1 <0>        -0.0810
     24 C18         2.7805    0.4334   -4.7787 C.ar      1 <0>        -0.1430
     25 C19         2.0266    1.5606   -8.3014 C.3       1 <0>        -0.0582
     26 C20         2.0789    3.0892   -8.3394 C.3       1 <0>        -0.1753
     27 C21         2.2633    3.5503   -9.7622 C.2       1 <0>         0.4889
     28 O3          2.3452    2.7322  -10.6624 O.co2     1 <0>        -0.6986
     29 O4          2.3305    4.7416  -10.0131 O.co2     1 <0>        -0.7061
     30 H1          1.0042    1.8801    0.0026 H         1 <0>         0.0842
     31 H2         -0.5455    1.8639   -0.8728 H         1 <0>         0.0791
     32 H3         -0.5286    1.8543    0.9071 H         1 <0>         0.0809
     33 H4          0.0729   -4.6456   -0.0636 H         1 <0>         0.1456
     34 H5          0.1058   -6.6152    1.4092 H         1 <0>         0.1461
     35 H6          0.0686   -4.0763    4.8377 H         1 <0>         0.1470
     36 H7          0.0456   -2.0933    3.3827 H         1 <0>         0.1524
     37 H8         -0.5119   -1.0707   -3.1405 H         1 <0>         0.0833
     38 H9         -0.5328    0.6232   -2.5942 H         1 <0>         0.1008
     39 H10        -0.5978    0.3660   -4.6678 H         1 <0>         0.1231
     40 H11        -0.2925    1.1201   -6.9909 H         1 <0>         0.1258
     41 H12         3.9406    0.9870   -6.4855 H         1 <0>         0.1303
     42 H13         3.6436    0.2434   -4.1579 H         1 <0>         0.1267
     43 H14         2.9579    1.1552   -8.6969 H         1 <0>         0.0709
     44 H15         1.1914    1.2104   -8.9079 H         1 <0>         0.0702
     45 H16         1.1476    3.4946   -7.9438 H         1 <0>         0.0565
     46 H17         2.9142    3.4393   -7.7329 H         1 <0>         0.0571
@<TRIPOS>BOND
     1    1    2 1
     2    1   30 1
     3    1   31 1
     4    1   32 1
     5    2    6 1
     6    2    3 2
     7    3    4 1
     8    3   17 1
     9    4    5 1
    10    5    6 2
    11    5    7 1
    12    7   12 ar
    13    7    8 ar
    14    8    9 ar
    15    8   33 1
    16    9   10 ar
    17    9   34 1
    18   10   11 ar
    19   10   13 1
    20   11   12 ar
    21   11   35 1
    22   12   36 1
    23   13   14 1
    24   13   15 1
    25   13   16 1
    26   17   18 1
    27   17   37 1
    28   17   38 1
    29   18   19 1
    30   19   24 ar
    31   19   20 ar
    32   20   21 ar
    33   20   39 1
    34   21   22 ar
    35   21   40 1
    36   22   23 ar
    37   22   25 1
    38   23   24 ar
    39   23   41 1
    40   24   42 1
    41   25   26 1
    42   25   43 1
    43   25   44 1
    44   26   27 1
    45   26   45 1
    46   26   46 1
    47   27   28 2
    48   27   29 1
@<TRIPOS>MOLECULE
CHEMBL272017
   53    55     0     0     0
SMALL
USER_CHARGES

@<TRIPOS>ATOM
      1 C1         -0.0184    1.5028    0.0103 C.3       1 <0>        -0.1178
      2 C2          0.0021   -0.0041    0.0020 C.ar      1 <0>        -0.0712
      3 C3          0.0057   -0.6862   -1.2016 C.ar      1 <0>        -0.1195
      4 C4          0.0249   -2.0657   -1.2161 C.ar      1 <0>        -0.0898
      5 C5          0.0405   -2.7729   -0.0132 C.ar      1 <0>        -0.0154
      6 C6          0.0368   -2.0788    1.1974 C.ar      1 <0>        -0.0676
      7 C7          0.0229   -0.6992    1.1980 C.ar      1 <0>        -0.1215
      8 C8          0.0606   -4.2514   -0.0214 C.2       1 <0>         0.1428
      9 N1          0.0718   -5.0983    0.9984 N.2       1 <0>        -0.4836
     10 C9          0.0895   -6.3962    0.8061 C.2       1 <0>         0.0550
     11 C10         0.0966   -6.8936   -0.4593 C.2       1 <0>        -0.1557
     12 S1          0.0683   -5.3786   -1.4093 S.3       1 <0>        -0.0061
     13 C11         0.1169   -8.3248   -0.9306 C.3       1 <0>        -0.0679
     14 C12         0.1024   -7.3339    1.9857 C.3       1 <0>        -0.0477
     15 C13        -1.3355   -7.6714    2.3847 C.3       1 <0>        -0.1101
     16 C14        -1.3224   -8.6234    3.5824 C.3       1 <0>        -0.1155
     17 C15        -2.7604   -8.9609    3.9814 C.3       1 <0>        -0.1058
     18 C16        -2.7473   -9.9129    5.1791 C.3       1 <0>        -0.1550
     19 C17        -2.1328  -11.2537    4.7625 C.3       1 <0>         0.0523
     20 O1         -2.9853  -11.8750    3.7957 O.3       1 <0>        -0.3656
     21 C18        -4.3195  -12.0944    4.2603 C.3       1 <0>         0.2071
     22 O2         -4.9049  -10.8452    4.6354 O.3       1 <0>        -0.3571
     23 C19        -4.1826  -10.1540    5.6592 C.3       1 <0>         0.0506
     24 C20        -4.2906  -13.0283    5.4718 C.3       1 <0>        -0.1867
     25 C21        -5.1372  -12.7224    3.1612 C.2       1 <0>         0.5281
     26 O3         -4.8609  -13.8394    2.7580 O.co2     1 <0>        -0.6723
     27 O4         -6.0751  -12.1136    2.6752 O.co2     1 <0>        -0.6623
     28 H1          1.0042    1.8801    0.0026 H         1 <0>         0.0732
     29 H2         -0.5455    1.8639   -0.8728 H         1 <0>         0.0684
     30 H3         -0.5286    1.8543    0.9071 H         1 <0>         0.0688
     31 H4         -0.0068   -0.1377   -2.1319 H         1 <0>         0.1294
     32 H5          0.0273   -2.5970   -2.1564 H         1 <0>         0.1264
     33 H6          0.0485   -2.6203    2.1317 H         1 <0>         0.1360
     34 H7          0.0244   -0.1607    2.1343 H         1 <0>         0.1296
     35 H8         -0.9058   -8.6845   -1.0443 H         1 <0>         0.0874
     36 H9          0.6316   -8.3843   -1.8896 H         1 <0>         0.0748
     37 H10         0.6395   -8.9409   -0.1989 H         1 <0>         0.0886
     38 H11         0.6291   -8.2494    1.7164 H         1 <0>         0.0787
     39 H12         0.6095   -6.8562    2.8240 H         1 <0>         0.0769
     40 H13        -1.8622   -6.7559    2.6541 H         1 <0>         0.0622
     41 H14        -1.8426   -8.1491    1.5464 H         1 <0>         0.0649
     42 H15        -0.7957   -9.5389    3.3131 H         1 <0>         0.0647
     43 H16        -0.8153   -8.1457    4.4207 H         1 <0>         0.0568
     44 H17        -3.2871   -8.0454    4.2508 H         1 <0>         0.0576
     45 H18        -3.2675   -9.4386    3.1431 H         1 <0>         0.0796
     46 H19        -2.1606   -9.4755    5.9869 H         1 <0>         0.0771
     47 H20        -1.1486  -11.0841    4.3258 H         1 <0>         0.0898
     48 H21        -2.0399  -11.8995    5.6357 H         1 <0>         0.0448
     49 H22        -4.1674  -10.7582    6.5663 H         1 <0>         0.0445
     50 H23        -4.6645   -9.1979    5.8637 H         1 <0>         0.0872
     51 H24        -3.6992  -12.5740    6.2667 H         1 <0>         0.0474
     52 H25        -5.3078  -13.1955    5.8260 H         1 <0>         0.0660
     53 H26        -3.8443  -13.9807    5.1858 H         1 <0>         0.0775
@<TRIPOS>BOND
     1    1    2 1
     2    1   28 1
     3    1   29 1
     4    1   30 1
     5    2    7 ar
     6    2    3 ar
     7    3    4 ar
     8    3   31 1
     9    4    5 ar
    10    4   32 1
    11    5    6 ar
    12    5    8 1
    13    6    7 ar
    14    6   33 1
    15    7   34 1
    16    8   12 1
    17    8    9 2
    18    9   10 1
    19   10   11 2
    20   10   14 1
    21   11   12 1
    22   11   13 1
    23   13   35 1
    24   13   36 1
    25   13   37 1
    26   14   15 1
    27   14   38 1
    28   14   39 1
    29   15   16 1
    30   15   40 1
    31   15   41 1
    32   16   17 1
    33   16   42 1
    34   16   43 1
    35   17   18 1
    36   17   44 1
    37   17   45 1
    38   18   23 1
    39   18   19 1
    40   18   46 1
    41   19   20 1
    42   19   47 1
    43   19   48 1
    44   20   21 1
    45   21   22 1
    46   21   24 1
    47   21   25 1
    48   22   23 1
    49   23   49 1
    50   23   50 1
    51   24   51 1
    52   24   52 1
    53   24   53 1
    54   25   26 2
    55   25   27 1
@<TRIPOS>MOLECULE
CHEMBL403432
   71    74     0     0     0
SMALL
USER_CHARGES

@<TRIPOS>ATOM
      1 C1         -0.0184    1.5028    0.0103 C.3       1 <0>        -0.0705
      2 C2          0.0021   -0.0041    0.0020 C.2       1 <0>        -0.0350
      3 C3         -1.0705   -0.8164    0.0025 C.2       1 <0>        -0.0029
      4 N1         -0.6270   -2.0826   -0.0064 N.2       1 <0>        -0.4564
      5 C4          0.6851   -2.0676   -0.0123 C.2       1 <0>         0.2272
      6 O1          1.0981   -0.7883   -0.0131 O.3       1 <0>        -0.1943
      7 C5          1.5619   -3.2577   -0.0227 C.ar      1 <0>        -0.0159
      8 C6          1.0059   -4.5378   -0.0330 C.ar      1 <0>        -0.0701
      9 C7          1.8298   -5.6443   -0.0432 C.ar      1 <0>        -0.1199
     10 C8          3.2044   -5.4871   -0.0433 C.ar      1 <0>        -0.1020
     11 C9          3.7620   -4.2209   -0.0327 C.ar      1 <0>        -0.1222
     12 C10         2.9493   -3.1060   -0.0282 C.ar      1 <0>        -0.0915
     13 C11        -2.5133   -0.3814    0.0119 C.3       1 <0>        -0.0363
     14 C12        -3.0085   -0.2260   -1.4274 C.3       1 <0>         0.0689
     15 O2         -4.3766    0.1865   -1.4185 O.3       1 <0>        -0.3129
     16 C13        -4.9731    0.3716   -2.6256 C.ar      1 <0>         0.1302
     17 C14        -4.2560    0.1543   -3.7946 C.ar      1 <0>        -0.2153
     18 C15        -4.8578    0.3405   -5.0250 C.ar      1 <0>        -0.0836
     19 C16        -6.1758    0.7437   -5.0994 C.ar      1 <0>        -0.1442
     20 C17        -6.9042    0.9645   -3.9299 C.ar      1 <0>         0.0274
     21 C18        -6.2973    0.7711   -2.6891 C.ar      1 <0>        -0.1291
     22 C19        -8.3158    1.3964   -4.0058 C.2       1 <0>        -0.1606
     23 C20        -9.1918    0.5688   -4.5219 C.2       1 <0>        -0.0135
     24 C21       -10.6521    0.8720   -4.6814 C.3       1 <0>        -0.0946
     25 C22       -11.0601    2.0288   -3.7655 C.3       1 <0>         0.1141
     26 N2        -10.0458    3.0893   -3.8941 N.am      1 <0>        -0.5890
     27 C23        -8.6729    2.7595   -3.4815 C.3       1 <0>         0.1894
     28 C24       -10.3647    4.3107   -4.3664 C.2       1 <0>         0.6543
     29 O3         -9.5085    5.1676   -4.4623 O.2       1 <0>        -0.5788
     30 O4        -11.6319    4.5813   -4.7320 O.3       1 <0>        -0.3615
     31 C25       -11.8985    5.8962   -5.2238 C.3       1 <0>         0.0892
     32 C26       -13.3803    6.0146   -5.5860 C.3       1 <0>        -0.0960
     33 C27       -14.2275    5.8767   -4.3195 C.3       1 <0>        -0.1474
     34 C28       -13.6410    7.3787   -6.2280 C.3       1 <0>        -0.1449
     35 C29        -8.6985   -0.7773   -4.9865 C.3       1 <0>        -0.1807
     36 C30        -8.9002   -1.7919   -3.8906 C.2       1 <0>         0.5029
     37 O5         -9.3984   -1.4533   -2.8306 O.co2     1 <0>        -0.6883
     38 O6         -8.5652   -2.9513   -4.0641 O.co2     1 <0>        -0.7031
     39 H1          1.0042    1.8801    0.0026 H         1 <0>         0.0794
     40 H2         -0.5455    1.8639   -0.8728 H         1 <0>         0.0919
     41 H3         -0.5286    1.8543    0.9071 H         1 <0>         0.0929
     42 H4         -0.0670   -4.6619   -0.0326 H         1 <0>         0.1403
     43 H5          1.4008   -6.6354   -0.0508 H         1 <0>         0.1331
     44 H6          3.8450   -6.3565   -0.0513 H         1 <0>         0.1279
     45 H7          4.8357   -4.1050   -0.0321 H         1 <0>         0.1298
     46 H8          3.3858   -2.1181   -0.0249 H         1 <0>         0.1295
     47 H9         -3.1156   -1.1316    0.5243 H         1 <0>         0.0966
     48 H10        -2.6018    0.5726    0.5316 H         1 <0>         0.0928
     49 H11        -2.4061    0.5242   -1.9398 H         1 <0>         0.0589
     50 H12        -2.9200   -1.1800   -1.9471 H         1 <0>         0.0654
     51 H13        -3.2244   -0.1609   -3.7423 H         1 <0>         0.1200
     52 H14        -4.2950    0.1703   -5.9309 H         1 <0>         0.1208
     53 H15        -6.6429    0.8887   -6.0623 H         1 <0>         0.1216
     54 H16        -6.8573    0.9365   -1.7805 H         1 <0>         0.1305
     55 H17       -10.8526    1.1445   -5.7175 H         1 <0>         0.0732
     56 H18       -11.2342   -0.0132   -4.4252 H         1 <0>         0.0945
     57 H19       -12.0346    2.4122   -4.0679 H         1 <0>         0.0914
     58 H20       -11.1035    1.6835   -2.7326 H         1 <0>         0.0830
     59 H21        -8.6055    2.7605   -2.3936 H         1 <0>         0.0773
     60 H22        -7.9846    3.4990   -3.8907 H         1 <0>         0.0947
     61 H23       -11.6528    6.6285   -4.4547 H         1 <0>         0.0658
     62 H24       -11.2918    6.0826   -6.1100 H         1 <0>         0.0655
     63 H25       -13.6466    5.2253   -6.2890 H         1 <0>         0.0820
     64 H26       -14.0417    4.9049   -3.8622 H         1 <0>         0.0634
     65 H27       -13.9611    6.6659   -3.6165 H         1 <0>         0.0537
     66 H28       -15.2831    5.9610   -4.5775 H         1 <0>         0.0562
     67 H29       -13.0374    7.4770   -7.1303 H         1 <0>         0.0580
     68 H30       -14.6966    7.4630   -6.4860 H         1 <0>         0.0640
     69 H31       -13.3746    8.1680   -5.5250 H         1 <0>         0.0580
     70 H32        -9.2562   -1.0829   -5.8718 H         1 <0>         0.0618
     71 H33        -7.6381   -0.7114   -5.2300 H         1 <0>         0.0829
@<TRIPOS>BOND
     1    1    2 1
     2    1   39 1
     3    1   40 1
     4    1   41 1
     5    2    6 1
     6    2    3 2
     7    3    4 1
     8    3   13 1
     9    4    5 2
    10    5    6 1
    11    5    7 1
    12    7   12 ar
    13    7    8 ar
    14    8    9 ar
    15    8   42 1
    16    9   10 ar
    17    9   43 1
    18   10   11 ar
    19   10   44 1
    20   11   12 ar
    21   11   45 1
    22   12   46 1
    23   13   14 1
    24   13   47 1
    25   13   48 1
    26   14   15 1
    27   14   49 1
    28   14   50 1
    29   15   16 1
    30   16   21 ar
    31   16   17 ar
    32   17   18 ar
    33   17   51 1
    34   18   19 ar
    35   18   52 1
    36   19   20 ar
    37   19   53 1
    38   20   21 ar
    39   20   22 1
    40   21   54 1
    41   22   27 1
    42   22   23 2
    43   23   24 1
    44   23   35 1
    45   24   25 1
    46   24   55 1
    47   24   56 1
    48   25   26 1
    49   25   57 1
    50   25   58 1
    51   26   27 1
    52   26   28 am
    53   27   59 1
    54   27   60 1
    55   28   29 2
    56   28   30 1
    57   30   31 1
    58   31   32 1
    59   31   61 1
    60   31   62 1
    61   32   33 1
    62   32   34 1
    63   32   63 1
    64   33   64 1
    65   33   65 1
    66   33   66 1
    67   34   67 1
    68   34   68 1
    69   34   69 1
    70   35   36 1
    71   35   70 1
    72   35   71 1
    73   36   37 2
    74   36   38 1
@<TRIPOS>MOLECULE
CHEMBL81592
   60    63     0     0     0
SMALL
USER_CHARGES

@<TRIPOS>ATOM
      1 C1         -0.6476    1.9601    0.6318 C.3       1 <0>        -0.0710
      2 C2         -0.4350    0.4697    0.5641 C.2       1 <0>        -0.0342
      3 C3         -1.3925   -0.4682    0.4461 C.2       1 <0>        -0.0034
      4 N1         -0.7922   -1.6677    0.4213 N.2       1 <0>        -0.4573
      5 C4          0.5042   -1.4901    0.5207 C.2       1 <0>         0.2263
      6 O1          0.7499   -0.1711    0.6046 O.3       1 <0>        -0.1941
      7 C5          1.5237   -2.5605    0.5320 C.ar      1 <0>        -0.0155
      8 C6          1.1374   -3.8975    0.4255 C.ar      1 <0>        -0.0706
      9 C7          2.0939   -4.8916    0.4363 C.ar      1 <0>        -0.1203
     10 C8          3.4335   -4.5657    0.5522 C.ar      1 <0>        -0.1022
     11 C9          3.8231   -3.2424    0.6585 C.ar      1 <0>        -0.1217
     12 C10         2.8771   -2.2383    0.6433 C.ar      1 <0>        -0.0913
     13 C11        -2.8757   -0.2161    0.3579 C.3       1 <0>        -0.0353
     14 C12        -3.2787   -0.0509   -1.1088 C.3       1 <0>         0.0704
     15 O2         -4.6851    0.1881   -1.1923 O.3       1 <0>        -0.3183
     16 C13        -5.2095    0.3584   -2.4353 C.ar      1 <0>         0.0748
     17 C14        -4.3872    0.2907   -3.5502 C.ar      1 <0>        -0.1794
     18 C15        -4.9200    0.4637   -4.8129 C.ar      1 <0>        -0.1363
     19 C16        -6.2773    0.7046   -4.9658 C.ar      1 <0>         0.1397
     20 C17        -7.0997    0.7714   -3.8510 C.ar      1 <0>        -0.1201
     21 C18        -6.5677    0.5941   -2.5887 C.ar      1 <0>        -0.1210
     22 O3         -6.8016    0.8758   -6.2088 O.3       1 <0>        -0.2969
     23 C19        -8.1800    1.2445   -6.2863 C.3       1 <0>         0.0477
     24 C20        -8.5860    1.3949   -7.7538 C.3       1 <0>        -0.1155
     25 C21        -8.3941    2.5736   -5.5591 C.3       1 <0>        -0.1124
     26 C22        -7.6582    3.6687   -6.2872 C.ar      1 <0>        -0.0581
     27 C23        -6.3475    3.9584   -5.9572 C.ar      1 <0>        -0.1071
     28 C24        -5.6724    4.9630   -6.6250 C.ar      1 <0>        -0.1211
     29 C25        -6.3080    5.6776   -7.6231 C.ar      1 <0>        -0.1345
     30 C26        -7.6184    5.3874   -7.9537 C.ar      1 <0>        -0.1237
     31 C27        -8.2921    4.3799   -7.2888 C.ar      1 <0>        -0.1164
     32 C28        -9.0230    0.1762   -5.6389 C.2       1 <0>         0.4810
     33 O4         -8.4925   -0.8096   -5.1558 O.co2     1 <0>        -0.6658
     34 O5        -10.2354    0.2976   -5.5981 O.co2     1 <0>        -0.6833
     35 H1          0.3164    2.4609    0.7209 H         1 <0>         0.0794
     36 H2         -1.1496    2.2970   -0.2752 H         1 <0>         0.0927
     37 H3         -1.2634    2.2002    1.4985 H         1 <0>         0.0928
     38 H4          0.0920   -4.1532    0.3353 H         1 <0>         0.1396
     39 H5          1.7963   -5.9266    0.3543 H         1 <0>         0.1327
     40 H6          4.1783   -5.3477    0.5601 H         1 <0>         0.1279
     41 H7          4.8703   -2.9947    0.7495 H         1 <0>         0.1300
     42 H8          3.1828   -1.2054    0.7216 H         1 <0>         0.1298
     43 H9         -3.4139   -1.0598    0.7899 H         1 <0>         0.0941
     44 H10        -3.1231    0.6924    0.9072 H         1 <0>         0.0917
     45 H11        -2.7404    0.7928   -1.5407 H         1 <0>         0.0566
     46 H12        -3.0313   -0.9594   -1.6580 H         1 <0>         0.0619
     47 H13        -3.3303    0.1032   -3.4311 H         1 <0>         0.1204
     48 H14        -4.2796    0.4118   -5.6810 H         1 <0>         0.1217
     49 H15        -8.1566    0.9593   -3.9701 H         1 <0>         0.1454
     50 H16        -7.2087    0.6424   -1.7208 H         1 <0>         0.1236
     51 H17        -8.5324    0.4243   -8.2469 H         1 <0>         0.0552
     52 H18        -9.6056    1.7759   -7.8115 H         1 <0>         0.0751
     53 H19        -7.9093    2.0917   -8.2484 H         1 <0>         0.0555
     54 H20        -9.4587    2.8062   -5.5333 H         1 <0>         0.0910
     55 H21        -8.0144    2.4956   -4.5404 H         1 <0>         0.0847
     56 H22        -5.8509    3.4000   -5.1774 H         1 <0>         0.1177
     57 H23        -4.6486    5.1897   -6.3667 H         1 <0>         0.1156
     58 H24        -5.7808    6.4630   -8.1443 H         1 <0>         0.1142
     59 H25        -8.1151    5.9459   -8.7333 H         1 <0>         0.1164
     60 H26        -9.3147    4.1506   -7.5497 H         1 <0>         0.1210
@<TRIPOS>BOND
     1    1    2 1
     2    1   35 1
     3    1   36 1
     4    1   37 1
     5    2    6 1
     6    2    3 2
     7    3    4 1
     8    3   13 1
     9    4    5 2
    10    5    6 1
    11    5    7 1
    12    7   12 ar
    13    7    8 ar
    14    8    9 ar
    15    8   38 1
    16    9   10 ar
    17    9   39 1
    18   10   11 ar
    19   10   40 1
    20   11   12 ar
    21   11   41 1
    22   12   42 1
    23   13   14 1
    24   13   43 1
    25   13   44 1
    26   14   15 1
    27   14   45 1
    28   14   46 1
    29   15   16 1
    30   16   21 ar
    31   16   17 ar
    32   17   18 ar
    33   17   47 1
    34   18   19 ar
    35   18   48 1
    36   19   20 ar
    37   19   22 1
    38   20   21 ar
    39   20   49 1
    40   21   50 1
    41   22   23 1
    42   23   24 1
    43   23   25 1
    44   23   32 1
    45   24   51 1
    46   24   52 1
    47   24   53 1
    48   25   26 1
    49   25   54 1
    50   25   55 1
    51   26   31 ar
    52   26   27 ar
    53   27   28 ar
    54   27   56 1
    55   28   29 ar
    56   28   57 1
    57   29   30 ar
    58   29   58 1
    59   30   31 ar
    60   30   59 1
    61   31   60 1
    62   32   33 2
    63   32   34 1
@<TRIPOS>MOLECULE
CHEMBL81592__1
   60    63     0     0     0
SMALL
USER_CHARGES

@<TRIPOS>ATOM
      1 C1         -0.7949    2.2404    0.7529 C.3       1 <0>        -0.0709
      2 C2         -0.5932    0.7470    0.7629 C.2       1 <0>        -0.0343
      3 C3         -1.5555   -0.1887    0.6698 C.2       1 <0>        -0.0034
      4 N1         -0.9646   -1.3922    0.7170 N.2       1 <0>        -0.4573
      5 C4          0.3307   -1.2192    0.8361 C.2       1 <0>         0.2263
      6 O1          0.5853    0.1005    0.8609 O.3       1 <0>        -0.1942
      7 C5          1.3409   -2.2950    0.9222 C.ar      1 <0>        -0.0155
      8 C6          0.9460   -3.6328    0.8728 C.ar      1 <0>        -0.0706
      9 C7          1.8939   -4.6320    0.9533 C.ar      1 <0>        -0.1203
     10 C8          3.2333   -4.3103    1.0826 C.ar      1 <0>        -0.1022
     11 C9          3.6313   -2.9862    1.1327 C.ar      1 <0>        -0.1217
     12 C10         2.6941   -1.9773    1.0475 C.ar      1 <0>        -0.0913
     13 C11        -3.0343    0.0694    0.5368 C.3       1 <0>        -0.0352
     14 C12        -3.4041    0.1652   -0.9448 C.3       1 <0>         0.0704
     15 O2         -4.8063    0.4098   -1.0709 O.3       1 <0>        -0.3186
     16 C13        -5.3023    0.5226   -2.3320 C.ar      1 <0>         0.0742
     17 C14        -4.4566    0.3945   -3.4238 C.ar      1 <0>        -0.1799
     18 C15        -4.9605    0.5091   -4.7049 C.ar      1 <0>        -0.1356
     19 C16        -6.3121    0.7519   -4.8993 C.ar      1 <0>         0.1393
     20 C17        -7.1580    0.8791   -3.8075 C.ar      1 <0>        -0.1182
     21 C18        -6.6549    0.7602   -2.5265 C.ar      1 <0>        -0.1218
     22 O3         -6.8080    0.8656   -6.1604 O.3       1 <0>        -0.2978
     23 C19        -8.1800    1.2445   -6.2863 C.3       1 <0>         0.0387
     24 C20        -8.3969    2.6041   -5.6189 C.3       1 <0>        -0.1771
     25 C21        -8.5491    1.3391   -7.7681 C.3       1 <0>        -0.0483
     26 C22        -8.4533   -0.0266   -8.3978 C.ar      1 <0>        -0.0676
     27 C23        -7.2605   -0.4491   -8.9542 C.ar      1 <0>        -0.1024
     28 C24        -7.1726   -1.7019   -9.5318 C.ar      1 <0>        -0.1316
     29 C25        -8.2775   -2.5324   -9.5527 C.ar      1 <0>        -0.1306
     30 C26        -9.4701   -2.1103   -8.9955 C.ar      1 <0>        -0.1252
     31 C27        -9.5567   -0.8592   -8.4140 C.ar      1 <0>        -0.0916
     32 C28        -9.0499    0.2119   -5.6169 C.2       1 <0>         0.4892
     33 O4         -8.5419   -0.7587   -5.0816 O.co2     1 <0>        -0.6640
     34 O5        -10.2616    0.3470   -5.6106 O.co2     1 <0>        -0.6872
     35 H1          0.1710    2.7381    0.8387 H         1 <0>         0.0795
     36 H2         -1.2744    2.5360   -0.1803 H         1 <0>         0.0927
     37 H3         -1.4274    2.5272    1.5931 H         1 <0>         0.0927
     38 H4         -0.0992   -3.8852    0.7722 H         1 <0>         0.1396
     39 H5          1.5897   -5.6676    0.9155 H         1 <0>         0.1327
     40 H6          3.9714   -5.0963    1.1452 H         1 <0>         0.1280
     41 H7          4.6784   -2.7418    1.2344 H         1 <0>         0.1300
     42 H8          3.0066   -0.9441    1.0818 H         1 <0>         0.1298
     43 H9         -3.5887   -0.7483    0.9975 H         1 <0>         0.0940
     44 H10        -3.2861    1.0054    1.0354 H         1 <0>         0.0917
     45 H11        -2.8497    0.9828   -1.4055 H         1 <0>         0.0565
     46 H12        -3.1523   -0.7709   -1.4433 H         1 <0>         0.0618
     47 H13        -3.4042    0.2055   -3.2724 H         1 <0>         0.1202
     48 H14        -4.3019    0.4100   -5.5550 H         1 <0>         0.1214
     49 H15        -8.2104    1.0685   -3.9589 H         1 <0>         0.1456
     50 H16        -7.3141    0.8556   -1.6764 H         1 <0>         0.1232
     51 H17        -7.9309    3.3834   -6.2219 H         1 <0>         0.0512
     52 H18        -9.4657    2.8008   -5.5340 H         1 <0>         0.0759
     53 H19        -7.9488    2.5967   -4.6253 H         1 <0>         0.0689
     54 H20        -9.5681    1.7135   -7.8655 H         1 <0>         0.0906
     55 H21        -7.8623    2.0200   -8.2709 H         1 <0>         0.0675
     56 H22        -6.3973    0.1998   -8.9379 H         1 <0>         0.1158
     57 H23        -6.2409   -2.0317   -9.9672 H         1 <0>         0.1127
     58 H24        -8.2091   -3.5109  -10.0046 H         1 <0>         0.1120
     59 H25       -10.3334   -2.7590   -9.0121 H         1 <0>         0.1144
     60 H26       -10.4874   -0.5309   -7.9754 H         1 <0>         0.1279
@<TRIPOS>BOND
     1    1    2 1
     2    1   35 1
     3    1   36 1
     4    1   37 1
     5    2    6 1
     6    2    3 2
     7    3    4 1
     8    3   13 1
     9    4    5 2
    10    5    6 1
    11    5    7 1
    12    7   12 ar
    13    7    8 ar
    14    8    9 ar
    15    8   38 1
    16    9   10 ar
    17    9   39 1
    18   10   11 ar
    19   10   40 1
    20   11   12 ar
    21   11   41 1
    22   12   42 1
    23   13   14 1
    24   13   43 1
    25   13   44 1
    26   14   15 1
    27   14   45 1
    28   14   46 1
    29   15   16 1
    30   16   21 ar
    31   16   17 ar
    32   17   18 ar
    33   17   47 1
    34   18   19 ar
    35   18   48 1
    36   19   20 ar
    37   19   22 1
    38   20   21 ar
    39   20   49 1
    40   21   50 1
    41   22   23 1
    42   23   24 1
    43   23   25 1
    44   23   32 1
    45   24   51 1
    46   24   52 1
    47   24   53 1
    48   25   26 1
    49   25   54 1
    50   25   55 1
    51   26   31 ar
    52   26   27 ar
    53   27   28 ar
    54   27   56 1
    55   28   29 ar
    56   28   57 1
    57   29   30 ar
    58   29   58 1
    59   30   31 ar
    60   30   59 1
    61   31   60 1
    62   32   33 2
    63   32   34 1
@<TRIPOS>MOLECULE
CHEMBL270835
   53    55     0     0     0
SMALL
USER_CHARGES

@<TRIPOS>ATOM
      1 C1         -0.0184    1.5028    0.0103 C.3       1 <0>        -0.0700
      2 C2          0.0021   -0.0041    0.0020 C.2       1 <0>        -0.0408
      3 C3         -1.0705   -0.8164    0.0025 C.2       1 <0>        -0.0022
      4 N1         -0.6270   -2.0826   -0.0064 N.2       1 <0>        -0.4601
      5 C4          0.6851   -2.0676   -0.0123 C.2       1 <0>         0.2196
      6 O1          1.0981   -0.7883   -0.0131 O.3       1 <0>        -0.1960
      7 C5          1.5619   -3.2577   -0.0227 C.ar      1 <0>        -0.0126
      8 C6          1.0059   -4.5378   -0.0330 C.ar      1 <0>        -0.0725
      9 C7          1.8298   -5.6443   -0.0432 C.ar      1 <0>        -0.1209
     10 C8          3.2044   -5.4871   -0.0433 C.ar      1 <0>        -0.1038
     11 C9          3.7620   -4.2209   -0.0327 C.ar      1 <0>        -0.1210
     12 C10         2.9493   -3.1060   -0.0282 C.ar      1 <0>        -0.0923
     13 C11        -2.5133   -0.3814    0.0119 C.3       1 <0>        -0.0390
     14 C12        -3.0085   -0.2260   -1.4274 C.3       1 <0>        -0.1106
     15 C13        -4.4733    0.2157   -1.4179 C.3       1 <0>        -0.1184
     16 C14        -4.9685    0.3712   -2.8572 C.3       1 <0>        -0.1171
     17 C15        -6.4333    0.8128   -2.8476 C.3       1 <0>        -0.1062
     18 C16        -6.9285    0.9683   -4.2869 C.3       1 <0>        -0.1555
     19 C17        -6.1782    2.1189   -4.9666 C.3       1 <0>         0.0522
     20 O2         -6.5207    3.3459   -4.3149 O.3       1 <0>        -0.3657
     21 C18        -7.9218    3.6304   -4.3216 C.3       1 <0>         0.2072
     22 O3         -8.6268    2.5684   -3.6743 O.3       1 <0>        -0.3570
     23 C19        -8.4272    1.2887   -4.2825 C.3       1 <0>         0.0507
     24 C20        -8.4089    3.7599   -5.7662 C.3       1 <0>        -0.1868
     25 C21        -8.1756    4.9222   -3.5882 C.2       1 <0>         0.5280
     26 O4         -7.7386    5.9707   -4.0312 O.co2     1 <0>        -0.6722
     27 O5         -8.8179    4.9189   -2.5519 O.co2     1 <0>        -0.6622
     28 H1          1.0042    1.8801    0.0026 H         1 <0>         0.0776
     29 H2         -0.5455    1.8639   -0.8728 H         1 <0>         0.0932
     30 H3         -0.5286    1.8543    0.9071 H         1 <0>         0.0917
     31 H4         -0.0670   -4.6619   -0.0326 H         1 <0>         0.1384
     32 H5          1.4008   -6.6354   -0.0508 H         1 <0>         0.1318
     33 H6          3.8450   -6.3565   -0.0513 H         1 <0>         0.1276
     34 H7          4.8357   -4.1050   -0.0321 H         1 <0>         0.1300
     35 H8          3.3858   -2.1181   -0.0249 H         1 <0>         0.1298
     36 H9         -3.1156   -1.1316    0.5243 H         1 <0>         0.0815
     37 H10        -2.6018    0.5726    0.5316 H         1 <0>         0.0822
     38 H11        -2.4061    0.5242   -1.9398 H         1 <0>         0.0613
     39 H12        -2.9200   -1.1800   -1.9471 H         1 <0>         0.0626
     40 H13        -5.0756   -0.5344   -0.9055 H         1 <0>         0.0617
     41 H14        -4.5618    1.1697   -0.8982 H         1 <0>         0.0671
     42 H15        -4.3661    1.1213   -3.3696 H         1 <0>         0.0631
     43 H16        -4.8800   -0.5829   -3.3769 H         1 <0>         0.0547
     44 H17        -7.0356    0.0627   -2.3352 H         1 <0>         0.0580
     45 H18        -6.5218    1.7668   -2.3279 H         1 <0>         0.0800
     46 H19        -6.7546    0.0423   -4.8350 H         1 <0>         0.0766
     47 H20        -5.1041    1.9513   -4.8876 H         1 <0>         0.0893
     48 H21        -6.4647    2.1713   -6.0170 H         1 <0>         0.0446
     49 H22        -8.7989    1.3096   -5.3070 H         1 <0>         0.0442
     50 H23        -8.9615    0.5273   -3.7143 H         1 <0>         0.0874
     51 H24        -8.2254    2.8255   -6.2967 H         1 <0>         0.0473
     52 H25        -9.4771    3.9768   -5.7713 H         1 <0>         0.0661
     53 H26        -7.8714    4.5696   -6.2598 H         1 <0>         0.0774
@<TRIPOS>BOND
     1    1    2 1
     2    1   28 1
     3    1   29 1
     4    1   30 1
     5    2    6 1
     6    2    3 2
     7    3    4 1
     8    3   13 1
     9    4    5 2
    10    5    6 1
    11    5    7 1
    12    7   12 ar
    13    7    8 ar
    14    8    9 ar
    15    8   31 1
    16    9   10 ar
    17    9   32 1
    18   10   11 ar
    19   10   33 1
    20   11   12 ar
    21   11   34 1
    22   12   35 1
    23   13   14 1
    24   13   36 1
    25   13   37 1
    26   14   15 1
    27   14   38 1
    28   14   39 1
    29   15   16 1
    30   15   40 1
    31   15   41 1
    32   16   17 1
    33   16   42 1
    34   16   43 1
    35   17   18 1
    36   17   44 1
    37   17   45 1
    38   18   23 1
    39   18   19 1
    40   18   46 1
    41   19   20 1
    42   19   47 1
    43   19   48 1
    44   20   21 1
    45   21   22 1
    46   21   24 1
    47   21   25 1
    48   22   23 1
    49   23   49 1
    50   23   50 1
    51   24   51 1
    52   24   52 1
    53   24   53 1
    54   25   26 2
    55   25   27 1
@<TRIPOS>MOLECULE
CHEMBL331071
   62    65     0     0     0
SMALL
USER_CHARGES

@<TRIPOS>ATOM
      1 C1         -0.8597    0.9065    1.0588 C.3       1 <0>        -0.1530
      2 C2         -0.6303   -0.5593    0.6849 C.3       1 <0>        -0.1170
      3 C3          0.2966   -0.6367   -0.5299 C.3       1 <0>        -0.0727
      4 C4          0.5226   -2.0804   -0.8981 C.ar      1 <0>        -0.1234
      5 C5          1.6271   -2.7475   -0.4181 C.ar      1 <0>        -0.0403
      6 C6          1.8358   -4.0871   -0.7604 C.ar      1 <0>        -0.1991
      7 C7          0.9204   -4.7435   -1.5897 C.ar      1 <0>        -0.0208
      8 C8         -0.1811   -4.0690   -2.0651 C.ar      1 <0>        -0.2197
      9 C9         -0.3877   -2.7384   -1.7175 C.ar      1 <0>         0.1672
     10 O1         -1.4779   -2.0788   -2.1839 O.3       1 <0>        -0.3005
     11 C10        -2.3724   -2.8145   -3.0208 C.3       1 <0>         0.0604
     12 C11        -3.5323   -1.9117   -3.4455 C.3       1 <0>        -0.1199
     13 C12        -4.4901   -2.6994   -4.3416 C.3       1 <0>         0.0632
     14 O2         -5.5735   -1.8562   -4.7383 O.3       1 <0>        -0.3079
     15 C13        -6.5206   -2.4060   -5.5429 C.ar      1 <0>         0.1356
     16 C14        -6.4126   -3.7317   -5.9379 C.ar      1 <0>        -0.1912
     17 C15        -7.3769   -4.2884   -6.7553 C.ar      1 <0>        -0.0707
     18 C16        -8.4492   -3.5255   -7.1801 C.ar      1 <0>        -0.1319
     19 C17        -8.5589   -2.2043   -6.7884 C.ar      1 <0>        -0.0408
     20 C18        -7.6000   -1.6444   -5.9661 C.ar      1 <0>        -0.1184
     21 C19        -9.7285   -1.3757   -7.2536 C.3       1 <0>        -0.0338
     22 C20       -11.0506   -2.0741   -6.9679 C.2       1 <0>         0.5342
     23 O3        -11.4159   -2.3344   -5.8415 O.2       1 <0>        -0.4482
     24 N1        -11.7730   -2.3777   -8.0331 N.am      1 <0>        -0.6896
     25 C21       -11.3899   -2.1001   -9.2931 C.2       1 <0>         0.5628
     26 O4        -11.9832   -2.3390  -10.3270 O.2       1 <0>        -0.4134
     27 S1         -9.8059   -1.2981   -9.0917 S.3       1 <0>        -0.1362
     28 C22         3.0178   -4.8056   -0.2490 C.2       1 <0>         0.4424
     29 O5          3.2724   -5.9232   -0.6546 O.2       1 <0>        -0.4501
     30 C23         3.8928   -4.1672    0.7564 C.ar      1 <0>        -0.1556
     31 C24         3.3480   -3.3197    1.7235 C.ar      1 <0>        -0.0874
     32 C25         4.1704   -2.7276    2.6591 C.ar      1 <0>        -0.1277
     33 C26         5.5325   -2.9713    2.6408 C.ar      1 <0>        -0.0929
     34 C27         6.0790   -3.8100    1.6854 C.ar      1 <0>        -0.1264
     35 C28         5.2675   -4.4133    0.7473 C.ar      1 <0>        -0.0673
     36 H1          0.0951    1.3737    1.3000 H         1 <0>         0.0543
     37 H2         -1.3176    1.4284    0.2185 H         1 <0>         0.0552
     38 H3         -1.5201    0.9617    1.9242 H         1 <0>         0.0548
     39 H4         -0.1724   -1.0812    1.5252 H         1 <0>         0.0603
     40 H5         -1.5851   -1.0264    0.4437 H         1 <0>         0.0639
     41 H6         -0.1613   -0.1148   -1.3701 H         1 <0>         0.0784
     42 H7          1.2514   -0.1695   -0.2887 H         1 <0>         0.0730
     43 H8          2.3316   -2.2367    0.2217 H         1 <0>         0.1464
     44 H9          1.0780   -5.7780   -1.8569 H         1 <0>         0.1375
     45 H10        -0.8882   -4.5750   -2.7057 H         1 <0>         0.1355
     46 H11        -1.8393   -3.1616   -3.9059 H         1 <0>         0.0699
     47 H12        -2.7616   -3.6719   -2.4716 H         1 <0>         0.0699
     48 H13        -4.0655   -1.5646   -2.5604 H         1 <0>         0.0892
     49 H14        -3.1432   -1.0544   -3.9948 H         1 <0>         0.0892
     50 H15        -3.9570   -3.0465   -5.2267 H         1 <0>         0.0691
     51 H16        -4.8793   -3.5568   -3.7924 H         1 <0>         0.0688
     52 H17        -5.5751   -4.3278   -5.6067 H         1 <0>         0.1337
     53 H18        -7.2931   -5.3201   -7.0633 H         1 <0>         0.1339
     54 H19        -9.2021   -3.9626   -7.8193 H         1 <0>         0.1210
     55 H20        -7.6885   -0.6135   -5.6567 H         1 <0>         0.1407
     56 H21        -9.7032   -0.3781   -6.8152 H         1 <0>         0.1697
     57 H22       -12.6236   -2.8243   -7.8993 H         1 <0>         0.4204
     58 H23         2.2852   -3.1280    1.7384 H         1 <0>         0.1349
     59 H24         3.7504   -2.0719    3.4076 H         1 <0>         0.1306
     60 H25         6.1720   -2.5045    3.3754 H         1 <0>         0.1284
     61 H26         7.1429   -3.9957    1.6766 H         1 <0>         0.1304
     62 H27         5.6948   -5.0712    0.0050 H         1 <0>         0.1310
@<TRIPOS>BOND
     1    1    2 1
     2    1   36 1
     3    1   37 1
     4    1   38 1
     5    2    3 1
     6    2   39 1
     7    2   40 1
     8    3    4 1
     9    3   41 1
    10    3   42 1
    11    4    9 ar
    12    4    5 ar
    13    5    6 ar
    14    5   43 1
    15    6    7 ar
    16    6   28 1
    17    7    8 ar
    18    7   44 1
    19    8    9 ar
    20    8   45 1
    21    9   10 1
    22   10   11 1
    23   11   12 1
    24   11   46 1
    25   11   47 1
    26   12   13 1
    27   12   48 1
    28   12   49 1
    29   13   14 1
    30   13   50 1
    31   13   51 1
    32   14   15 1
    33   15   20 ar
    34   15   16 ar
    35   16   17 ar
    36   16   52 1
    37   17   18 ar
    38   17   53 1
    39   18   19 ar
    40   18   54 1
    41   19   20 ar
    42   19   21 1
    43   20   55 1
    44   21   27 1
    45   21   22 1
    46   21   56 1
    47   22   23 2
    48   22   24 am
    49   24   25 am
    50   24   57 1
    51   25   26 2
    52   25   27 1
    53   28   29 2
    54   28   30 1
    55   30   35 ar
    56   30   31 ar
    57   31   32 ar
    58   31   58 1
    59   32   33 ar
    60   32   59 1
    61   33   34 ar
    62   33   60 1
    63   34   35 ar
    64   34   61 1
    65   35   62 1
@<TRIPOS>MOLECULE
CHEMBL331071__1
   62    65     0     0     0
SMALL
USER_CHARGES

@<TRIPOS>ATOM
      1 C1         -0.8597    0.9065    1.0588 C.3       1 <0>        -0.1530
      2 C2         -0.6303   -0.5593    0.6849 C.3       1 <0>        -0.1170
      3 C3          0.2966   -0.6367   -0.5299 C.3       1 <0>        -0.0727
      4 C4          0.5226   -2.0804   -0.8981 C.ar      1 <0>        -0.1234
      5 C5          1.6271   -2.7475   -0.4181 C.ar      1 <0>        -0.0403
      6 C6          1.8358   -4.0871   -0.7604 C.ar      1 <0>        -0.1991
      7 C7          0.9204   -4.7435   -1.5897 C.ar      1 <0>        -0.0208
      8 C8         -0.1811   -4.0690   -2.0651 C.ar      1 <0>        -0.2197
      9 C9         -0.3877   -2.7384   -1.7175 C.ar      1 <0>         0.1672
     10 O1         -1.4779   -2.0788   -2.1839 O.3       1 <0>        -0.3005
     11 C10        -2.3724   -2.8145   -3.0208 C.3       1 <0>         0.0604
     12 C11        -3.5323   -1.9117   -3.4455 C.3       1 <0>        -0.1199
     13 C12        -4.4901   -2.6994   -4.3416 C.3       1 <0>         0.0632
     14 O2         -5.5735   -1.8562   -4.7383 O.3       1 <0>        -0.3079
     15 C13        -6.5206   -2.4060   -5.5429 C.ar      1 <0>         0.1356
     16 C14        -6.4126   -3.7317   -5.9379 C.ar      1 <0>        -0.1913
     17 C15        -7.3769   -4.2884   -6.7553 C.ar      1 <0>        -0.0706
     18 C16        -8.4492   -3.5255   -7.1801 C.ar      1 <0>        -0.1319
     19 C17        -8.5589   -2.2043   -6.7884 C.ar      1 <0>        -0.0407
     20 C18        -7.6000   -1.6444   -5.9661 C.ar      1 <0>        -0.1185
     21 C19        -9.7285   -1.3757   -7.2536 C.3       1 <0>        -0.0337
     22 C20        -9.8898   -1.4447   -8.7657 C.2       1 <0>         0.5343
     23 O3         -9.0359   -1.0441   -9.5274 O.2       1 <0>        -0.4481
     24 N1        -11.0253   -1.9723   -9.1911 N.am      1 <0>        -0.6896
     25 C21       -11.9882   -2.4245   -8.3665 C.2       1 <0>         0.5629
     26 O4        -13.0570   -2.9219   -8.6635 O.2       1 <0>        -0.4134
     27 S1        -11.3287   -2.1237   -6.7332 S.3       1 <0>        -0.1365
     28 C22         3.0178   -4.8056   -0.2490 C.2       1 <0>         0.4424
     29 O5          3.2724   -5.9232   -0.6546 O.2       1 <0>        -0.4501
     30 C23         3.8928   -4.1672    0.7564 C.ar      1 <0>        -0.1556
     31 C24         3.3480   -3.3197    1.7235 C.ar      1 <0>        -0.0874
     32 C25         4.1704   -2.7276    2.6591 C.ar      1 <0>        -0.1276
     33 C26         5.5325   -2.9713    2.6408 C.ar      1 <0>        -0.0929
     34 C27         6.0790   -3.8100    1.6854 C.ar      1 <0>        -0.1264
     35 C28         5.2675   -4.4133    0.7473 C.ar      1 <0>        -0.0673
     36 H1          0.0951    1.3737    1.3000 H         1 <0>         0.0543
     37 H2         -1.3176    1.4284    0.2185 H         1 <0>         0.0552
     38 H3         -1.5201    0.9617    1.9242 H         1 <0>         0.0548
     39 H4         -0.1724   -1.0812    1.5252 H         1 <0>         0.0603
     40 H5         -1.5851   -1.0264    0.4437 H         1 <0>         0.0639
     41 H6         -0.1613   -0.1148   -1.3701 H         1 <0>         0.0784
     42 H7          1.2514   -0.1695   -0.2887 H         1 <0>         0.0730
     43 H8          2.3316   -2.2367    0.2217 H         1 <0>         0.1464
     44 H9          1.0780   -5.7780   -1.8569 H         1 <0>         0.1375
     45 H10        -0.8882   -4.5750   -2.7057 H         1 <0>         0.1355
     46 H11        -1.8393   -3.1616   -3.9059 H         1 <0>         0.0698
     47 H12        -2.7616   -3.6719   -2.4716 H         1 <0>         0.0700
     48 H13        -4.0655   -1.5646   -2.5604 H         1 <0>         0.0892
     49 H14        -3.1432   -1.0544   -3.9948 H         1 <0>         0.0892
     50 H15        -3.9570   -3.0465   -5.2267 H         1 <0>         0.0689
     51 H16        -4.8793   -3.5568   -3.7924 H         1 <0>         0.0690
     52 H17        -5.5751   -4.3278   -5.6067 H         1 <0>         0.1338
     53 H18        -7.2931   -5.3201   -7.0633 H         1 <0>         0.1339
     54 H19        -9.2021   -3.9626   -7.8193 H         1 <0>         0.1210
     55 H20        -7.6885   -0.6135   -5.6567 H         1 <0>         0.1407
     56 H21        -9.6422   -0.3449   -6.9098 H         1 <0>         0.1697
     57 H22       -11.1721   -2.0366  -10.1477 H         1 <0>         0.4204
     58 H23         2.2852   -3.1280    1.7384 H         1 <0>         0.1349
     59 H24         3.7504   -2.0719    3.4076 H         1 <0>         0.1306
     60 H25         6.1720   -2.5045    3.3754 H         1 <0>         0.1284
     61 H26         7.1429   -3.9957    1.6766 H         1 <0>         0.1304
     62 H27         5.6948   -5.0712    0.0050 H         1 <0>         0.1310
@<TRIPOS>BOND
     1    1    2 1
     2    1   36 1
     3    1   37 1
     4    1   38 1
     5    2    3 1
     6    2   39 1
     7    2   40 1
     8    3    4 1
     9    3   41 1
    10    3   42 1
    11    4    9 ar
    12    4    5 ar
    13    5    6 ar
    14    5   43 1
    15    6    7 ar
    16    6   28 1
    17    7    8 ar
    18    7   44 1
    19    8    9 ar
    20    8   45 1
    21    9   10 1
    22   10   11 1
    23   11   12 1
    24   11   46 1
    25   11   47 1
    26   12   13 1
    27   12   48 1
    28   12   49 1
    29   13   14 1
    30   13   50 1
    31   13   51 1
    32   14   15 1
    33   15   20 ar
    34   15   16 ar
    35   16   17 ar
    36   16   52 1
    37   17   18 ar
    38   17   53 1
    39   18   19 ar
    40   18   54 1
    41   19   20 ar
    42   19   21 1
    43   20   55 1
    44   21   27 1
    45   21   22 1
    46   21   56 1
    47   22   23 2
    48   22   24 am
    49   24   25 am
    50   24   57 1
    51   25   26 2
    52   25   27 1
    53   28   29 2
    54   28   30 1
    55   30   35 ar
    56   30   31 ar
    57   31   32 ar
    58   31   58 1
    59   32   33 ar
    60   32   59 1
    61   33   34 ar
    62   33   60 1
    63   34   35 ar
    64   34   61 1
    65   35   62 1
@<TRIPOS>MOLECULE
CHEMBL220681
   55    57     0     0     0
SMALL
USER_CHARGES

@<TRIPOS>ATOM
      1 C1          1.4065    1.2738   -0.0366 C.3       1 <0>        -0.1475
      2 C2          1.1581   -0.2359   -0.0390 C.3       1 <0>        -0.0818
      3 C3          1.7439   -0.8393   -1.2895 C.ar      1 <0>        -0.0814
      4 C4          0.9740   -0.9383   -2.4335 C.ar      1 <0>        -0.1135
      5 C5          1.5068   -1.4911   -3.5832 C.ar      1 <0>        -0.1696
      6 C6          2.8152   -1.9471   -3.5907 C.ar      1 <0>         0.0996
      7 C7          3.5903   -1.8470   -2.4392 C.ar      1 <0>         0.1015
      8 C8          3.0516   -1.2875   -1.2917 C.ar      1 <0>        -0.1709
      9 O1          4.8750   -2.2931   -2.4416 O.3       1 <0>        -0.3056
     10 C9          5.6108   -2.1583   -1.2241 C.3       1 <0>         0.0266
     11 O2          3.3407   -2.4915   -4.7206 O.3       1 <0>        -0.3015
     12 C10         2.4869   -2.5623   -5.8643 C.3       1 <0>         0.0635
     13 C11         3.2469   -3.1993   -7.0295 C.3       1 <0>        -0.1180
     14 C12         2.3328   -3.2751   -8.2540 C.3       1 <0>         0.0662
     15 O3          3.0426   -3.8701   -9.3422 O.3       1 <0>        -0.3151
     16 C13         2.3691   -4.0123  -10.5140 C.ar      1 <0>         0.1146
     17 C14         1.0537   -3.5830  -10.6168 C.ar      1 <0>        -0.2084
     18 C15         0.3739   -3.7296  -11.8089 C.ar      1 <0>        -0.0703
     19 C16         0.9990   -4.3042  -12.9037 C.ar      1 <0>        -0.1085
     20 C17         2.3096   -4.7329  -12.8036 C.ar      1 <0>        -0.0612
     21 C18         2.9960   -4.5815  -11.6112 C.ar      1 <0>        -0.1404
     22 C19         2.7585   -5.3192  -14.1251 C.3       1 <0>        -0.0827
     23 C20         1.4567   -5.6019  -14.9046 C.3       1 <0>        -0.1018
     24 C21         0.4782   -4.5732  -14.2995 C.3       1 <0>        -0.0265
     25 H1          0.4823   -3.6557  -14.8880 H         1 <0>         0.0888
     26 C22        -0.9343   -5.1578  -14.2356 C.3       1 <0>        -0.1740
     27 C23        -1.4880   -5.2874  -15.6312 C.2       1 <0>         0.4909
     28 O4         -0.8600   -4.8480  -16.5794 O.co2     1 <0>        -0.6954
     29 O5         -2.5639   -5.8316  -15.8121 O.co2     1 <0>        -0.7083
     30 H2          2.4791    1.4656   -0.0645 H         1 <0>         0.0546
     31 H3          0.9345    1.7211   -0.9114 H         1 <0>         0.0568
     32 H4          0.9827    1.7103    0.8679 H         1 <0>         0.0578
     33 H5          1.6300   -0.6832    0.8358 H         1 <0>         0.0700
     34 H6          0.0854   -0.4277   -0.0110 H         1 <0>         0.0732
     35 H7         -0.0460   -0.5833   -2.4290 H         1 <0>         0.1267
     36 H8          0.9031   -1.5679   -4.4754 H         1 <0>         0.1360
     37 H9          3.6522   -1.2052   -0.3978 H         1 <0>         0.1337
     38 H10         5.6669   -1.1053   -0.9481 H         1 <0>         0.0538
     39 H11         5.1089   -2.7150   -0.4327 H         1 <0>         0.0540
     40 H12         6.6178   -2.5517   -1.3626 H         1 <0>         0.1006
     41 H13         1.6117   -3.1672   -5.6275 H         1 <0>         0.0660
     42 H14         2.1696   -1.5576   -6.1436 H         1 <0>         0.0658
     43 H15         4.1222   -2.5945   -7.2664 H         1 <0>         0.0860
     44 H16         3.5643   -4.2040   -6.7503 H         1 <0>         0.0861
     45 H17         1.4575   -3.8800   -8.0171 H         1 <0>         0.0642
     46 H18         2.0154   -2.2704   -8.5332 H         1 <0>         0.0639
     47 H19         0.5626   -3.1353   -9.7655 H         1 <0>         0.1234
     48 H20        -0.6499   -3.3953  -11.8885 H         1 <0>         0.1223
     49 H21         4.0214   -4.9118  -11.5343 H         1 <0>         0.1240
     50 H22         3.3755   -4.6023  -14.6668 H         1 <0>         0.0792
     51 H23         3.3095   -6.2451  -13.9604 H         1 <0>         0.0707
     52 H24         1.5968   -5.4230  -15.9706 H         1 <0>         0.0853
     53 H25         1.1101   -6.6194  -14.7236 H         1 <0>         0.0642
     54 H26        -0.8997   -6.1408  -13.7657 H         1 <0>         0.0566
     55 H27        -1.5746   -4.4977  -13.6505 H         1 <0>         0.0557
@<TRIPOS>BOND
     1    1    2 1
     2    1   30 1
     3    1   31 1
     4    1   32 1
     5    2    3 1
     6    2   33 1
     7    2   34 1
     8    3    8 ar
     9    3    4 ar
    10    4    5 ar
    11    4   35 1
    12    5    6 ar
    13    5   36 1
    14    6    7 ar
    15    6   11 1
    16    7    8 ar
    17    7    9 1
    18    8   37 1
    19    9   10 1
    20   10   38 1
    21   10   39 1
    22   10   40 1
    23   11   12 1
    24   12   13 1
    25   12   41 1
    26   12   42 1
    27   13   14 1
    28   13   43 1
    29   13   44 1
    30   14   15 1
    31   14   45 1
    32   14   46 1
    33   15   16 1
    34   16   21 ar
    35   16   17 ar
    36   17   18 ar
    37   17   47 1
    38   18   19 ar
    39   18   48 1
    40   19   24 1
    41   19   20 ar
    42   20   21 ar
    43   20   22 1
    44   21   49 1
    45   22   23 1
    46   22   50 1
    47   22   51 1
    48   23   24 1
    49   23   52 1
    50   23   53 1
    51   24   25 1
    52   24   26 1
    53   26   27 1
    54   26   54 1
    55   26   55 1
    56   27   28 2
    57   27   29 1
@<TRIPOS>MOLECULE
CHEMBL374344
   72    76     0     0     0
SMALL
USER_CHARGES

@<TRIPOS>ATOM
      1 C1         -0.0184    1.5028    0.0103 C.3       1 <0>        -0.0728
      2 C2          0.0021   -0.0041    0.0020 C.2       1 <0>        -0.0302
      3 C3         -1.0707   -0.8165    0.0025 C.2       1 <0>        -0.0077
      4 N1         -0.6275   -2.0825   -0.0072 N.2       1 <0>        -0.4583
      5 C4          0.6850   -2.0677   -0.0136 C.2       1 <0>         0.2288
      6 O1          1.0981   -0.7883   -0.0131 O.3       1 <0>        -0.1926
      7 C5          1.5611   -3.2570   -0.0243 C.ar      1 <0>        -0.0162
      8 C6          1.0018   -4.5370   -0.0341 C.ar      1 <0>        -0.0653
      9 C7          1.8192   -5.6448   -0.0440 C.ar      1 <0>        -0.1120
     10 C8          3.2055   -5.4894   -0.0441 C.ar      1 <0>        -0.0255
     11 C9          3.7650   -4.2116   -0.0338 C.ar      1 <0>        -0.1122
     12 C10         2.9494   -3.1024   -0.0302 C.ar      1 <0>        -0.0849
     13 C11         4.0849   -6.6832   -0.0548 C.ar      1 <0>        -0.0516
     14 C12         3.5290   -7.9615   -0.0704 C.ar      1 <0>        -0.1068
     15 C13         4.3524   -9.0689   -0.0808 C.ar      1 <0>        -0.1180
     16 C14         5.7268   -8.9123   -0.0756 C.ar      1 <0>        -0.1160
     17 C15         6.2841   -7.6463   -0.0596 C.ar      1 <0>        -0.1187
     18 C16         5.4706   -6.5315   -0.0550 C.ar      1 <0>        -0.1076
     19 C17        -2.5134   -0.3813    0.0121 C.3       1 <0>        -0.0338
     20 C18        -3.0088   -0.2255   -1.4270 C.3       1 <0>         0.0681
     21 O2         -4.3769    0.1872   -1.4179 O.3       1 <0>        -0.3150
     22 C19        -4.9735    0.3725   -2.6247 C.ar      1 <0>         0.1108
     23 C20        -4.2585    0.1560   -3.7940 C.ar      1 <0>        -0.1905
     24 C21        -4.8673    0.3447   -5.0194 C.ar      1 <0>        -0.0827
     25 C22        -6.1883    0.7490   -5.0815 C.ar      1 <0>        -0.0751
     26 C23        -6.9027    0.9658   -3.9180 C.ar      1 <0>        -0.0784
     27 C24        -6.3000    0.7730   -2.6898 C.ar      1 <0>        -0.1229
     28 C25        -8.3420    1.4068   -3.9894 C.3       1 <0>         0.1790
     29 N2         -9.1958    0.2462   -4.2544 N.am      1 <0>        -0.6947
     30 C26       -10.5304    0.4016   -4.3603 C.2       1 <0>         0.6392
     31 O3        -11.0254    1.5043   -4.2360 O.2       1 <0>        -0.5047
     32 O4        -11.3155   -0.6657   -4.6039 O.3       1 <0>        -0.2858
     33 C27       -12.6541   -0.4628   -4.7028 C.ar      1 <0>         0.2761
     34 C28       -13.5051   -1.5350   -4.9477 C.ar      1 <0>         0.0562
     35 N3        -14.8062   -1.3345   -5.0428 N.ar      1 <0>        -0.4098
     36 C29       -15.3004   -0.1158   -4.9054 C.ar      1 <0>         0.0148
     37 C30       -14.4567    0.9518   -4.6624 C.ar      1 <0>         0.0863
     38 N4        -13.1530    0.7564   -4.5606 N.ar      1 <0>        -0.4313
     39 C31        -6.8500    0.9540   -6.4198 C.3       1 <0>        -0.0625
     40 C32        -6.7603    2.4301   -6.8123 C.3       1 <0>        -0.1755
     41 C33        -7.4221    2.6351   -8.1506 C.2       1 <0>         0.4898
     42 O5         -7.9194    1.6884   -8.7362 O.co2     1 <0>        -0.6977
     43 O6         -7.4602    3.7477   -8.6478 O.co2     1 <0>        -0.7047
     44 H1          1.0042    1.8801    0.0026 H         1 <0>         0.0810
     45 H2         -0.5455    1.8639   -0.8728 H         1 <0>         0.0929
     46 H3         -0.5286    1.8543    0.9071 H         1 <0>         0.0934
     47 H4         -0.0714   -4.6576   -0.0336 H         1 <0>         0.1420
     48 H5          1.3870   -6.6345   -0.0512 H         1 <0>         0.1357
     49 H6          4.8384   -4.0924   -0.0333 H         1 <0>         0.1339
     50 H7          3.3828   -2.1132   -0.0271 H         1 <0>         0.1333
     51 H8          2.4561   -8.0850   -0.0741 H         1 <0>         0.1276
     52 H9          3.9229  -10.0598   -0.0926 H         1 <0>         0.1256
     53 H10         6.3673   -9.7819   -0.0837 H         1 <0>         0.1234
     54 H11         7.3578   -7.5300   -0.0549 H         1 <0>         0.1251
     55 H12         5.9067   -5.5435   -0.0473 H         1 <0>         0.1265
     56 H13        -3.1158   -1.1315    0.5245 H         1 <0>         0.0945
     57 H14        -2.6017    0.5726    0.5321 H         1 <0>         0.0930
     58 H15        -2.4064    0.5247   -1.9394 H         1 <0>         0.0614
     59 H16        -2.9205   -1.1794   -1.9470 H         1 <0>         0.0655
     60 H17        -3.2267   -0.1594   -3.7460 H         1 <0>         0.1243
     61 H18        -4.3111    0.1766   -5.9297 H         1 <0>         0.1279
     62 H19        -6.8598    0.9382   -1.7811 H         1 <0>         0.1312
     63 H20        -8.6302    1.8611   -3.0414 H         1 <0>         0.0808
     64 H21        -8.4594    2.1351   -4.7919 H         1 <0>         0.0945
     65 H22        -8.8006   -0.6341   -4.3536 H         1 <0>         0.4082
     66 H23       -13.1019   -2.5306   -5.0603 H         1 <0>         0.1800
     67 H24       -16.3653    0.0459   -4.9837 H         1 <0>         0.1748
     68 H25       -14.8633    1.9462   -4.5513 H         1 <0>         0.1755
     69 H26        -6.3455    0.3469   -7.1715 H         1 <0>         0.0716
     70 H27        -7.8971    0.6578   -6.3566 H         1 <0>         0.0740
     71 H28        -7.2649    3.0372   -6.0607 H         1 <0>         0.0578
     72 H29        -5.7133    2.7262   -6.8756 H         1 <0>         0.0574
@<TRIPOS>BOND
     1    1    2 1
     2    1   44 1
     3    1   45 1
     4    1   46 1
     5    2    6 1
     6    2    3 2
     7    3    4 1
     8    3   19 1
     9    4    5 2
    10    5    6 1
    11    5    7 1
    12    7   12 ar
    13    7    8 ar
    14    8    9 ar
    15    8   47 1
    16    9   10 ar
    17    9   48 1
    18   10   11 ar
    19   10   13 1
    20   11   12 ar
    21   11   49 1
    22   12   50 1
    23   13   18 ar
    24   13   14 ar
    25   14   15 ar
    26   14   51 1
    27   15   16 ar
    28   15   52 1
    29   16   17 ar
    30   16   53 1
    31   17   18 ar
    32   17   54 1
    33   18   55 1
    34   19   20 1
    35   19   56 1
    36   19   57 1
    37   20   21 1
    38   20   58 1
    39   20   59 1
    40   21   22 1
    41   22   27 ar
    42   22   23 ar
    43   23   24 ar
    44   23   60 1
    45   24   25 ar
    46   24   61 1
    47   25   26 ar
    48   25   39 1
    49   26   27 ar
    50   26   28 1
    51   27   62 1
    52   28   29 1
    53   28   63 1
    54   28   64 1
    55   29   30 am
    56   29   65 1
    57   30   31 2
    58   30   32 1
    59   32   33 1
    60   33   38 ar
    61   33   34 ar
    62   34   35 ar
    63   34   66 1
    64   35   36 ar
    65   36   37 ar
    66   36   67 1
    67   37   38 ar
    68   37   68 1
    69   39   40 1
    70   39   69 1
    71   39   70 1
    72   40   41 1
    73   40   71 1
    74   40   72 1
    75   41   42 2
    76   41   43 1
@<TRIPOS>MOLECULE
CHEMBL272336
   73    77     0     0     0
SMALL
USER_CHARGES

@<TRIPOS>ATOM
      1 C1         -0.0184    1.5028    0.0103 C.3       1 <0>        -0.0732
      2 C2          0.0021   -0.0041    0.0020 C.2       1 <0>        -0.0270
      3 C3         -1.0704   -0.8163    0.0025 C.2       1 <0>        -0.0058
      4 N1         -0.6270   -2.0826   -0.0069 N.2       1 <0>        -0.4538
      5 C4          0.6852   -2.0676   -0.0131 C.2       1 <0>         0.2235
      6 O1          1.0982   -0.7883   -0.0131 O.3       1 <0>        -0.1923
      7 C5          1.5619   -3.2576   -0.0233 C.ar      1 <0>        -0.0094
      8 C6          1.0056   -4.5377   -0.0330 C.ar      1 <0>        -0.0582
      9 C7          1.8288   -5.6444   -0.0424 C.ar      1 <0>        -0.1097
     10 C8          3.2046   -5.4873   -0.0419 C.ar      1 <0>        -0.0196
     11 C9          3.7624   -4.2198   -0.0324 C.ar      1 <0>        -0.1106
     12 C10         2.9494   -3.1056   -0.0291 C.ar      1 <0>        -0.0781
     13 Cl1         4.2343   -6.8849   -0.0527 Cl        1 <0>        -0.0617
     14 C11        -2.5132   -0.3812    0.0123 C.3       1 <0>        -0.0357
     15 C12        -3.0086   -0.2253   -1.4269 C.3       1 <0>         0.0687
     16 O2         -4.3768    0.1872   -1.4176 O.3       1 <0>        -0.3139
     17 C13        -4.9735    0.3727   -2.6244 C.ar      1 <0>         0.1244
     18 C14        -4.2585    0.1563   -3.7937 C.ar      1 <0>        -0.2153
     19 C15        -4.8674    0.3450   -5.0190 C.ar      1 <0>        -0.0809
     20 C16        -6.1885    0.7492   -5.0810 C.ar      1 <0>        -0.1358
     21 C17        -6.9028    0.9659   -3.9175 C.ar      1 <0>        -0.0343
     22 C18        -6.3000    0.7730   -2.6893 C.ar      1 <0>        -0.1425
     23 C19        -8.3421    1.4068   -3.9887 C.3       1 <0>        -0.0635
     24 C20        -9.2516    0.1768   -4.0153 C.3       1 <0>        -0.1215
     25 H1         -8.9652   -0.5717   -3.2765 H         1 <0>         0.1115
     26 C21       -10.7429    0.5257   -3.9768 C.3       1 <0>         0.0683
     27 H2        -11.3132   -0.0372   -3.2379 H         1 <0>         0.1000
     28 N2        -10.7551   -0.0643   -5.3205 N.am      1 <0>        -0.5468
     29 C22        -9.4423   -0.3940   -5.3995 C.2       1 <0>         0.5356
     30 O3         -8.7268   -0.9202   -6.2255 O.2       1 <0>        -0.4958
     31 C23       -11.7994   -0.2361   -6.2358 C.ar      1 <0>         0.1812
     32 C24       -13.0808    0.1949   -5.9185 C.ar      1 <0>        -0.1200
     33 C25       -14.1094    0.0237   -6.8242 C.ar      1 <0>        -0.0897
     34 C26       -13.8644   -0.5764   -8.0456 C.ar      1 <0>        -0.1127
     35 C27       -12.5896   -1.0071   -8.3644 C.ar      1 <0>        -0.0965
     36 C28       -11.5554   -0.8329   -7.4658 C.ar      1 <0>        -0.1639
     37 C29       -14.9892   -0.7620   -9.0313 C.3       1 <0>        -0.0227
     38 C30       -15.5748    0.6026   -9.3997 C.3       1 <0>        -0.1378
     39 C31       -14.4552   -1.4450  -10.2919 C.3       1 <0>        -0.1418
     40 C32       -16.0796   -1.6321   -8.4029 C.3       1 <0>        -0.1364
     41 C33       -11.0287    2.0051   -3.9468 C.2       1 <0>         0.5026
     42 O4        -11.5208    2.5507   -4.9198 O.co2     1 <0>        -0.6660
     43 O5        -10.7679    2.6563   -2.9496 O.co2     1 <0>        -0.6779
     44 H3          1.0042    1.8801    0.0026 H         1 <0>         0.0811
     45 H4         -0.5455    1.8639   -0.8728 H         1 <0>         0.0935
     46 H5         -0.5286    1.8543    0.9071 H         1 <0>         0.0948
     47 H6         -0.0673   -4.6614   -0.0326 H         1 <0>         0.1497
     48 H7          1.3994   -6.6354   -0.0499 H         1 <0>         0.1445
     49 H8          4.8362   -4.1036   -0.0317 H         1 <0>         0.1423
     50 H9          3.3856   -2.1176   -0.0266 H         1 <0>         0.1408
     51 H10        -3.1154   -1.1315    0.5246 H         1 <0>         0.0958
     52 H11        -2.6015    0.5726    0.5323 H         1 <0>         0.0943
     53 H12        -2.4064    0.5250   -1.9392 H         1 <0>         0.0600
     54 H13        -2.9203   -1.1792   -1.9469 H         1 <0>         0.0645
     55 H14        -3.2267   -0.1590   -3.7458 H         1 <0>         0.1202
     56 H15        -4.3113    0.1771   -5.9294 H         1 <0>         0.1207
     57 H16        -6.6628    0.8962   -6.0401 H         1 <0>         0.1232
     58 H17        -6.8598    0.9381   -1.7806 H         1 <0>         0.1335
     59 H18        -8.5793    2.0153   -3.1160 H         1 <0>         0.1127
     60 H19        -8.4980    1.9936   -4.8940 H         1 <0>         0.0784
     61 H20       -13.2729    0.6630   -4.9644 H         1 <0>         0.1253
     62 H21       -15.1062    0.3587   -6.5780 H         1 <0>         0.1178
     63 H22       -12.4017   -1.4761   -9.3189 H         1 <0>         0.1219
     64 H23       -10.5590   -1.1651   -7.7173 H         1 <0>         0.1250
     65 H24       -14.7980    1.2225   -9.8474 H         1 <0>         0.0561
     66 H25       -16.3884    0.4684  -10.1126 H         1 <0>         0.0522
     67 H26       -15.9553    1.0892   -8.5016 H         1 <0>         0.0571
     68 H27       -14.0380   -2.4172  -10.0295 H         1 <0>         0.0567
     69 H28       -15.2687   -1.5792  -11.0048 H         1 <0>         0.0528
     70 H29       -13.6783   -0.8251  -10.7396 H         1 <0>         0.0577
     71 H30       -16.4601   -1.1455   -7.5048 H         1 <0>         0.0563
     72 H31       -16.8932   -1.7663   -9.1158 H         1 <0>         0.0525
     73 H32       -15.6624   -2.6043   -8.1404 H         1 <0>         0.0542
@<TRIPOS>BOND
     1    1    2 1
     2    1   44 1
     3    1   45 1
     4    1   46 1
     5    2    6 1
     6    2    3 2
     7    3    4 1
     8    3   14 1
     9    4    5 2
    10    5    6 1
    11    5    7 1
    12    7   12 ar
    13    7    8 ar
    14    8    9 ar
    15    8   47 1
    16    9   10 ar
    17    9   48 1
    18   10   11 ar
    19   10   13 1
    20   11   12 ar
    21   11   49 1
    22   12   50 1
    23   14   15 1
    24   14   51 1
    25   14   52 1
    26   15   16 1
    27   15   53 1
    28   15   54 1
    29   16   17 1
    30   17   22 ar
    31   17   18 ar
    32   18   19 ar
    33   18   55 1
    34   19   20 ar
    35   19   56 1
    36   20   21 ar
    37   20   57 1
    38   21   22 ar
    39   21   23 1
    40   22   58 1
    41   23   24 1
    42   23   59 1
    43   23   60 1
    44   24   25 1
    45   24   29 1
    46   24   26 1
    47   26   27 1
    48   26   28 1
    49   26   41 1
    50   28   29 am
    51   28   31 1
    52   29   30 2
    53   31   36 ar
    54   31   32 ar
    55   32   33 ar
    56   32   61 1
    57   33   34 ar
    58   33   62 1
    59   34   35 ar
    60   34   37 1
    61   35   36 ar
    62   35   63 1
    63   36   64 1
    64   37   38 1
    65   37   39 1
    66   37   40 1
    67   38   65 1
    68   38   66 1
    69   38   67 1
    70   39   68 1
    71   39   69 1
    72   39   70 1
    73   40   71 1
    74   40   72 1
    75   40   73 1
    76   41   42 2
    77   41   43 1
@<TRIPOS>MOLECULE
CHEMBL446893
   47    48     0     0     0
SMALL
USER_CHARGES

@<TRIPOS>ATOM
      1 C1         -0.0187    1.5258    0.0104 C.3       1 <0>        -0.1431
      2 C2          0.0021   -0.0041    0.0020 C.3       1 <0>         0.0655
      3 O1          0.6932   -0.4774    1.1597 O.3       1 <0>        -0.3672
      4 C3          0.7699   -1.9016    1.2491 C.3       1 <0>         0.0328
      5 H1          0.7819   -2.3284    0.2462 H         1 <0>         0.0491
      6 C4          2.0499   -2.2981    1.9875 C.3       1 <0>        -0.0613
      7 C5          3.2484   -1.8847    1.1728 C.ar      1 <0>        -0.0953
      8 C6          3.7840   -2.7557    0.2422 C.ar      1 <0>        -0.0820
      9 C7          4.8829   -2.3792   -0.5056 C.ar      1 <0>        -0.1504
     10 C8          5.4488   -1.1259   -0.3223 C.ar      1 <0>         0.1101
     11 C9          4.9092   -0.2536    0.6118 C.ar      1 <0>        -0.2081
     12 C10         3.8070   -0.6328    1.3533 C.ar      1 <0>        -0.0620
     13 O2          6.5301   -0.7534   -1.0564 O.3       1 <0>        -0.3149
     14 C11         7.0601    0.5515   -0.8146 C.3       1 <0>         0.0884
     15 C12         8.2468    0.7862   -1.7134 C.2       1 <0>        -0.1094
     16 C13         8.3710    1.9418   -2.3644 C.2       1 <0>        -0.0488
     17 C14         9.4986    2.1649   -3.2184 C.1       1 <0>        -0.1159
     18 C15        10.4230    2.3477   -3.9186 C.1       1 <0>        -0.1294
     19 C16        11.5506    2.5707   -4.7727 C.ar      1 <0>         0.0156
     20 C17        12.5200    1.5761   -4.9302 C.ar      1 <0>        -0.0955
     21 C18        13.6032    1.7982   -5.7544 C.ar      1 <0>        -0.1190
     22 C19        13.7320    3.0024   -6.4242 C.ar      1 <0>        -0.1118
     23 C20        12.7763    3.9919   -6.2732 C.ar      1 <0>        -0.1194
     24 C21        11.6844    3.7820   -5.4574 C.ar      1 <0>        -0.0958
     25 C22        -0.4267   -2.4228    2.0025 C.2       1 <0>         0.4772
     26 O3         -0.6021   -3.6243    2.1120 O.co2     1 <0>        -0.7000
     27 O4         -1.2193   -1.6429    2.5025 O.co2     1 <0>        -0.6799
     28 H2          1.0039    1.9031    0.0027 H         1 <0>         0.0535
     29 H3         -0.5459    1.8868   -0.8726 H         1 <0>         0.0599
     30 H4         -0.5289    1.8773    0.9072 H         1 <0>         0.0624
     31 H5         -1.0205   -0.3814    0.0098 H         1 <0>         0.0457
     32 H6          0.5123   -0.3556   -0.8948 H         1 <0>         0.0300
     33 H7          2.0796   -1.7996    2.9564 H         1 <0>         0.0735
     34 H8          2.0651   -3.3781    2.1339 H         1 <0>         0.0876
     35 H9          3.3432   -3.7313    0.0999 H         1 <0>         0.1293
     36 H10         5.3014   -3.0602   -1.2319 H         1 <0>         0.1257
     37 H11         5.3479    0.7226    0.7563 H         1 <0>         0.1225
     38 H12         3.3839    0.0475    2.0775 H         1 <0>         0.1269
     39 H13         6.2941    1.2988   -1.0215 H         1 <0>         0.0725
     40 H14         7.3721    0.6297    0.2269 H         1 <0>         0.0788
     41 H15         8.9965    0.0176   -1.8297 H         1 <0>         0.1255
     42 H16         7.6213    2.7105   -2.2480 H         1 <0>         0.1403
     43 H17        12.4212    0.6361   -4.4076 H         1 <0>         0.1274
     44 H18        14.3530    1.0307   -5.8772 H         1 <0>         0.1284
     45 H19        14.5828    3.1708   -7.0678 H         1 <0>         0.1257
     46 H20        12.8838    4.9292   -6.7989 H         1 <0>         0.1282
     47 H21        10.9369    4.5533   -5.3443 H         1 <0>         0.1273
@<TRIPOS>BOND
     1    1    2 1
     2    1   28 1
     3    1   29 1
     4    1   30 1
     5    2    3 1
     6    2   31 1
     7    2   32 1
     8    3    4 1
     9    4    5 1
    10    4    6 1
    11    4   25 1
    12    6    7 1
    13    6   33 1
    14    6   34 1
    15    7   12 ar
    16    7    8 ar
    17    8    9 ar
    18    8   35 1
    19    9   10 ar
    20    9   36 1
    21   10   11 ar
    22   10   13 1
    23   11   12 ar
    24   11   37 1
    25   12   38 1
    26   13   14 1
    27   14   15 1
    28   14   39 1
    29   14   40 1
    30   15   16 2
    31   15   41 1
    32   16   17 1
    33   16   42 1
    34   17   18 3
    35   18   19 1
    36   19   24 ar
    37   19   20 ar
    38   20   21 ar
    39   20   43 1
    40   21   22 ar
    41   21   44 1
    42   22   23 ar
    43   22   45 1
    44   23   24 ar
    45   23   46 1
    46   24   47 1
    47   25   26 2
    48   25   27 1
@<TRIPOS>MOLECULE
CHEMBL414868
   69    73     0     0     0
SMALL
USER_CHARGES

@<TRIPOS>ATOM
      1 C1         -0.6540    1.0471    0.5607 C.3       1 <0>        -0.1531
      2 C2         -0.4152   -0.4263    0.2244 C.3       1 <0>        -0.1156
      3 C3          0.5384   -0.5293   -0.9676 C.3       1 <0>        -0.0723
      4 C4          0.7737   -1.9805   -1.2987 C.ar      1 <0>        -0.1215
      5 C5          1.8261   -2.6815   -0.6910 C.ar      1 <0>         0.0157
      6 C6          2.6786   -2.0490    0.2343 C.ar      1 <0>        -0.1221
      7 C7          3.6905   -2.7441    0.8109 C.ar      1 <0>        -0.0612
      8 C8          3.9044   -4.0998    0.4972 C.ar      1 <0>        -0.1732
      9 C9          3.0814   -4.7505   -0.4100 C.ar      1 <0>        -0.0403
     10 C10         2.0309   -4.0474   -1.0158 C.ar      1 <0>        -0.0979
     11 C11         1.1762   -4.6768   -1.9402 C.ar      1 <0>        -0.0594
     12 C12         0.1640   -3.9743   -2.5137 C.ar      1 <0>        -0.1894
     13 C13        -0.0466   -2.6283   -2.1953 C.ar      1 <0>         0.1486
     14 O1         -1.0690   -1.9520   -2.7798 O.3       1 <0>        -0.3028
     15 C14        -1.8847   -2.6786   -3.7011 C.3       1 <0>         0.0617
     16 C15        -2.9751   -1.7581   -4.2528 C.3       1 <0>        -0.1393
     17 C16        -3.8485   -2.5361   -5.2392 C.3       1 <0>         0.1208
     18 N1         -4.8926   -1.6546   -5.7675 N.pl3     1 <0>        -0.4880
     19 C17        -6.1614   -1.5508   -5.2665 C.2       1 <0>         0.0505
     20 C18        -6.8632   -0.6556   -5.9793 C.2       1 <0>        -0.2055
     21 C19        -5.9712   -0.1436   -7.0225 C.ar      1 <0>        -0.0671
     22 C20        -4.7413   -0.8013   -6.8402 C.ar      1 <0>         0.0552
     23 C21        -3.6784   -0.5146   -7.6897 C.ar      1 <0>        -0.0936
     24 C22        -3.8333    0.4102   -8.6984 C.ar      1 <0>        -0.1792
     25 C23        -5.0483    1.0655   -8.8792 C.ar      1 <0>         0.1167
     26 C24        -6.1184    0.7886   -8.0516 C.ar      1 <0>        -0.1248
     27 O2         -5.1841    1.9763   -9.8800 O.3       1 <0>        -0.2832
     28 C25        -4.0406    2.2093  -10.7047 C.3       1 <0>        -0.0052
     29 C26        -4.3772    3.2411  -11.7502 C.2       1 <0>         0.5006
     30 O3         -5.4929    3.7315  -11.7858 O.co2     1 <0>        -0.6710
     31 O4         -3.5338    3.5855  -12.5605 O.co2     1 <0>        -0.6896
     32 C27         5.0128   -4.8337    1.1379 C.2       1 <0>         0.4393
     33 O5          5.6483   -4.3135    2.0344 O.2       1 <0>        -0.4466
     34 C28         5.3502   -6.2007    0.6899 C.ar      1 <0>        -0.1550
     35 C29         5.2146   -6.5517   -0.6551 C.ar      1 <0>        -0.0878
     36 C30         5.5313   -7.8296   -1.0663 C.ar      1 <0>        -0.1276
     37 C31         5.9821   -8.7632   -0.1496 C.ar      1 <0>        -0.0937
     38 C32         6.1184   -8.4224    1.1847 C.ar      1 <0>        -0.1269
     39 C33         5.8116   -7.1462    1.6086 C.ar      1 <0>        -0.0674
     40 H1          0.2949    1.5207    0.8125 H         1 <0>         0.0536
     41 H2         -1.0936    1.5497   -0.3008 H         1 <0>         0.0564
     42 H3         -1.3334    1.1205    1.4099 H         1 <0>         0.0541
     43 H4          0.0244   -0.9289    1.0860 H         1 <0>         0.0599
     44 H5         -1.3641   -0.8999   -0.0274 H         1 <0>         0.0627
     45 H6          0.0988   -0.0267   -1.8291 H         1 <0>         0.0797
     46 H7          1.4873   -0.0557   -0.7157 H         1 <0>         0.0728
     47 H8          2.5267   -1.0094    0.4848 H         1 <0>         0.1364
     48 H9          4.3403   -2.2515    1.5190 H         1 <0>         0.1341
     49 H10         3.2488   -5.7906   -0.6480 H         1 <0>         0.1437
     50 H11         1.3248   -5.7161   -2.1936 H         1 <0>         0.1343
     51 H12        -0.4886   -4.4625   -3.2223 H         1 <0>         0.1339
     52 H13        -1.2681   -3.0442   -4.5222 H         1 <0>         0.0669
     53 H14        -2.3466   -3.5231   -3.1896 H         1 <0>         0.0661
     54 H15        -3.5917   -1.3925   -3.4317 H         1 <0>         0.0821
     55 H16        -2.5132   -0.9136   -4.7643 H         1 <0>         0.0839
     56 H17        -3.2319   -2.9017   -6.0603 H         1 <0>         0.0860
     57 H18        -4.3104   -3.3806   -4.7277 H         1 <0>         0.0896
     58 H19        -6.5420   -2.1068   -4.4225 H         1 <0>         0.1635
     59 H20        -7.8910   -0.3673   -5.8147 H         1 <0>         0.1448
     60 H21        -2.7314   -1.0169   -7.5583 H         1 <0>         0.1153
     61 H22        -3.0044    0.6293   -9.3551 H         1 <0>         0.1317
     62 H23        -7.0599    1.2986   -8.1920 H         1 <0>         0.1301
     63 H24        -3.2165    2.5707  -10.0896 H         1 <0>         0.0572
     64 H25        -3.7490    1.2793  -11.1927 H         1 <0>         0.0571
     65 H26         4.8622   -5.8244   -1.3715 H         1 <0>         0.1355
     66 H27         5.4269   -8.1024   -2.1061 H         1 <0>         0.1308
     67 H28         6.2283   -9.7625   -0.4770 H         1 <0>         0.1280
     68 H29         6.4700   -9.1560    1.8949 H         1 <0>         0.1299
     69 H30         5.9231   -6.8801    2.6494 H         1 <0>         0.1311
@<TRIPOS>BOND
     1    1    2 1
     2    1   40 1
     3    1   41 1
     4    1   42 1
     5    2    3 1
     6    2   43 1
     7    2   44 1
     8    3    4 1
     9    3   45 1
    10    3   46 1
    11    4   13 ar
    12    4    5 ar
    13    5   10 ar
    14    5    6 ar
    15    6    7 ar
    16    6   47 1
    17    7    8 ar
    18    7   48 1
    19    8    9 ar
    20    8   32 1
    21    9   10 ar
    22    9   49 1
    23   10   11 ar
    24   11   12 ar
    25   11   50 1
    26   12   13 ar
    27   12   51 1
    28   13   14 1
    29   14   15 1
    30   15   16 1
    31   15   52 1
    32   15   53 1
    33   16   17 1
    34   16   54 1
    35   16   55 1
    36   17   18 1
    37   17   56 1
    38   17   57 1
    39   18   22 1
    40   18   19 1
    41   19   20 2
    42   19   58 1
    43   20   21 1
    44   20   59 1
    45   21   26 ar
    46   21   22 ar
    47   22   23 ar
    48   23   24 ar
    49   23   60 1
    50   24   25 ar
    51   24   61 1
    52   25   26 ar
    53   25   27 1
    54   26   62 1
    55   27   28 1
    56   28   29 1
    57   28   63 1
    58   28   64 1
    59   29   30 2
    60   29   31 1
    61   32   33 2
    62   32   34 1
    63   34   39 ar
    64   34   35 ar
    65   35   36 ar
    66   35   65 1
    67   36   37 ar
    68   36   66 1
    69   37   38 ar
    70   37   67 1
    71   38   39 ar
    72   38   68 1
    73   39   69 1
@<TRIPOS>MOLECULE
CHEMBL263029
   69    72     0     0     0
SMALL
USER_CHARGES

@<TRIPOS>ATOM
      1 C1          0.3995    0.3122   -1.1199 C.3       1 <0>        -0.1514
      2 C2          0.4606   -1.2056   -0.9363 C.3       1 <0>        -0.1168
      3 C3          1.3014   -1.8214   -2.0564 C.3       1 <0>        -0.0670
      4 C4          1.3615   -3.3163   -1.8755 C.ar      1 <0>        -0.1293
      5 C5          2.3693   -3.8839   -1.1157 C.ar      1 <0>         0.1949
      6 C6          2.4313   -5.2644   -0.9441 C.ar      1 <0>        -0.2254
      7 C7          1.4981   -6.0760   -1.5237 C.ar      1 <0>        -0.0032
      8 C8          0.4749   -5.5203   -2.2926 C.ar      1 <0>        -0.2232
      9 C9          0.4028   -4.1286   -2.4658 C.ar      1 <0>         0.1279
     10 O1         -0.6743   -3.8760   -3.2373 O.3       1 <0>        -0.0832
     11 N1         -1.3140   -5.0921   -3.5677 N.2       1 <0>        -0.2857
     12 C10        -0.6603   -6.0903   -3.0356 C.2       1 <0>         0.1820
     13 C11        -1.0066   -7.5279   -3.1463 C.ar      1 <0>        -0.0405
     14 C12         0.0019   -8.4889   -3.1926 C.ar      1 <0>        -0.0861
     15 C13        -0.3263   -9.8254   -3.2958 C.ar      1 <0>        -0.1193
     16 C14        -1.6533  -10.2120   -3.3533 C.ar      1 <0>        -0.0994
     17 C15        -2.6584   -9.2626   -3.3078 C.ar      1 <0>        -0.1198
     18 C16        -2.3422   -7.9237   -3.1989 C.ar      1 <0>        -0.0813
     19 O2          3.3045   -3.0891   -0.5338 O.3       1 <0>        -0.2991
     20 C17         4.3179   -3.7375    0.2375 C.3       1 <0>         0.0575
     21 C18         5.2730   -2.6881    0.8096 C.3       1 <0>        -0.1158
     22 C19         6.3580   -3.3823    1.6354 C.3       1 <0>        -0.1152
     23 C20         7.3131   -2.3329    2.2076 C.3       1 <0>         0.0631
     24 O3          8.3265   -2.9813    2.9788 O.3       1 <0>        -0.3207
     25 C21         9.2628   -2.1856    3.5614 C.ar      1 <0>         0.0728
     26 C22         9.2024   -0.8096    3.3978 C.ar      1 <0>        -0.1804
     27 C23        10.1535   -0.0013    3.9896 C.ar      1 <0>        -0.1360
     28 C24        11.1685   -0.5657    4.7478 C.ar      1 <0>         0.1372
     29 C25        11.2284   -1.9416    4.9121 C.ar      1 <0>        -0.1179
     30 C26        10.2748   -2.7496    4.3238 C.ar      1 <0>        -0.1224
     31 O4         12.1053    0.2299    5.3296 O.3       1 <0>        -0.3036
     32 C27        13.1940   -0.4230    5.9857 C.3       1 <0>         0.0297
     33 C28        13.9440   -1.2991    4.9803 C.3       1 <0>        -0.1738
     34 C29        14.1481    0.6271    6.5584 C.3       1 <0>        -0.1147
     35 C30        12.6638   -1.2829    7.1039 C.2       1 <0>         0.4807
     36 O5         11.4647   -1.3321    7.3191 O.co2     1 <0>        -0.6693
     37 O6         13.4339   -1.9295    7.7935 O.co2     1 <0>        -0.6858
     38 H1          1.4084    0.7232   -1.0849 H         1 <0>         0.0561
     39 H2         -0.0538    0.5436   -2.0837 H         1 <0>         0.0536
     40 H3         -0.1995    0.7509   -0.3219 H         1 <0>         0.0545
     41 H4          0.9140   -1.4370    0.0276 H         1 <0>         0.0644
     42 H5         -0.5483   -1.6167   -0.9713 H         1 <0>         0.0588
     43 H6          0.8480   -1.5900   -3.0202 H         1 <0>         0.0726
     44 H7          2.3103   -1.4103   -2.0214 H         1 <0>         0.0825
     45 H8          3.2226   -5.6962   -0.3493 H         1 <0>         0.1437
     46 H9          1.5522   -7.1460   -1.3873 H         1 <0>         0.1376
     47 H10         1.0383   -8.1882   -3.1482 H         1 <0>         0.1304
     48 H11         0.4543  -10.5709   -3.3321 H         1 <0>         0.1322
     49 H12        -1.9055  -11.2589   -3.4344 H         1 <0>         0.1290
     50 H13        -3.6927   -9.5702   -3.3534 H         1 <0>         0.1311
     51 H14        -3.1278   -7.1837   -3.1586 H         1 <0>         0.1302
     52 H15         3.8545   -4.2909    1.0543 H         1 <0>         0.0701
     53 H16         4.8737   -4.4263   -0.3987 H         1 <0>         0.0696
     54 H17         5.7364   -2.1347   -0.0072 H         1 <0>         0.0794
     55 H18         4.7172   -1.9993    1.4458 H         1 <0>         0.0800
     56 H19         5.8947   -3.9357    2.4522 H         1 <0>         0.0774
     57 H20         6.9138   -4.0711    0.9992 H         1 <0>         0.0766
     58 H21         7.7765   -1.7795    1.3907 H         1 <0>         0.0590
     59 H22         6.7573   -1.6441    2.8437 H         1 <0>         0.0599
     60 H23         8.4120   -0.3701    2.8074 H         1 <0>         0.1224
     61 H24        10.1069    1.0700    3.8616 H         1 <0>         0.1229
     62 H25        12.0190   -2.3811    5.5022 H         1 <0>         0.1458
     63 H26        10.3193   -3.8207    4.4549 H         1 <0>         0.1231
     64 H27        14.4957   -0.6649    4.2864 H         1 <0>         0.0510
     65 H28        14.6403   -1.9477    5.5119 H         1 <0>         0.0751
     66 H29        13.2302   -1.9088    4.4262 H         1 <0>         0.0666
     67 H30        13.5950    1.3036    7.2100 H         1 <0>         0.0567
     68 H31        14.9325    0.1318    7.1306 H         1 <0>         0.0781
     69 H32        14.5964    1.1941    5.7425 H         1 <0>         0.0503
@<TRIPOS>BOND
     1    1    2 1
     2    1   38 1
     3    1   39 1
     4    1   40 1
     5    2    3 1
     6    2   41 1
     7    2   42 1
     8    3    4 1
     9    3   43 1
    10    3   44 1
    11    4    9 ar
    12    4    5 ar
    13    5    6 ar
    14    5   19 1
    15    6    7 ar
    16    6   45 1
    17    7    8 ar
    18    7   46 1
    19    8   12 1
    20    8    9 ar
    21    9   10 1
    22   10   11 1
    23   11   12 2
    24   12   13 1
    25   13   18 ar
    26   13   14 ar
    27   14   15 ar
    28   14   47 1
    29   15   16 ar
    30   15   48 1
    31   16   17 ar
    32   16   49 1
    33   17   18 ar
    34   17   50 1
    35   18   51 1
    36   19   20 1
    37   20   21 1
    38   20   52 1
    39   20   53 1
    40   21   22 1
    41   21   54 1
    42   21   55 1
    43   22   23 1
    44   22   56 1
    45   22   57 1
    46   23   24 1
    47   23   58 1
    48   23   59 1
    49   24   25 1
    50   25   30 ar
    51   25   26 ar
    52   26   27 ar
    53   26   60 1
    54   27   28 ar
    55   27   61 1
    56   28   29 ar
    57   28   31 1
    58   29   30 ar
    59   29   62 1
    60   30   63 1
    61   31   32 1
    62   32   33 1
    63   32   34 1
    64   32   35 1
    65   33   64 1
    66   33   65 1
    67   33   66 1
    68   34   67 1
    69   34   68 1
    70   34   69 1
    71   35   36 2
    72   35   37 1
@<TRIPOS>MOLECULE
CHEMBL462982
   50    51     0     0     0
SMALL
USER_CHARGES

@<TRIPOS>ATOM
      1 C1         -0.0187    1.5258    0.0104 C.3       1 <0>        -0.1447
      2 C2          0.0021   -0.0041    0.0020 C.3       1 <0>        -0.0993
      3 C3          0.7182   -0.4975   -1.2568 C.3       1 <0>        -0.1550
      4 C4          0.6303   -2.0233   -1.3286 C.3       1 <0>        -0.0568
      5 C5          1.2271   -2.5002   -2.6276 C.ar      1 <0>        -0.1251
      6 C6          2.5136   -3.0059   -2.6518 C.ar      1 <0>        -0.0130
      7 C7          3.0632   -3.4438   -3.8410 C.ar      1 <0>        -0.1548
      8 C8          2.3237   -3.3764   -5.0133 C.ar      1 <0>         0.1582
      9 C9          1.0333   -2.8692   -4.9888 C.ar      1 <0>        -0.2487
     10 C10         0.4842   -2.4367   -3.7944 C.ar      1 <0>         0.1485
     11 F1         -0.7749   -1.9478   -3.7677 F         1 <0>        -0.1342
     12 O1          2.8635   -3.8065   -6.1839 O.3       1 <0>        -0.3076
     13 C11         2.0449   -3.7074   -7.3510 C.3       1 <0>         0.0255
     14 C12         4.4658   -3.9942   -3.8654 C.3       1 <0>         0.1764
     15 N1          4.4159   -5.4527   -3.9947 N.am      1 <0>        -0.7088
     16 C13         5.5593   -6.1649   -4.0378 C.2       1 <0>         0.5519
     17 O2          6.6319   -5.5972   -3.9695 O.2       1 <0>        -0.5288
     18 C14         5.5089   -7.6367   -4.1682 C.ar      1 <0>        -0.0934
     19 C15         4.2790   -8.2912   -4.2528 C.ar      1 <0>        -0.0880
     20 C16         4.2391   -9.6648   -4.3749 C.ar      1 <0>        -0.0764
     21 C17         5.4146  -10.3935   -4.4131 C.ar      1 <0>        -0.1657
     22 C18         6.6371   -9.7509   -4.3293 C.ar      1 <0>        -0.0770
     23 C19         6.6912   -8.3773   -4.2132 C.ar      1 <0>        -0.0622
     24 C20         5.3632  -11.8937   -4.5461 C.3       1 <0>         0.5081
     25 F2          5.3762  -12.2425   -5.9008 F         1 <0>        -0.1751
     26 F3          6.4743  -12.4567   -3.9089 F         1 <0>        -0.1754
     27 F4          4.1916  -12.3747   -3.9519 F         1 <0>        -0.1755
     28 C21         2.1652   -0.0794   -1.2080 C.2       1 <0>         0.5052
     29 O3          2.8790   -0.4588   -0.2952 O.co2     1 <0>        -0.6992
     30 O4          2.6222    0.6383   -2.0813 O.co2     1 <0>        -0.6994
     31 H1          1.0039    1.9031    0.0027 H         1 <0>         0.0588
     32 H2         -0.5459    1.8868   -0.8726 H         1 <0>         0.0459
     33 H3         -0.5289    1.8773    0.9072 H         1 <0>         0.0425
     34 H4          0.5293   -0.3651    0.8851 H         1 <0>         0.0640
     35 H5         -1.0205   -0.3814    0.0098 H         1 <0>         0.0441
     36 H6          0.2444   -0.0644   -2.1377 H         1 <0>         0.0580
     37 H7          1.1806   -2.4586   -0.4944 H         1 <0>         0.0799
     38 H8         -0.4142   -2.3300   -1.2744 H         1 <0>         0.0600
     39 H9          3.0898   -3.0583   -1.7398 H         1 <0>         0.1455
     40 H10         0.4561   -2.8154   -5.9001 H         1 <0>         0.1379
     41 H11         1.1398   -4.2984   -7.2113 H         1 <0>         0.0546
     42 H12         1.7756   -2.6645   -7.5184 H         1 <0>         0.0570
     43 H13         2.5949   -4.0835   -8.2136 H         1 <0>         0.0988
     44 H14         5.0068   -3.5727   -4.7126 H         1 <0>         0.0836
     45 H15         4.9765   -3.7288   -2.9398 H         1 <0>         0.0846
     46 H16         3.5600   -5.9057   -4.0492 H         1 <0>         0.3993
     47 H17         3.3607   -7.7236   -4.2224 H         1 <0>         0.1396
     48 H18         3.2881  -10.1725   -4.4404 H         1 <0>         0.1424
     49 H19         7.5510  -10.3255   -4.3593 H         1 <0>         0.1432
     50 H20         7.6461   -7.8765   -4.1528 H         1 <0>         0.1504
@<TRIPOS>BOND
     1    1    2 1
     2    1   31 1
     3    1   32 1
     4    1   33 1
     5    2    3 1
     6    2   34 1
     7    2   35 1
     8    3    4 1
     9    3   28 1
    10    3   36 1
    11    4    5 1
    12    4   37 1
    13    4   38 1
    14    5   10 ar
    15    5    6 ar
    16    6    7 ar
    17    6   39 1
    18    7    8 ar
    19    7   14 1
    20    8    9 ar
    21    8   12 1
    22    9   10 ar
    23    9   40 1
    24   10   11 1
    25   12   13 1
    26   13   41 1
    27   13   42 1
    28   13   43 1
    29   14   15 1
    30   14   44 1
    31   14   45 1
    32   15   16 am
    33   15   46 1
    34   16   17 2
    35   16   18 1
    36   18   23 ar
    37   18   19 ar
    38   19   20 ar
    39   19   47 1
    40   20   21 ar
    41   20   48 1
    42   21   22 ar
    43   21   24 1
    44   22   23 ar
    45   22   49 1
    46   23   50 1
    47   24   25 1
    48   24   26 1
    49   24   27 1
    50   28   29 2
    51   28   30 1
@<TRIPOS>MOLECULE
CHEMBL462982__1
   50    51     0     0     0
SMALL
USER_CHARGES

@<TRIPOS>ATOM
      1 C1         -1.7959   -4.5602   -1.7884 C.3       1 <0>        -0.1442
      2 C2         -1.4526   -3.4874   -0.7530 C.3       1 <0>        -0.0998
      3 C3          0.0420   -3.1681   -0.8257 C.3       1 <0>        -0.1546
      4 C4          0.3626   -2.0094    0.1206 C.3       1 <0>        -0.0575
      5 C5          1.8038   -1.6040   -0.0520 C.ar      1 <0>        -0.1249
      6 C6          2.7603   -2.0601    0.8360 C.ar      1 <0>        -0.0123
      7 C7          4.0820   -1.6901    0.6803 C.ar      1 <0>        -0.1563
      8 C8          4.4510   -0.8597   -0.3685 C.ar      1 <0>         0.1586
      9 C9          3.4914   -0.4024   -1.2590 C.ar      1 <0>        -0.2489
     10 C10         2.1692   -0.7798   -1.1030 C.ar      1 <0>         0.1487
     11 F1          1.2340   -0.3400   -1.9732 F         1 <0>        -0.1344
     12 O1          5.7510   -0.4947   -0.5224 O.3       1 <0>        -0.3075
     13 C11         6.0583    0.3619   -1.6241 C.3       1 <0>         0.0255
     14 C12         5.1231   -2.1878    1.6495 C.3       1 <0>         0.1794
     15 N1          5.9208   -3.2385    1.0124 N.am      1 <0>        -0.7067
     16 C13         6.9183   -3.8347    1.6950 C.2       1 <0>         0.5561
     17 O2          7.1561   -3.5007    2.8393 O.2       1 <0>        -0.5372
     18 C14         7.7234   -4.8950    1.0520 C.ar      1 <0>        -0.0954
     19 C15         7.4568   -5.2768   -0.2638 C.ar      1 <0>        -0.0831
     20 C16         8.2121   -6.2665   -0.8580 C.ar      1 <0>        -0.0744
     21 C17         9.2317   -6.8806   -0.1525 C.ar      1 <0>        -0.1656
     22 C18         9.5009   -6.5071    1.1522 C.ar      1 <0>        -0.0796
     23 C19         8.7572   -5.5144    1.7562 C.ar      1 <0>        -0.0630
     24 C20        10.0524   -7.9613   -0.8080 C.3       1 <0>         0.5084
     25 F2         11.1560   -7.3860   -1.4469 F         1 <0>        -0.1762
     26 F3         10.4950   -8.8649    0.1640 F         1 <0>        -0.1762
     27 F4          9.2680   -8.6363   -1.7494 F         1 <0>        -0.1741
     28 C21         0.8356   -4.3830   -0.4192 C.2       1 <0>         0.5061
     29 O3          0.6368   -4.9066    0.6638 O.co2     1 <0>        -0.6986
     30 O4          1.6763   -4.8423   -1.1733 O.co2     1 <0>        -0.7005
     31 H1         -1.5506   -4.1945   -2.7855 H         1 <0>         0.0453
     32 H2         -1.2211   -5.4627   -1.5808 H         1 <0>         0.0584
     33 H3         -2.8607   -4.7876   -1.7365 H         1 <0>         0.0427
     34 H4         -2.0274   -2.5849   -0.9606 H         1 <0>         0.0438
     35 H5         -1.6978   -3.8531    0.2442 H         1 <0>         0.0649
     36 H6          0.3043   -2.8874   -1.8458 H         1 <0>         0.0576
     37 H7         -0.2832   -1.1623   -0.1104 H         1 <0>         0.0607
     38 H8          0.1946   -2.3242    1.1505 H         1 <0>         0.0794
     39 H9          2.4737   -2.7061    1.6527 H         1 <0>         0.1445
     40 H10         3.7763    0.2443   -2.0758 H         1 <0>         0.1379
     41 H11         5.7800   -0.1305   -2.5559 H         1 <0>         0.0565
     42 H12         5.5020    1.2941   -1.5256 H         1 <0>         0.0550
     43 H13         7.1271    0.5756   -1.6311 H         1 <0>         0.0989
     44 H14         5.7738   -1.3627    1.9392 H         1 <0>         0.0810
     45 H15         4.6318   -2.5912    2.5350 H         1 <0>         0.0802
     46 H16         5.7312   -3.5050    0.0992 H         1 <0>         0.4047
     47 H17         6.6608   -4.7988   -0.8153 H         1 <0>         0.1421
     48 H18         8.0069   -6.5629   -1.8761 H         1 <0>         0.1436
     49 H19        10.2979   -6.9906    1.6976 H         1 <0>         0.1421
     50 H20         8.9714   -5.2204    2.7731 H         1 <0>         0.1489
@<TRIPOS>BOND
     1    1    2 1
     2    1   31 1
     3    1   32 1
     4    1   33 1
     5    2    3 1
     6    2   34 1
     7    2   35 1
     8    3    4 1
     9    3   28 1
    10    3   36 1
    11    4    5 1
    12    4   37 1
    13    4   38 1
    14    5   10 ar
    15    5    6 ar
    16    6    7 ar
    17    6   39 1
    18    7    8 ar
    19    7   14 1
    20    8    9 ar
    21    8   12 1
    22    9   10 ar
    23    9   40 1
    24   10   11 1
    25   12   13 1
    26   13   41 1
    27   13   42 1
    28   13   43 1
    29   14   15 1
    30   14   44 1
    31   14   45 1
    32   15   16 am
    33   15   46 1
    34   16   17 2
    35   16   18 1
    36   18   23 ar
    37   18   19 ar
    38   19   20 ar
    39   19   47 1
    40   20   21 ar
    41   20   48 1
    42   21   22 ar
    43   21   24 1
    44   22   23 ar
    45   22   49 1
    46   23   50 1
    47   24   25 1
    48   24   26 1
    49   24   27 1
    50   28   29 2
    51   28   30 1
@<TRIPOS>MOLECULE
CHEMBL213487
   59    62     0     0     0
SMALL
USER_CHARGES

@<TRIPOS>ATOM
      1 C1         -0.0187    1.5258    0.0104 C.3       1 <0>        -0.1427
      2 C2          0.0021   -0.0041    0.0020 C.3       1 <0>         0.0668
      3 O1          0.6932   -0.4774    1.1597 O.3       1 <0>        -0.3661
      4 C3          0.7699   -1.9016    1.2491 C.3       1 <0>         0.0371
      5 C4          0.8077   -2.3190    2.7205 C.3       1 <0>        -0.0629
      6 C5         -0.4946   -1.9476    3.3817 C.ar      1 <0>        -0.0090
      7 C6         -0.6092   -0.7631    4.0537 C.ar      1 <0>        -0.1394
      8 C7         -1.8045   -0.4125    4.6656 C.ar      1 <0>        -0.0939
      9 C8         -2.8964   -1.2510    4.6071 C.ar      1 <0>        -0.1491
     10 C9         -2.8024   -2.4612    3.9281 C.ar      1 <0>         0.0993
     11 C10        -1.5899   -2.8095    3.3049 C.ar      1 <0>        -0.1072
     12 C11        -1.8159   -4.1160    2.6820 C.2       1 <0>        -0.1872
     13 C12        -3.0859   -4.4618    2.9451 C.2       1 <0>         0.0353
     14 N1         -3.6886   -3.4890    3.6954 N.pl3     1 <0>        -0.4886
     15 C13        -5.0746   -3.5285    4.1683 C.3       1 <0>         0.1171
     16 C14        -5.9727   -2.7845    3.1779 C.3       1 <0>        -0.1323
     17 C15        -7.4203   -2.8257    3.6717 C.3       1 <0>        -0.0327
     18 C16        -8.3049   -2.0930    2.6962 C.2       1 <0>        -0.0051
     19 C17        -8.6048   -0.7818    2.7291 C.2       1 <0>        -0.0388
     20 O2         -9.4197   -0.5314    1.6852 O.3       1 <0>        -0.1945
     21 C18        -9.6085   -1.6885    1.0276 C.2       1 <0>         0.2271
     22 N2         -8.9287   -2.6309    1.6373 N.2       1 <0>        -0.4608
     23 C19       -10.4382   -1.8682   -0.1826 C.ar      1 <0>        -0.0163
     24 C20       -10.5582   -3.1288   -0.7694 C.ar      1 <0>        -0.0711
     25 C21       -11.3345   -3.2897   -1.8984 C.ar      1 <0>        -0.1206
     26 C22       -11.9932   -2.2048   -2.4491 C.ar      1 <0>        -0.1017
     27 C23       -11.8785   -0.9524   -1.8724 C.ar      1 <0>        -0.1208
     28 C24       -11.1096   -0.7789   -0.7401 C.ar      1 <0>        -0.0910
     29 C25        -8.1200    0.2205    3.7447 C.3       1 <0>        -0.0701
     30 C26         2.0203   -2.3816    0.5584 C.2       1 <0>         0.4778
     31 O3          2.8214   -1.5750    0.1180 O.co2     1 <0>        -0.6812
     32 O4          2.2309   -3.5767    0.4402 O.co2     1 <0>        -0.7000
     33 H1          1.0039    1.9031    0.0027 H         1 <0>         0.0624
     34 H2         -0.5459    1.8868   -0.8726 H         1 <0>         0.0586
     35 H3         -0.5289    1.8773    0.9072 H         1 <0>         0.0542
     36 H4         -1.0205   -0.3814    0.0098 H         1 <0>         0.0283
     37 H5          0.5123   -0.3556   -0.8948 H         1 <0>         0.0444
     38 H6         -0.1030   -2.3433    0.7684 H         1 <0>         0.0491
     39 H7          0.9554   -3.3968    2.7888 H         1 <0>         0.0873
     40 H8          1.6289   -1.8072    3.2224 H         1 <0>         0.0727
     41 H9          0.2373   -0.0947    4.1093 H         1 <0>         0.1217
     42 H10        -1.8795    0.5268    5.1933 H         1 <0>         0.1183
     43 H11        -3.8220   -0.9695    5.0871 H         1 <0>         0.1094
     44 H12        -1.0971   -4.6915    2.1177 H         1 <0>         0.1486
     45 H13        -3.5593   -5.3766    2.6204 H         1 <0>         0.1630
     46 H14        -5.4020   -4.5651    4.2477 H         1 <0>         0.0880
     47 H15        -5.1386   -3.0512    5.1461 H         1 <0>         0.0833
     48 H16        -5.6453   -1.7479    3.0984 H         1 <0>         0.0708
     49 H17        -5.9087   -3.2618    2.2000 H         1 <0>         0.0737
     50 H18        -7.7476   -3.8624    3.7512 H         1 <0>         0.0850
     51 H19        -7.4843   -2.3485    4.6496 H         1 <0>         0.0829
     52 H20       -10.0443   -3.9764   -0.3407 H         1 <0>         0.1383
     53 H21       -11.4280   -4.2646   -2.3536 H         1 <0>         0.1325
     54 H22       -12.5994   -2.3360   -3.3333 H         1 <0>         0.1284
     55 H23       -12.3949   -0.1095   -2.3074 H         1 <0>         0.1306
     56 H24       -11.0244    0.1983   -0.2883 H         1 <0>         0.1298
     57 H25        -7.1858    0.6639    3.4003 H         1 <0>         0.0882
     58 H26        -8.8690    1.0025    3.8695 H         1 <0>         0.0793
     59 H27        -7.9547   -0.2799    4.6988 H         1 <0>         0.0939
@<TRIPOS>BOND
     1    1    2 1
     2    1   33 1
     3    1   34 1
     4    1   35 1
     5    2    3 1
     6    2   36 1
     7    2   37 1
     8    3    4 1
     9    4    5 1
    10    4   30 1
    11    4   38 1
    12    5    6 1
    13    5   39 1
    14    5   40 1
    15    6   11 ar
    16    6    7 ar
    17    7    8 ar
    18    7   41 1
    19    8    9 ar
    20    8   42 1
    21    9   10 ar
    22    9   43 1
    23   10   14 1
    24   10   11 ar
    25   11   12 1
    26   12   13 2
    27   12   44 1
    28   13   14 1
    29   13   45 1
    30   14   15 1
    31   15   16 1
    32   15   46 1
    33   15   47 1
    34   16   17 1
    35   16   48 1
    36   16   49 1
    37   17   18 1
    38   17   50 1
    39   17   51 1
    40   18   22 1
    41   18   19 2
    42   19   20 1
    43   19   29 1
    44   20   21 1
    45   21   22 2
    46   21   23 1
    47   23   28 ar
    48   23   24 ar
    49   24   25 ar
    50   24   52 1
    51   25   26 ar
    52   25   53 1
    53   26   27 ar
    54   26   54 1
    55   27   28 ar
    56   27   55 1
    57   28   56 1
    58   29   57 1
    59   29   58 1
    60   29   59 1
    61   30   31 2
    62   30   32 1
@<TRIPOS>MOLECULE
CHEMBL213487__1
   59    62     0     0     0
SMALL
USER_CHARGES

@<TRIPOS>ATOM
      1 C1         -0.0187    1.5258    0.0104 C.3       1 <0>        -0.1405
      2 C2          0.0021   -0.0041    0.0020 C.3       1 <0>         0.0681
      3 O1          0.6932   -0.4774    1.1597 O.3       1 <0>        -0.3574
      4 C3          0.7699   -1.9016    1.2491 C.3       1 <0>         0.0363
      5 C4          2.0499   -2.2981    1.9875 C.3       1 <0>        -0.0635
      6 C5          3.2484   -1.8847    1.1728 C.ar      1 <0>        -0.0091
      7 C6          3.8431   -2.7775    0.3262 C.ar      1 <0>        -0.1603
      8 C7          4.9473   -2.4058   -0.4281 C.ar      1 <0>        -0.0954
      9 C8          5.4636   -1.1315   -0.3375 C.ar      1 <0>        -0.1491
     10 C9          4.8739   -0.2064    0.5174 C.ar      1 <0>         0.0980
     11 C10         3.7515   -0.5866    1.2760 C.ar      1 <0>        -0.0907
     12 C11         3.3709    0.5940    2.0552 C.2       1 <0>        -0.1591
     13 C12         4.2352    1.5702    1.7360 C.2       1 <0>         0.0237
     14 N1          5.1453    1.1080    0.8246 N.pl3     1 <0>        -0.4887
     15 C13         6.2370    1.8984    0.2504 C.3       1 <0>         0.1178
     16 C14         5.7842    2.5021   -1.0806 C.3       1 <0>        -0.1317
     17 C15         6.9242    3.3275   -1.6804 C.3       1 <0>        -0.0329
     18 C16         6.4782    3.9221   -2.9913 C.2       1 <0>        -0.0044
     19 C17         6.6018    3.3510   -4.2033 C.2       1 <0>        -0.0393
     20 O2          6.0812    4.2075   -5.1042 O.3       1 <0>        -0.1947
     21 C18         5.6463    5.2895   -4.4355 C.2       1 <0>         0.2269
     22 N2          5.8821    5.1125   -3.1568 N.2       1 <0>        -0.4604
     23 C19         5.0050    6.4770   -5.0387 C.ar      1 <0>        -0.0160
     24 C20         4.6023    7.5420   -4.2316 C.ar      1 <0>        -0.0710
     25 C21         4.0048    8.6475   -4.8009 C.ar      1 <0>        -0.1206
     26 C22         3.8044    8.7018   -6.1688 C.ar      1 <0>        -0.1018
     27 C23         4.2013    7.6494   -6.9746 C.ar      1 <0>        -0.1209
     28 C24         4.8048    6.5404   -6.4185 C.ar      1 <0>        -0.0912
     29 C25         7.2099    2.0041   -4.4985 C.3       1 <0>        -0.0699
     30 C26        -0.4267   -2.4228    2.0025 C.2       1 <0>         0.4778
     31 O3         -0.6021   -3.6243    2.1120 O.co2     1 <0>        -0.7016
     32 O4         -1.2193   -1.6429    2.5025 O.co2     1 <0>        -0.6803
     33 H1          1.0039    1.9031    0.0027 H         1 <0>         0.0536
     34 H2         -0.5459    1.8868   -0.8726 H         1 <0>         0.0563
     35 H3         -0.5289    1.8773    0.9072 H         1 <0>         0.0617
     36 H4         -1.0205   -0.3814    0.0098 H         1 <0>         0.0429
     37 H5          0.5123   -0.3556   -0.8948 H         1 <0>         0.0262
     38 H6          0.7819   -2.3284    0.2462 H         1 <0>         0.0463
     39 H7          2.0796   -1.7996    2.9564 H         1 <0>         0.0741
     40 H8          2.0651   -3.3781    2.1339 H         1 <0>         0.0857
     41 H9          3.4510   -3.7804    0.2437 H         1 <0>         0.1195
     42 H10         5.4067   -3.1227   -1.0925 H         1 <0>         0.1177
     43 H11         6.3236   -0.8521   -0.9280 H         1 <0>         0.1088
     44 H12         2.5503    0.6656    2.7537 H         1 <0>         0.1482
     45 H13         4.2200    2.5698    2.1448 H         1 <0>         0.1603
     46 H14         6.5073    2.6988    0.9391 H         1 <0>         0.0871
     47 H15         7.1014    1.2560    0.0826 H         1 <0>         0.0819
     48 H16         5.5138    1.7017   -1.7693 H         1 <0>         0.0702
     49 H17         4.9197    3.1445   -0.9128 H         1 <0>         0.0739
     50 H18         7.1946    4.1280   -0.9916 H         1 <0>         0.0848
     51 H19         7.7887    2.6851   -1.8482 H         1 <0>         0.0825
     52 H20         4.7578    7.5007   -3.1636 H         1 <0>         0.1384
     53 H21         3.6924    9.4722   -4.1775 H         1 <0>         0.1325
     54 H22         3.3359    9.5694   -6.6095 H         1 <0>         0.1283
     55 H23         4.0417    7.6979   -8.0416 H         1 <0>         0.1305
     56 H24         5.1181    5.7215   -7.0491 H         1 <0>         0.1297
     57 H25         6.4352    1.2385   -4.4558 H         1 <0>         0.0879
     58 H26         7.6543    2.0163   -5.4937 H         1 <0>         0.0791
     59 H27         7.9800    1.7833   -3.7594 H         1 <0>         0.0938
@<TRIPOS>BOND
     1    1    2 1
     2    1   33 1
     3    1   34 1
     4    1   35 1
     5    2    3 1
     6    2   36 1
     7    2   37 1
     8    3    4 1
     9    4    5 1
    10    4   30 1
    11    4   38 1
    12    5    6 1
    13    5   39 1
    14    5   40 1
    15    6   11 ar
    16    6    7 ar
    17    7    8 ar
    18    7   41 1
    19    8    9 ar
    20    8   42 1
    21    9   10 ar
    22    9   43 1
    23   10   14 1
    24   10   11 ar
    25   11   12 1
    26   12   13 2
    27   12   44 1
    28   13   14 1
    29   13   45 1
    30   14   15 1
    31   15   16 1
    32   15   46 1
    33   15   47 1
    34   16   17 1
    35   16   48 1
    36   16   49 1
    37   17   18 1
    38   17   50 1
    39   17   51 1
    40   18   22 1
    41   18   19 2
    42   19   20 1
    43   19   29 1
    44   20   21 1
    45   21   22 2
    46   21   23 1
    47   23   28 ar
    48   23   24 ar
    49   24   25 ar
    50   24   52 1
    51   25   26 ar
    52   25   53 1
    53   26   27 ar
    54   26   54 1
    55   27   28 ar
    56   27   55 1
    57   28   56 1
    58   29   57 1
    59   29   58 1
    60   29   59 1
    61   30   31 2
    62   30   32 1
@<TRIPOS>MOLECULE
CHEMBL179657
   63    66     0     0     0
SMALL
USER_CHARGES

@<TRIPOS>ATOM
      1 C1         -0.0187    1.5258    0.0104 C.3       1 <0>        -0.1452
      2 C2          0.0021   -0.0041    0.0020 C.3       1 <0>        -0.0887
      3 C3          0.7421   -0.5109    1.2415 C.3       1 <0>         0.0409
      4 C4          0.8516   -2.0401    1.1886 C.3       1 <0>        -0.1306
      5 C5          1.6907   -2.5035    2.3819 C.3       1 <0>        -0.0704
      6 C6          1.1902   -1.8429    3.6416 C.ar      1 <0>        -0.1837
      7 C7          1.5431   -2.3894    4.8649 C.ar      1 <0>        -0.0496
      8 C8          1.1081   -1.8106    6.0397 C.ar      1 <0>        -0.2544
      9 C9          0.3122   -0.6742    5.9985 C.ar      1 <0>         0.1518
     10 C10        -0.0441   -0.1266    4.7778 C.ar      1 <0>        -0.1885
     11 C11         0.3935   -0.7119    3.5948 C.ar      1 <0>         0.2199
     12 O1          0.0142   -0.1517    2.4166 O.3       1 <0>        -0.2953
     13 O2         -0.1165   -0.1007    7.1535 O.3       1 <0>        -0.3127
     14 C12         0.2898   -0.7204    8.3754 C.3       1 <0>         0.0677
     15 C13        -0.2850    0.0604    9.5590 C.3       1 <0>        -0.1198
     16 C14         0.1500   -0.6030   10.8672 C.3       1 <0>         0.0636
     17 O3         -0.3868    0.1262   11.9726 O.3       1 <0>        -0.2991
     18 C15        -0.0925   -0.3344   13.2171 C.ar      1 <0>         0.1417
     19 C16         0.7012   -1.4615   13.3711 C.ar      1 <0>        -0.1956
     20 C17         0.9994   -1.9275   14.6370 C.ar      1 <0>        -0.0697
     21 C18         0.5071   -1.2721   15.7506 C.ar      1 <0>        -0.1063
     22 C19        -0.2847   -0.1488   15.6008 C.ar      1 <0>        -0.0665
     23 C20        -0.5811    0.3255   14.3364 C.ar      1 <0>        -0.0670
     24 Cl1        -1.5694    1.7403   14.1485 Cl        1 <0>        -0.0540
     25 C21         0.8338   -1.7835   17.1300 C.3       1 <0>        -0.0430
     26 C22        -0.4625   -2.1331   17.8673 C.3       1 <0>        -0.1499
     27 C23        -0.1257   -2.5765   19.2933 C.3       1 <0>         0.0600
     28 O4          0.5928   -1.5350   19.9575 O.3       1 <0>        -0.3830
     29 C24         1.8365   -1.1982   19.3395 C.3       1 <0>         0.0600
     30 C25         1.5785   -0.6994   17.9153 C.3       1 <0>        -0.1501
     31 C26         2.1205    0.0959    1.2931 C.2       1 <0>         0.4950
     32 O5          2.4488    0.7832    2.2451 O.co2     1 <0>        -0.6729
     33 O6          2.9075   -0.1004    0.3828 O.co2     1 <0>        -0.6895
     34 H1          1.0039    1.9031    0.0027 H         1 <0>         0.0610
     35 H2         -0.5459    1.8868   -0.8726 H         1 <0>         0.0452
     36 H3         -0.5289    1.8773    0.9072 H         1 <0>         0.0557
     37 H4         -1.0205   -0.3814    0.0098 H         1 <0>         0.0562
     38 H5          0.5123   -0.3556   -0.8948 H         1 <0>         0.0808
     39 H6         -0.1432   -2.4819    1.2453 H         1 <0>         0.0606
     40 H7          1.3357   -2.3418    0.2597 H         1 <0>         0.0828
     41 H8          1.6103   -3.5858    2.4834 H         1 <0>         0.0685
     42 H9          2.7336   -2.2316    2.2194 H         1 <0>         0.0792
     43 H10         2.1626   -3.2734    4.8992 H         1 <0>         0.1194
     44 H11         1.3862   -2.2416    6.9901 H         1 <0>         0.1195
     45 H12        -0.6635    0.7575    4.7444 H         1 <0>         0.1312
     46 H13        -0.0791   -1.7457    8.4030 H         1 <0>         0.0630
     47 H14         1.3780   -0.7240    8.4366 H         1 <0>         0.0644
     48 H15         0.0839    1.0857    9.5314 H         1 <0>         0.0881
     49 H16        -1.3733    0.0641    9.4978 H         1 <0>         0.0870
     50 H17        -0.2189   -1.6284   10.8948 H         1 <0>         0.0684
     51 H18         1.2383   -0.6067   10.9284 H         1 <0>         0.0691
     52 H19         1.0856   -1.9745   12.5020 H         1 <0>         0.1386
     53 H20         1.6174   -2.8051   14.7570 H         1 <0>         0.1306
     54 H21        -0.6686    0.3610   16.4721 H         1 <0>         0.1379
     55 H22         1.4606   -2.6717   17.0506 H         1 <0>         0.0816
     56 H23        -1.1097   -1.2567   17.9016 H         1 <0>         0.0752
     57 H24        -0.9717   -2.9429   17.3447 H         1 <0>         0.0766
     58 H25        -1.0474   -2.7857   19.8362 H         1 <0>         0.0951
     59 H26         0.4882   -3.4766   19.2587 H         1 <0>         0.0508
     60 H27         2.3282   -0.4145   19.9157 H         1 <0>         0.0953
     61 H28         2.4760   -2.0802   19.3054 H         1 <0>         0.0509
     62 H29         2.5289   -0.4838   17.4271 H         1 <0>         0.0769
     63 H30         0.9725    0.2059   17.9506 H         1 <0>         0.0752
@<TRIPOS>BOND
     1    1    2 1
     2    1   34 1
     3    1   35 1
     4    1   36 1
     5    2    3 1
     6    2   37 1
     7    2   38 1
     8    3   12 1
     9    3    4 1
    10    3   31 1
    11    4    5 1
    12    4   39 1
    13    4   40 1
    14    5    6 1
    15    5   41 1
    16    5   42 1
    17    6   11 ar
    18    6    7 ar
    19    7    8 ar
    20    7   43 1
    21    8    9 ar
    22    8   44 1
    23    9   10 ar
    24    9   13 1
    25   10   11 ar
    26   10   45 1
    27   11   12 1
    28   13   14 1
    29   14   15 1
    30   14   46 1
    31   14   47 1
    32   15   16 1
    33   15   48 1
    34   15   49 1
    35   16   17 1
    36   16   50 1
    37   16   51 1
    38   17   18 1
    39   18   23 ar
    40   18   19 ar
    41   19   20 ar
    42   19   52 1
    43   20   21 ar
    44   20   53 1
    45   21   22 ar
    46   21   25 1
    47   22   23 ar
    48   22   54 1
    49   23   24 1
    50   25   30 1
    51   25   26 1
    52   25   55 1
    53   26   27 1
    54   26   56 1
    55   26   57 1
    56   27   28 1
    57   27   58 1
    58   27   59 1
    59   28   29 1
    60   29   30 1
    61   29   60 1
    62   29   61 1
    63   30   62 1
    64   30   63 1
    65   31   32 2
    66   31   33 1
@<TRIPOS>MOLECULE
CHEMBL1089633
   74    78     0     0     0
SMALL
USER_CHARGES

@<TRIPOS>ATOM
      1 C1         -1.7225    2.9360    0.9951 C.3       1 <0>        -0.0722
      2 C2         -1.7108    1.4526    1.2605 C.2       1 <0>        -0.0317
      3 C3         -2.7629    0.6184    1.1734 C.2       1 <0>        -0.0113
      4 N1         -2.3368   -0.6145    1.4870 N.2       1 <0>        -0.4611
      5 C4         -1.0552   -0.5579    1.7631 C.2       1 <0>         0.2360
      6 O1         -0.6435    0.7141    1.6235 O.3       1 <0>        -0.1917
      7 C5         -0.2054   -1.7021    2.1556 C.ar      1 <0>        -0.0218
      8 C6         -0.7543   -2.9816    2.2536 C.ar      1 <0>        -0.0698
      9 C7          0.0444   -4.0452    2.6200 C.ar      1 <0>        -0.1205
     10 C8          1.3866   -3.8456    2.8898 C.ar      1 <0>        -0.0983
     11 C9          1.9368   -2.5797    2.7949 C.ar      1 <0>        -0.1205
     12 C10         1.1504   -1.5085    2.4240 C.ar      1 <0>        -0.0893
     13 C11        -4.1697    1.0009    0.7920 C.3       1 <0>        -0.0318
     14 C12        -4.3364    0.8850   -0.7245 C.3       1 <0>         0.0653
     15 O2         -5.6704    1.2478   -1.0861 O.3       1 <0>        -0.3124
     16 C13        -5.9867    1.1984   -2.4069 C.ar      1 <0>         0.1405
     17 C14        -5.0343    0.8033   -3.3351 C.ar      1 <0>        -0.1957
     18 C15        -5.3584    0.7535   -4.6771 C.ar      1 <0>        -0.0346
     19 C16        -6.6305    1.0975   -5.0955 C.ar      1 <0>        -0.1504
     20 C17        -7.5814    1.4920   -4.1724 C.ar      1 <0>        -0.1027
     21 C18        -7.2641    1.5375   -2.8287 C.ar      1 <0>        -0.1513
     22 C19        -6.9812    1.0427   -6.5601 C.3       1 <0>        -0.0778
     23 C20        -7.3866   -0.3843   -6.9344 C.3       1 <0>        -0.0532
     24 H1         -7.6638   -0.4188   -7.9880 H         1 <0>         0.1316
     25 C21        -6.2282   -1.3164   -6.6890 C.2       1 <0>         0.4998
     26 O3         -6.2784   -2.1243   -5.7772 O.co2     1 <0>        -0.6642
     27 O4         -5.2408   -1.2627   -7.4022 O.co2     1 <0>        -0.6379
     28 N2         -8.5317   -0.7994   -6.1131 N.4       1 <0>        -0.3556
     29 C22        -8.9644   -2.1415   -6.5225 C.3       1 <0>        -0.0168
     30 C23       -10.0832   -2.6223   -5.5924 C.3       1 <0>         0.0962
     31 N3        -11.1538   -1.6133   -5.5904 N.pl3     1 <0>        -1.0091
     32 C24       -10.7835   -0.2101   -5.3496 C.3       1 <0>         0.0950
     33 C25        -9.6317    0.1567   -6.2912 C.3       1 <0>        -0.0333
     34 S1        -12.7309   -2.0449   -5.8524 S.o2      1 <0>         2.6953
     35 O5        -13.3939   -0.8856   -6.3378 O.2       1 <0>        -0.9411
     36 O6        -12.7026   -3.2663   -6.5780 O.2       1 <0>        -0.9317
     37 C26       -13.4393   -2.4091   -4.2807 C.ar      1 <0>        -0.7203
     38 C27       -14.4636   -1.6242   -3.7853 C.ar      1 <0>         0.0042
     39 C28       -15.0195   -1.9097   -2.5525 C.ar      1 <0>        -0.1463
     40 C29       -14.5518   -2.9805   -1.8133 C.ar      1 <0>        -0.0306
     41 C30       -13.5283   -3.7668   -2.3066 C.ar      1 <0>        -0.1688
     42 C31       -12.9741   -3.4849   -3.5440 C.ar      1 <0>         0.1950
     43 F1        -11.9765   -4.2559   -4.0294 F         1 <0>        -0.1213
     44 H2         -0.7205    3.3393    1.1420 H         1 <0>         0.0821
     45 H3         -2.0409    3.1190   -0.0312 H         1 <0>         0.0905
     46 H4         -2.4144    3.4227    1.6825 H         1 <0>         0.0930
     47 H5         -1.8020   -3.1386    2.0436 H         1 <0>         0.1383
     48 H6         -0.3792   -5.0357    2.6966 H         1 <0>         0.1334
     49 H7          2.0075   -4.6816    3.1762 H         1 <0>         0.1298
     50 H8          2.9851   -2.4305    3.0075 H         1 <0>         0.1318
     51 H9          1.5822   -0.5217    2.3456 H         1 <0>         0.1302
     52 H10        -4.8747    0.3332    1.2871 H         1 <0>         0.0950
     53 H11        -4.3635    2.0280    1.1014 H         1 <0>         0.0930
     54 H12        -3.6314    1.5528   -1.2196 H         1 <0>         0.0644
     55 H13        -4.1426   -0.1420   -1.0338 H         1 <0>         0.0704
     56 H14        -4.0402    0.5353   -3.0089 H         1 <0>         0.1297
     57 H15        -4.6173    0.4460   -5.4000 H         1 <0>         0.1351
     58 H16        -8.5743    1.7605   -4.5018 H         1 <0>         0.1246
     59 H17        -8.0084    1.8415   -2.1076 H         1 <0>         0.1331
     60 H18        -7.8109    1.7206   -6.7606 H         1 <0>         0.0838
     61 H19        -6.1163    1.3418   -7.1522 H         1 <0>         0.1156
     62 H20        -9.3335   -2.1075   -7.5476 H         1 <0>         0.1219
     63 H21        -8.1211   -2.8294   -6.4625 H         1 <0>         0.1653
     64 H22       -10.4763   -3.5728   -5.9531 H         1 <0>         0.1352
     65 H23        -9.6926   -2.7439   -4.5821 H         1 <0>         0.0986
     66 H24       -11.6396    0.4341   -5.5498 H         1 <0>         0.1346
     67 H25       -10.4636   -0.0881   -4.3148 H         1 <0>         0.0966
     68 H26        -9.2801    1.1624   -6.0607 H         1 <0>         0.1407
     69 H27        -9.9806    0.1213   -7.3232 H         1 <0>         0.1320
     70 H28       -14.8294   -0.7873   -4.3617 H         1 <0>         0.1546
     71 H29       -15.8195   -1.2957   -2.1661 H         1 <0>         0.1443
     72 H30       -14.9864   -3.2022   -0.8498 H         1 <0>         0.1458
     73 H31       -13.1629   -4.6030   -1.7289 H         1 <0>         0.1493
     74 H32        -8.2582   -0.8186   -5.1421 H         1 <0>         0.4234
@<TRIPOS>BOND
     1    1    2 1
     2    1   44 1
     3    1   45 1
     4    1   46 1
     5    2    6 1
     6    2    3 2
     7    3    4 1
     8    3   13 1
     9    4    5 2
    10    5    6 1
    11    5    7 1
    12    7   12 ar
    13    7    8 ar
    14    8    9 ar
    15    8   47 1
    16    9   10 ar
    17    9   48 1
    18   10   11 ar
    19   10   49 1
    20   11   12 ar
    21   11   50 1
    22   12   51 1
    23   13   14 1
    24   13   52 1
    25   13   53 1
    26   14   15 1
    27   14   54 1
    28   14   55 1
    29   15   16 1
    30   16   21 ar
    31   16   17 ar
    32   17   18 ar
    33   17   56 1
    34   18   19 ar
    35   18   57 1
    36   19   20 ar
    37   19   22 1
    38   20   21 ar
    39   20   58 1
    40   21   59 1
    41   22   23 1
    42   22   60 1
    43   22   61 1
    44   23   24 1
    45   23   25 1
    46   23   28 1
    47   25   26 2
    48   25   27 1
    49   28   33 1
    50   28   29 1
    51   28   74 1
    52   29   30 1
    53   29   62 1
    54   29   63 1
    55   30   31 1
    56   30   64 1
    57   30   65 1
    58   31   32 1
    59   31   34 1
    60   32   33 1
    61   32   66 1
    62   32   67 1
    63   33   68 1
    64   33   69 1
    65   34   35 2
    66   34   36 2
    67   34   37 1
    68   37   42 ar
    69   37   38 ar
    70   38   39 ar
    71   38   70 1
    72   39   40 ar
    73   39   71 1
    74   40   41 ar
    75   40   72 1
    76   41   42 ar
    77   41   73 1
    78   42   43 1
@<TRIPOS>MOLECULE
CHEMBL1089633__1
   73    77     0     0     0
SMALL
USER_CHARGES

@<TRIPOS>ATOM
      1 C1         -2.8351    3.0982    1.6753 C.3       1 <0>        -0.0717
      2 C2         -2.0431    1.8385    1.4362 C.2       1 <0>        -0.0327
      3 C3         -2.5390    0.6406    1.0764 C.2       1 <0>        -0.0058
      4 N1         -1.5105   -0.2137    0.9663 N.2       1 <0>        -0.4583
      5 C4         -0.4007    0.4272    1.2483 C.2       1 <0>         0.2285
      6 O1         -0.7059    1.7040    1.5373 O.3       1 <0>        -0.1934
      7 C5          0.9578   -0.1556    1.2429 C.ar      1 <0>        -0.0168
      8 C6          1.1429   -1.4988    0.9120 C.ar      1 <0>        -0.0705
      9 C7          2.4135   -2.0364    0.9083 C.ar      1 <0>        -0.1205
     10 C8          3.5028   -1.2471    1.2317 C.ar      1 <0>        -0.1013
     11 C9          3.3262    0.0850    1.5611 C.ar      1 <0>        -0.1212
     12 C10         2.0615    0.6364    1.5630 C.ar      1 <0>        -0.0907
     13 C11        -3.9915    0.3162    0.8397 C.3       1 <0>        -0.0342
     14 C12        -4.3362    0.5631   -0.6303 C.3       1 <0>         0.0702
     15 O2         -5.7136    0.2554   -0.8548 O.3       1 <0>        -0.3187
     16 C13        -6.1850    0.4220   -2.1185 C.ar      1 <0>         0.1106
     17 C14        -5.3378    0.8669   -3.1231 C.ar      1 <0>        -0.2065
     18 C15        -5.8193    1.0349   -4.4069 C.ar      1 <0>        -0.0579
     19 C16        -7.1444    0.7607   -4.6910 C.ar      1 <0>        -0.0820
     20 C17        -7.9908    0.3177   -3.6915 C.ar      1 <0>        -0.0824
     21 C18        -7.5127    0.1421   -2.4074 C.ar      1 <0>        -0.1507
     22 C19        -7.6671    0.9454   -6.0923 C.3       1 <0>        -0.0588
     23 C20        -7.4951   -0.3570   -6.8767 C.3       1 <0>         0.0217
     24 H1         -7.9767   -1.1724   -6.3371 H         1 <0>         0.0758
     25 C21        -8.1278   -0.2117   -8.2367 C.2       1 <0>         0.4722
     26 O3         -7.4408   -0.2936   -9.2405 O.co2     1 <0>        -0.6836
     27 O4         -9.3267   -0.0123   -8.3331 O.co2     1 <0>        -0.6967
     28 N2         -6.0639   -0.6501   -7.0312 N.3       1 <0>        -0.5067
     29 C22        -5.3748    0.4440   -7.7284 C.3       1 <0>         0.0214
     30 C23        -3.8644    0.1861   -7.7094 C.3       1 <0>         0.1274
     31 N3         -3.6126   -1.1559   -8.2561 N.pl3     1 <0>        -0.9837
     32 C24        -4.3698   -2.2873   -7.6995 C.3       1 <0>         0.1290
     33 C25        -5.8604   -1.9321   -7.7189 C.3       1 <0>         0.0343
     34 S1         -2.5055   -1.3870   -9.4657 S.o2      1 <0>         2.6881
     35 O5         -2.8780   -2.5845  -10.1339 O.2       1 <0>        -0.9514
     36 O6         -2.3790   -0.1444  -10.1433 O.2       1 <0>        -0.9456
     37 C26        -0.9517   -1.7018   -8.6968 C.ar      1 <0>        -0.7144
     38 C27        -0.3408   -2.9320   -8.8508 C.ar      1 <0>         0.0041
     39 C28         0.8781   -3.1793   -8.2477 C.ar      1 <0>        -0.1519
     40 C29         1.4877   -2.1965   -7.4897 C.ar      1 <0>        -0.0413
     41 C30         0.8790   -0.9657   -7.3348 C.ar      1 <0>        -0.1746
     42 C31        -0.3397   -0.7151   -7.9428 C.ar      1 <0>         0.1976
     43 F1         -0.9335    0.4894   -7.7959 F         1 <0>        -0.1193
     44 H2         -2.1575    3.9068    1.9492 H         1 <0>         0.0803
     45 H3         -3.3731    3.3671    0.7663 H         1 <0>         0.0925
     46 H4         -3.5474    2.9316    2.4834 H         1 <0>         0.0929
     47 H5          0.2934   -2.1161    0.6597 H         1 <0>         0.1390
     48 H6          2.5580   -3.0757    0.6528 H         1 <0>         0.1326
     49 H7          4.4953   -1.6728    1.2274 H         1 <0>         0.1283
     50 H8          4.1806    0.6955    1.8133 H         1 <0>         0.1305
     51 H9          1.9255    1.6776    1.8156 H         1 <0>         0.1299
     52 H10        -4.1748   -0.7299    1.0852 H         1 <0>         0.0939
     53 H11        -4.6132    0.9517    1.4704 H         1 <0>         0.0919
     54 H12        -4.1529    1.6092   -0.8758 H         1 <0>         0.0589
     55 H13        -3.7145   -0.0724   -1.2610 H         1 <0>         0.0639
     56 H14        -4.3029    1.0819   -2.9015 H         1 <0>         0.1171
     57 H15        -5.1603    1.3812   -5.1893 H         1 <0>         0.1219
     58 H16        -9.0255    0.1044   -3.9158 H         1 <0>         0.1263
     59 H17        -8.1731   -0.2082   -1.6279 H         1 <0>         0.1231
     60 H18        -8.7240    1.2095   -6.0540 H         1 <0>         0.0779
     61 H19        -7.1110    1.7426   -6.5854 H         1 <0>         0.0669
     62 H20        -5.7223    0.4936   -8.7603 H         1 <0>         0.0906
     63 H21        -5.5891    1.3874   -7.2262 H         1 <0>         0.0728
     64 H22        -3.3578    0.9319   -8.3220 H         1 <0>         0.0887
     65 H23        -3.4968    0.2389   -6.6846 H         1 <0>         0.0638
     66 H24        -4.1975   -3.1768   -8.3056 H         1 <0>         0.0878
     67 H25        -4.0508   -2.4723   -6.6738 H         1 <0>         0.0667
     68 H26        -6.4268   -2.7119   -7.2099 H         1 <0>         0.0691
     69 H27        -6.2011   -1.8493   -8.7510 H         1 <0>         0.0799
     70 H28        -0.8161   -3.7005   -9.4422 H         1 <0>         0.1527
     71 H29         1.3546   -4.1409   -8.3683 H         1 <0>         0.1393
     72 H30         2.4397   -2.3910   -7.0184 H         1 <0>         0.1397
     73 H31         1.3551   -0.1984   -6.7425 H         1 <0>         0.1436
@<TRIPOS>BOND
     1    1    2 1
     2    1   44 1
     3    1   45 1
     4    1   46 1
     5    2    6 1
     6    2    3 2
     7    3    4 1
     8    3   13 1
     9    4    5 2
    10    5    6 1
    11    5    7 1
    12    7   12 ar
    13    7    8 ar
    14    8    9 ar
    15    8   47 1
    16    9   10 ar
    17    9   48 1
    18   10   11 ar
    19   10   49 1
    20   11   12 ar
    21   11   50 1
    22   12   51 1
    23   13   14 1
    24   13   52 1
    25   13   53 1
    26   14   15 1
    27   14   54 1
    28   14   55 1
    29   15   16 1
    30   16   21 ar
    31   16   17 ar
    32   17   18 ar
    33   17   56 1
    34   18   19 ar
    35   18   57 1
    36   19   20 ar
    37   19   22 1
    38   20   21 ar
    39   20   58 1
    40   21   59 1
    41   22   23 1
    42   22   60 1
    43   22   61 1
    44   23   24 1
    45   23   25 1
    46   23   28 1
    47   25   26 2
    48   25   27 1
    49   28   33 1
    50   28   29 1
    51   29   30 1
    52   29   62 1
    53   29   63 1
    54   30   31 1
    55   30   64 1
    56   30   65 1
    57   31   32 1
    58   31   34 1
    59   32   33 1
    60   32   66 1
    61   32   67 1
    62   33   68 1
    63   33   69 1
    64   34   35 2
    65   34   36 2
    66   34   37 1
    67   37   42 ar
    68   37   38 ar
    69   38   39 ar
    70   38   70 1
    71   39   40 ar
    72   39   71 1
    73   40   41 ar
    74   40   72 1
    75   41   42 ar
    76   41   73 1
    77   42   43 1
@<TRIPOS>MOLECULE
CHEMBL429823
   68    72     0     0     0
SMALL
USER_CHARGES

@<TRIPOS>ATOM
      1 C1          0.2197   -1.8159   -0.3359 C.3       1 <0>        -0.0721
      2 C2         -0.0966   -3.1765   -0.9014 C.2       1 <0>        -0.0322
      3 C3         -1.3234   -3.6884   -1.1095 C.2       1 <0>        -0.0113
      4 N1         -1.1737   -4.9188   -1.6226 N.2       1 <0>        -0.4613
      5 C4          0.1086   -5.1738   -1.7342 C.2       1 <0>         0.2373
      6 O1          0.7967   -4.1045   -1.2980 O.3       1 <0>        -0.1917
      7 C5          0.6978   -6.4245   -2.2576 C.ar      1 <0>        -0.0231
      8 C6         -0.1299   -7.4609   -2.6921 C.ar      1 <0>        -0.0697
      9 C7          0.4263   -8.6253   -3.1800 C.ar      1 <0>        -0.1203
     10 C8          1.8013   -8.7670   -3.2389 C.ar      1 <0>        -0.0977
     11 C9          2.6274   -7.7437   -2.8093 C.ar      1 <0>        -0.1206
     12 C10         2.0840   -6.5718   -2.3247 C.ar      1 <0>        -0.0893
     13 C11        -2.6327   -3.0018   -0.8176 C.3       1 <0>        -0.0339
     14 C12        -3.0816   -2.2143   -2.0502 C.3       1 <0>         0.0657
     15 O2         -4.3232   -1.5632   -1.7733 O.3       1 <0>        -0.3074
     16 C13        -4.8641   -0.8162   -2.7714 C.ar      1 <0>         0.1400
     17 C14        -4.2160   -0.7165   -3.9943 C.ar      1 <0>        -0.1844
     18 C15        -4.7681    0.0430   -5.0073 C.ar      1 <0>        -0.0727
     19 C16        -5.9656    0.7038   -4.8035 C.ar      1 <0>        -0.1325
     20 C17        -6.6131    0.6065   -3.5860 C.ar      1 <0>        -0.1041
     21 C18        -6.0679   -0.1566   -2.5714 C.ar      1 <0>        -0.1297
     22 C19        -7.9177    1.3284   -3.3672 C.3       1 <0>         0.0351
     23 N2         -9.0325    0.4525   -3.7522 N.4       1 <0>        -0.3574
     24 C20       -10.2958    1.1955   -3.6529 C.3       1 <0>         0.0367
     25 C21       -10.2735    2.3553   -4.6150 C.ar      1 <0>        -0.1307
     26 C22       -10.0335    3.6160   -4.1613 C.ar      1 <0>        -0.0827
     27 C23       -10.0090    4.7006   -5.0357 C.ar      1 <0>        -0.1290
     28 C24       -10.2248    4.5309   -6.3690 C.ar      1 <0>        -0.0759
     29 C25       -10.4758    3.2442   -6.8743 C.ar      1 <0>        -0.0552
     30 C26       -10.4946    2.1401   -5.9857 C.ar      1 <0>        -0.0373
     31 C27       -10.7399    0.8522   -6.4922 C.ar      1 <0>        -0.1372
     32 C28       -10.9498    0.6819   -7.8260 C.ar      1 <0>        -0.0964
     33 C29       -10.9249    1.7668   -8.7007 C.ar      1 <0>        -0.1094
     34 C30       -10.7037    3.0299   -8.2445 C.ar      1 <0>        -0.1078
     35 C31        -9.0755   -0.7089   -2.8538 C.3       1 <0>        -0.0931
     36 C32       -10.1156   -1.6838   -3.3425 C.2       1 <0>         0.4915
     37 O3        -10.6827   -1.4889   -4.4041 O.co2     1 <0>        -0.6732
     38 O4        -10.3899   -2.6674   -2.6764 O.co2     1 <0>        -0.6360
     39 H1          1.3007   -1.6835   -0.2909 H         1 <0>         0.0823
     40 H2         -0.2141   -1.0470   -0.9752 H         1 <0>         0.0895
     41 H3         -0.1986   -1.7331    0.6672 H         1 <0>         0.0936
     42 H4         -1.2034   -7.3516   -2.6463 H         1 <0>         0.1387
     43 H5         -0.2130   -9.4282   -3.5162 H         1 <0>         0.1340
     44 H6          2.2317   -9.6806   -3.6217 H         1 <0>         0.1301
     45 H7          3.7000   -7.8609   -2.8574 H         1 <0>         0.1320
     46 H8          2.7299   -5.7718   -1.9942 H         1 <0>         0.1301
     47 H9         -3.3870   -3.7483   -0.5689 H         1 <0>         0.0980
     48 H10        -2.5058   -2.3196    0.0230 H         1 <0>         0.0945
     49 H11        -2.3274   -1.4677   -2.2989 H         1 <0>         0.0653
     50 H12        -3.2086   -2.8965   -2.8907 H         1 <0>         0.0708
     51 H13        -3.2805   -1.2321   -4.1537 H         1 <0>         0.1347
     52 H14        -4.2638    0.1212   -5.9591 H         1 <0>         0.1350
     53 H15        -6.3957    1.2972   -5.5969 H         1 <0>         0.1309
     54 H16        -6.5763   -0.2360   -1.6218 H         1 <0>         0.1410
     55 H17        -8.0128    1.5962   -2.3149 H         1 <0>         0.1310
     56 H18        -7.9392    2.2325   -3.9756 H         1 <0>         0.1323
     57 H19       -11.1265    0.5345   -3.9000 H         1 <0>         0.1592
     58 H20       -10.4187    1.5691   -2.6363 H         1 <0>         0.1253
     59 H21        -9.8598    3.7782   -3.1077 H         1 <0>         0.1298
     60 H22        -9.8162    5.6907   -4.6498 H         1 <0>         0.1306
     61 H23       -10.2035    5.3810   -7.0348 H         1 <0>         0.1324
     62 H24       -10.7615    0.0020   -5.8265 H         1 <0>         0.1655
     63 H25       -11.1381   -0.3088   -8.2126 H         1 <0>         0.1297
     64 H26       -11.0942    1.6041   -9.7549 H         1 <0>         0.1267
     65 H27       -10.6881    3.8610   -8.9340 H         1 <0>         0.1298
     66 H28        -8.0998   -1.1947   -2.8409 H         1 <0>         0.1287
     67 H29        -9.3309   -0.3798   -1.8465 H         1 <0>         0.1244
     68 H30        -8.9008    0.1383   -4.7020 H         1 <0>         0.4231
@<TRIPOS>BOND
     1    1    2 1
     2    1   39 1
     3    1   40 1
     4    1   41 1
     5    2    6 1
     6    2    3 2
     7    3    4 1
     8    3   13 1
     9    4    5 2
    10    5    6 1
    11    5    7 1
    12    7   12 ar
    13    7    8 ar
    14    8    9 ar
    15    8   42 1
    16    9   10 ar
    17    9   43 1
    18   10   11 ar
    19   10   44 1
    20   11   12 ar
    21   11   45 1
    22   12   46 1
    23   13   14 1
    24   13   47 1
    25   13   48 1
    26   14   15 1
    27   14   49 1
    28   14   50 1
    29   15   16 1
    30   16   21 ar
    31   16   17 ar
    32   17   18 ar
    33   17   51 1
    34   18   19 ar
    35   18   52 1
    36   19   20 ar
    37   19   53 1
    38   20   21 ar
    39   20   22 1
    40   21   54 1
    41   22   23 1
    42   22   55 1
    43   22   56 1
    44   23   24 1
    45   23   35 1
    46   23   68 1
    47   24   25 1
    48   24   57 1
    49   24   58 1
    50   25   30 ar
    51   25   26 ar
    52   26   27 ar
    53   26   59 1
    54   27   28 ar
    55   27   60 1
    56   28   29 ar
    57   28   61 1
    58   29   34 ar
    59   29   30 ar
    60   30   31 ar
    61   31   32 ar
    62   31   62 1
    63   32   33 ar
    64   32   63 1
    65   33   34 ar
    66   33   64 1
    67   34   65 1
    68   35   36 1
    69   35   66 1
    70   35   67 1
    71   36   37 2
    72   36   38 1
@<TRIPOS>MOLECULE
CHEMBL394947
   76    80     0     0     0
SMALL
USER_CHARGES

@<TRIPOS>ATOM
      1 C1          0.2570   -0.1904   -0.5626 C.3       1 <0>        -0.0721
      2 C2          0.1392   -1.6590   -0.8792 C.2       1 <0>        -0.0322
      3 C3         -1.0002   -2.3715   -0.9470 C.2       1 <0>        -0.0114
      4 N1         -0.6760   -3.6368   -1.2535 N.2       1 <0>        -0.4612
      5 C4          0.6280   -3.7181   -1.3748 C.2       1 <0>         0.2371
      6 O1          1.1549   -2.5015   -1.1526 O.3       1 <0>        -0.1917
      7 C5          1.3894   -4.9411   -1.7064 C.ar      1 <0>        -0.0231
      8 C6          0.7196   -6.1456   -1.9266 C.ar      1 <0>        -0.0697
      9 C7          1.4362   -7.2832   -2.2362 C.ar      1 <0>        -0.1203
     10 C8          2.8157   -7.2318   -2.3286 C.ar      1 <0>        -0.0977
     11 C9          3.4858   -6.0410   -2.1110 C.ar      1 <0>        -0.1206
     12 C10         2.7808   -4.8949   -1.8064 C.ar      1 <0>        -0.0894
     13 C11        -2.3927   -1.8425   -0.7189 C.3       1 <0>        -0.0339
     14 C12        -2.9754   -1.3515   -2.0457 C.3       1 <0>         0.0658
     15 O2         -4.2959   -0.8498   -1.8294 O.3       1 <0>        -0.3075
     16 C13        -4.9595   -0.3713   -2.9145 C.ar      1 <0>         0.1399
     17 C14        -4.3544   -0.3897   -4.1630 C.ar      1 <0>        -0.1849
     18 C15        -5.0312    0.0968   -5.2644 C.ar      1 <0>        -0.0732
     19 C16        -6.3109    0.6018   -5.1236 C.ar      1 <0>        -0.1328
     20 C17        -6.9158    0.6216   -3.8807 C.ar      1 <0>        -0.1037
     21 C18        -6.2452    0.1309   -2.7768 C.ar      1 <0>        -0.1297
     22 C19        -8.3102    1.1731   -3.7307 C.3       1 <0>         0.0350
     23 N2         -9.2871    0.0919   -3.9168 N.4       1 <0>        -0.3557
     24 C20       -10.6458    0.6496   -3.8898 C.3       1 <0>         0.0452
     25 C21       -10.8388    1.5600   -5.0751 C.ar      1 <0>        -0.1819
     26 C22       -10.6487    2.9225   -4.9369 C.ar      1 <0>        -0.0595
     27 C23       -10.8254    3.7593   -6.0218 C.ar      1 <0>        -0.1534
     28 C24       -11.1935    3.2314   -7.2508 C.ar      1 <0>         0.1555
     29 C25       -11.3832    1.8638   -7.3870 C.ar      1 <0>        -0.2096
     30 C26       -11.2002    1.0308   -6.3003 C.ar      1 <0>        -0.0442
     31 O3        -11.3684    4.0525   -8.3195 O.3       1 <0>        -0.3045
     32 C27       -11.7474    3.4395   -9.5534 C.3       1 <0>         0.1006
     33 C28       -11.8939    4.4981  -10.6160 C.ar      1 <0>        -0.1021
     34 C29       -13.1138    5.1185  -10.8101 C.ar      1 <0>        -0.0942
     35 C30       -13.2482    6.0895  -11.7847 C.ar      1 <0>        -0.1223
     36 C31       -12.1624    6.4404  -12.5651 C.ar      1 <0>        -0.1066
     37 C32       -10.9422    5.8207  -12.3704 C.ar      1 <0>        -0.1229
     38 C33       -10.8068    4.8527  -11.3928 C.ar      1 <0>        -0.0947
     39 C34        -9.1401   -0.8922   -2.8361 C.3       1 <0>        -0.0911
     40 C35       -10.0267   -2.0789   -3.1133 C.2       1 <0>         0.4895
     41 O4        -10.6304   -2.1552   -4.1698 O.co2     1 <0>        -0.6746
     42 O5        -10.1403   -2.9625   -2.2810 O.co2     1 <0>        -0.6400
     43 H1          1.3065    0.1032   -0.5858 H         1 <0>         0.0823
     44 H2         -0.2981    0.3865   -1.3023 H         1 <0>         0.0896
     45 H3         -0.1521    0.0015    0.4294 H         1 <0>         0.0936
     46 H4         -0.3571   -6.1871   -1.8545 H         1 <0>         0.1387
     47 H5          0.9191   -8.2159   -2.4065 H         1 <0>         0.1339
     48 H6          3.3719   -8.1251   -2.5713 H         1 <0>         0.1301
     49 H7          4.5628   -6.0078   -2.1839 H         1 <0>         0.1320
     50 H8          3.3047   -3.9650   -1.6415 H         1 <0>         0.1301
     51 H9         -3.0219   -2.6369   -0.3176 H         1 <0>         0.0980
     52 H10        -2.3555   -1.0153   -0.0101 H         1 <0>         0.0945
     53 H11        -2.3462   -0.5571   -2.4470 H         1 <0>         0.0652
     54 H12        -3.0126   -2.1787   -2.7545 H         1 <0>         0.0707
     55 H13        -3.3549   -0.7836   -4.2734 H         1 <0>         0.1343
     56 H14        -4.5605    0.0831   -6.2363 H         1 <0>         0.1346
     57 H15        -6.8384    0.9817   -5.9860 H         1 <0>         0.1311
     58 H16        -6.7199    0.1425   -1.8068 H         1 <0>         0.1407
     59 H17        -8.4267    1.6006   -2.7348 H         1 <0>         0.1298
     60 H18        -8.4774    1.9468   -4.4800 H         1 <0>         0.1324
     61 H19       -11.3725   -0.1618   -3.9327 H         1 <0>         0.1557
     62 H20       -10.7878    1.2162   -2.9695 H         1 <0>         0.1209
     63 H21       -10.3621    3.3330   -3.9800 H         1 <0>         0.1355
     64 H22       -10.6775    4.8236   -5.9132 H         1 <0>         0.1379
     65 H23       -11.6698    1.4505   -8.3427 H         1 <0>         0.1362
     66 H24       -11.3435   -0.0344   -6.4068 H         1 <0>         0.1431
     67 H25       -10.9809    2.7256   -9.8550 H         1 <0>         0.0751
     68 H26       -12.6971    2.9203   -9.4246 H         1 <0>         0.0758
     69 H27       -13.9621    4.8443  -10.2004 H         1 <0>         0.1248
     70 H28       -14.2015    6.5737  -11.9368 H         1 <0>         0.1270
     71 H29       -12.2676    7.1985  -13.3270 H         1 <0>         0.1260
     72 H30       -10.0940    6.0946  -12.9803 H         1 <0>         0.1266
     73 H31        -9.8526    4.3711  -11.2382 H         1 <0>         0.1240
     74 H32        -8.1018   -1.2194   -2.7814 H         1 <0>         0.1271
     75 H33        -9.4280   -0.4370   -1.8885 H         1 <0>         0.1228
     76 H34        -9.1257   -0.3579   -4.8055 H         1 <0>         0.4236
@<TRIPOS>BOND
     1    1    2 1
     2    1   43 1
     3    1   44 1
     4    1   45 1
     5    2    6 1
     6    2    3 2
     7    3    4 1
     8    3   13 1
     9    4    5 2
    10    5    6 1
    11    5    7 1
    12    7   12 ar
    13    7    8 ar
    14    8    9 ar
    15    8   46 1
    16    9   10 ar
    17    9   47 1
    18   10   11 ar
    19   10   48 1
    20   11   12 ar
    21   11   49 1
    22   12   50 1
    23   13   14 1
    24   13   51 1
    25   13   52 1
    26   14   15 1
    27   14   53 1
    28   14   54 1
    29   15   16 1
    30   16   21 ar
    31   16   17 ar
    32   17   18 ar
    33   17   55 1
    34   18   19 ar
    35   18   56 1
    36   19   20 ar
    37   19   57 1
    38   20   21 ar
    39   20   22 1
    40   21   58 1
    41   22   23 1
    42   22   59 1
    43   22   60 1
    44   23   24 1
    45   23   39 1
    46   23   76 1
    47   24   25 1
    48   24   61 1
    49   24   62 1
    50   25   30 ar
    51   25   26 ar
    52   26   27 ar
    53   26   63 1
    54   27   28 ar
    55   27   64 1
    56   28   29 ar
    57   28   31 1
    58   29   30 ar
    59   29   65 1
    60   30   66 1
    61   31   32 1
    62   32   33 1
    63   32   67 1
    64   32   68 1
    65   33   38 ar
    66   33   34 ar
    67   34   35 ar
    68   34   69 1
    69   35   36 ar
    70   35   70 1
    71   36   37 ar
    72   36   71 1
    73   37   38 ar
    74   37   72 1
    75   38   73 1
    76   39   40 1
    77   39   74 1
    78   39   75 1
    79   40   41 2
    80   40   42 1
@<TRIPOS>MOLECULE
CHEMBL245656
   73    77     0     0     0
SMALL
USER_CHARGES

@<TRIPOS>ATOM
      1 C1          1.2723    1.5109   -1.3517 C.3       1 <0>        -0.0721
      2 C2          1.3489    0.0101   -1.4645 C.2       1 <0>        -0.0322
      3 C3          0.3288   -0.8543   -1.3146 C.2       1 <0>        -0.0114
      4 N1          0.8108   -2.0937   -1.4923 N.2       1 <0>        -0.4613
      5 C4          2.0955   -2.0118   -1.7464 C.2       1 <0>         0.2375
      6 O1          2.4509   -0.7153   -1.7401 O.3       1 <0>        -0.1918
      7 C5          2.9992   -3.1532   -2.0029 C.ar      1 <0>        -0.0232
      8 C6          2.5015   -4.4571   -1.9929 C.ar      1 <0>        -0.0697
      9 C7          3.3501   -5.5179   -2.2335 C.ar      1 <0>        -0.1203
     10 C8          4.6917   -5.2914   -2.4843 C.ar      1 <0>        -0.0976
     11 C9          5.1916   -4.0014   -2.4952 C.ar      1 <0>        -0.1206
     12 C10         4.3526   -2.9313   -2.2618 C.ar      1 <0>        -0.0893
     13 C11        -1.1008   -0.4944   -1.0021 C.3       1 <0>        -0.0338
     14 C12        -1.8699   -0.2806   -2.3074 C.3       1 <0>         0.0656
     15 O2         -3.2255    0.0607   -2.0111 O.3       1 <0>        -0.3074
     16 C13        -4.0503    0.2852   -3.0676 C.ar      1 <0>         0.1401
     17 C14        -3.5662    0.1735   -4.3631 C.ar      1 <0>        -0.1841
     18 C15        -4.4066    0.4018   -5.4352 C.ar      1 <0>        -0.0727
     19 C16        -5.7295    0.7413   -5.2183 C.ar      1 <0>        -0.1326
     20 C17        -6.2141    0.8536   -3.9285 C.ar      1 <0>        -0.1050
     21 C18        -5.3790    0.6208   -2.8527 C.ar      1 <0>        -0.1295
     22 C19        -7.6562    1.2243   -3.6957 C.3       1 <0>         0.0345
     23 N2         -8.4716    0.0040   -3.6336 N.4       1 <0>        -0.3560
     24 C20        -9.8907    0.3682   -3.5267 C.3       1 <0>         0.0391
     25 C21       -10.3254    1.0703   -4.7873 C.ar      1 <0>        -0.1242
     26 C22       -10.3386    2.4522   -4.8389 C.ar      1 <0>        -0.1018
     27 C23       -10.7365    3.0994   -5.9940 C.ar      1 <0>        -0.1019
     28 C24       -11.1225    2.3667   -7.0998 C.ar      1 <0>        -0.1014
     29 C25       -11.1102    0.9802   -7.0506 C.ar      1 <0>         0.0926
     30 C26       -10.7049    0.3330   -5.8918 C.ar      1 <0>        -0.1048
     31 O3        -11.4894    0.2573   -8.1369 O.3       1 <0>        -0.2581
     32 C27       -12.7197   -0.3194   -8.1216 C.ar      1 <0>         0.1165
     33 C28       -13.5811   -0.0911   -7.0580 C.ar      1 <0>        -0.1926
     34 C29       -14.8313   -0.6785   -7.0449 C.ar      1 <0>        -0.0808
     35 C30       -15.2244   -1.4938   -8.0901 C.ar      1 <0>        -0.1479
     36 C31       -14.3678   -1.7233   -9.1510 C.ar      1 <0>        -0.0816
     37 C32       -13.1191   -1.1330   -9.1723 C.ar      1 <0>        -0.1422
     38 C33        -8.0795   -0.7877   -2.4599 C.3       1 <0>        -0.0913
     39 C34        -8.8012   -2.1105   -2.4823 C.2       1 <0>         0.4889
     40 O4         -9.4935   -2.4111   -3.4399 O.co2     1 <0>        -0.6735
     41 O5         -8.6929   -2.8800   -1.5429 O.co2     1 <0>        -0.6385
     42 H1          2.2588    1.9394   -1.5284 H         1 <0>         0.0823
     43 H2          0.5711    1.8956   -2.0924 H         1 <0>         0.0895
     44 H3          0.9314    1.7832   -0.3529 H         1 <0>         0.0936
     45 H4          1.4545   -4.6353   -1.7969 H         1 <0>         0.1387
     46 H5          2.9663   -6.5274   -2.2257 H         1 <0>         0.1340
     47 H6          5.3518   -6.1253   -2.6720 H         1 <0>         0.1301
     48 H7          6.2400   -3.8313   -2.6909 H         1 <0>         0.1320
     49 H8          4.7430   -1.9244   -2.2753 H         1 <0>         0.1302
     50 H9         -1.5636   -1.3027   -0.4359 H         1 <0>         0.0980
     51 H10        -1.1242    0.4221   -0.4124 H         1 <0>         0.0945
     52 H11        -1.4072    0.5277   -2.8736 H         1 <0>         0.0654
     53 H12        -1.8466   -1.1970   -2.8971 H         1 <0>         0.0708
     54 H13        -2.5331   -0.0913   -4.5331 H         1 <0>         0.1348
     55 H14        -4.0302    0.3153   -6.4438 H         1 <0>         0.1352
     56 H15        -6.3850    0.9194   -6.0579 H         1 <0>         0.1314
     57 H16        -5.7592    0.7043   -1.8453 H         1 <0>         0.1408
     58 H17        -7.7442    1.7684   -2.7552 H         1 <0>         0.1310
     59 H18        -8.0061    1.8539   -4.5138 H         1 <0>         0.1319
     60 H19       -10.4877   -0.5332   -3.3885 H         1 <0>         0.1596
     61 H20       -10.0322    1.0320   -2.6738 H         1 <0>         0.1258
     62 H21       -10.0379    3.0268   -3.9754 H         1 <0>         0.1358
     63 H22       -10.7459    4.1787   -6.0318 H         1 <0>         0.1402
     64 H23       -11.4339    2.8727   -8.0017 H         1 <0>         0.1391
     65 H24       -10.6905   -0.7461   -5.8523 H         1 <0>         0.1479
     66 H25       -13.2743    0.5451   -6.2409 H         1 <0>         0.1261
     67 H26       -15.5021   -0.5011   -6.2172 H         1 <0>         0.1274
     68 H27       -16.2021   -1.9524   -8.0778 H         1 <0>         0.1272
     69 H28       -14.6771   -2.3609   -9.9661 H         1 <0>         0.1331
     70 H29       -12.4522   -1.3088  -10.0034 H         1 <0>         0.1332
     71 H30        -7.0035   -0.9606   -2.4812 H         1 <0>         0.1286
     72 H31        -8.3425   -0.2456   -1.5516 H         1 <0>         0.1237
     73 H32        -8.3262   -0.5406   -4.4704 H         1 <0>         0.4246
@<TRIPOS>BOND
     1    1    2 1
     2    1   42 1
     3    1   43 1
     4    1   44 1
     5    2    6 1
     6    2    3 2
     7    3    4 1
     8    3   13 1
     9    4    5 2
    10    5    6 1
    11    5    7 1
    12    7   12 ar
    13    7    8 ar
    14    8    9 ar
    15    8   45 1
    16    9   10 ar
    17    9   46 1
    18   10   11 ar
    19   10   47 1
    20   11   12 ar
    21   11   48 1
    22   12   49 1
    23   13   14 1
    24   13   50 1
    25   13   51 1
    26   14   15 1
    27   14   52 1
    28   14   53 1
    29   15   16 1
    30   16   21 ar
    31   16   17 ar
    32   17   18 ar
    33   17   54 1
    34   18   19 ar
    35   18   55 1
    36   19   20 ar
    37   19   56 1
    38   20   21 ar
    39   20   22 1
    40   21   57 1
    41   22   23 1
    42   22   58 1
    43   22   59 1
    44   23   24 1
    45   23   38 1
    46   23   73 1
    47   24   25 1
    48   24   60 1
    49   24   61 1
    50   25   30 ar
    51   25   26 ar
    52   26   27 ar
    53   26   62 1
    54   27   28 ar
    55   27   63 1
    56   28   29 ar
    57   28   64 1
    58   29   30 ar
    59   29   31 1
    60   30   65 1
    61   31   32 1
    62   32   37 ar
    63   32   33 ar
    64   33   34 ar
    65   33   66 1
    66   34   35 ar
    67   34   67 1
    68   35   36 ar
    69   35   68 1
    70   36   37 ar
    71   36   69 1
    72   37   70 1
    73   38   39 1
    74   38   71 1
    75   38   72 1
    76   39   40 2
    77   39   41 1
@<TRIPOS>MOLECULE
CHEMBL246272
   73    77     0     0     0
SMALL
USER_CHARGES

@<TRIPOS>ATOM
      1 C1         -0.7629   -0.0726    1.1025 C.3       1 <0>        -0.0721
      2 C2         -0.8541   -1.5542    0.8429 C.2       1 <0>        -0.0323
      3 C3         -1.9787   -2.2560    0.6126 C.2       1 <0>        -0.0113
      4 N1         -1.6323   -3.5392    0.4300 N.2       1 <0>        -0.4612
      5 C4         -0.3290   -3.6419    0.5420 C.2       1 <0>         0.2374
      6 O1          0.1762   -2.4216    0.7925 O.3       1 <0>        -0.1918
      7 C5          0.4532   -4.8892    0.4087 C.ar      1 <0>        -0.0232
      8 C6         -0.1927   -6.0956    0.1346 C.ar      1 <0>        -0.0697
      9 C7          0.5432   -7.2560    0.0109 C.ar      1 <0>        -0.1203
     10 C8          1.9186   -7.2255    0.1580 C.ar      1 <0>        -0.0977
     11 C9          2.5650   -6.0329    0.4302 C.ar      1 <0>        -0.1207
     12 C10         1.8415   -4.8644    0.5506 C.ar      1 <0>        -0.0894
     13 C11        -3.3786   -1.6997    0.5682 C.3       1 <0>        -0.0339
     14 C12        -3.7121   -1.2716   -0.8623 C.3       1 <0>         0.0658
     15 O2         -5.0395   -0.7441   -0.9044 O.3       1 <0>        -0.3075
     16 C13        -5.4950   -0.3150   -2.1108 C.ar      1 <0>         0.1401
     17 C14        -4.6829   -0.4053   -3.2323 C.ar      1 <0>        -0.1847
     18 C15        -5.1483    0.0310   -4.4574 C.ar      1 <0>        -0.0730
     19 C16        -6.4224    0.5575   -4.5668 C.ar      1 <0>        -0.1329
     20 C17        -7.2332    0.6489   -3.4508 C.ar      1 <0>        -0.1040
     21 C18        -6.7744    0.2086   -2.2242 C.ar      1 <0>        -0.1297
     22 C19        -8.6209    1.2237   -3.5736 C.3       1 <0>         0.0352
     23 N2         -9.5726    0.1456   -3.8737 N.4       1 <0>        -0.3556
     24 C20       -10.9037    0.7197   -4.1114 C.3       1 <0>         0.0441
     25 C21       -10.8718    1.5619   -5.3606 C.ar      1 <0>        -0.1755
     26 C22       -10.6803    2.9281   -5.2672 C.ar      1 <0>        -0.0605
     27 C23       -10.6502    3.7024   -6.4108 C.ar      1 <0>        -0.1976
     28 C24       -10.8123    3.1079   -7.6540 C.ar      1 <0>         0.1479
     29 C25       -11.0042    1.7367   -7.7450 C.ar      1 <0>        -0.1440
     30 C26       -11.0283    0.9664   -6.5987 C.ar      1 <0>        -0.0482
     31 O3        -10.7835    3.8674   -8.7805 O.3       1 <0>        -0.2539
     32 C27       -10.6512    5.2125   -8.6398 C.ar      1 <0>         0.0755
     33 C28        -9.4006    5.7674   -8.4090 C.ar      1 <0>        -0.1305
     34 C29        -9.2689    7.1351   -8.2663 C.ar      1 <0>        -0.1058
     35 C30       -10.3820    7.9508   -8.3529 C.ar      1 <0>        -0.1138
     36 C31       -11.6294    7.4003   -8.5825 C.ar      1 <0>        -0.1039
     37 C32       -11.7657    6.0339   -8.7325 C.ar      1 <0>        -0.1196
     38 C33        -9.6355   -0.7826   -2.7368 C.3       1 <0>        -0.0911
     39 C34       -10.4841   -1.9720   -3.1058 C.2       1 <0>         0.4895
     40 O4        -10.9163   -2.0841   -4.2403 O.co2     1 <0>        -0.6739
     41 O5        -10.7385   -2.8223   -2.2698 O.co2     1 <0>        -0.6397
     42 H1          0.2804    0.2072    1.2482 H         1 <0>         0.0823
     43 H2         -1.1694    0.4714    0.2499 H         1 <0>         0.0895
     44 H3         -1.3339    0.1753    1.9973 H         1 <0>         0.0935
     45 H4         -1.2663   -6.1208    0.0199 H         1 <0>         0.1387
     46 H5          0.0445   -8.1903   -0.2008 H         1 <0>         0.1340
     47 H6          2.4900   -8.1367    0.0603 H         1 <0>         0.1301
     48 H7          3.6388   -6.0160    0.5446 H         1 <0>         0.1320
     49 H8          2.3477   -3.9333    0.7584 H         1 <0>         0.1301
     50 H9         -4.0841   -2.4648    0.8923 H         1 <0>         0.0981
     51 H10        -3.4480   -0.8372    1.2311 H         1 <0>         0.0944
     52 H11        -3.0067   -0.5065   -1.1865 H         1 <0>         0.0652
     53 H12        -3.6427   -2.1341   -1.5252 H         1 <0>         0.0708
     54 H13        -3.6877   -0.8161   -3.1473 H         1 <0>         0.1345
     55 H14        -4.5165   -0.0387   -5.3305 H         1 <0>         0.1348
     56 H15        -6.7844    0.8982   -5.5256 H         1 <0>         0.1312
     57 H16        -7.4099    0.2761   -1.3535 H         1 <0>         0.1407
     58 H17        -8.8996    1.7037   -2.6355 H         1 <0>         0.1294
     59 H18        -8.6397    1.9592   -4.3777 H         1 <0>         0.1314
     60 H19       -11.6295   -0.0843   -4.2336 H         1 <0>         0.1581
     61 H20       -11.1887    1.3404   -3.2619 H         1 <0>         0.1205
     62 H21       -10.5546    3.3903   -4.2992 H         1 <0>         0.1321
     63 H22       -10.5010    4.7695   -6.3372 H         1 <0>         0.1355
     64 H23       -11.1306    1.2716   -8.7115 H         1 <0>         0.1419
     65 H24       -11.1732   -0.1015   -6.6692 H         1 <0>         0.1495
     66 H25        -8.5310    5.1307   -8.3405 H         1 <0>         0.1306
     67 H26        -8.2957    7.5676   -8.0866 H         1 <0>         0.1321
     68 H27       -10.2769    9.0198   -8.2407 H         1 <0>         0.1308
     69 H28       -12.4973    8.0396   -8.6494 H         1 <0>         0.1337
     70 H29       -12.7395    5.6048   -8.9165 H         1 <0>         0.1334
     71 H30        -8.6293   -1.1181   -2.4856 H         1 <0>         0.1274
     72 H31       -10.0746   -0.2755   -1.8776 H         1 <0>         0.1227
     73 H32        -9.2687   -0.3516   -4.6974 H         1 <0>         0.4240
@<TRIPOS>BOND
     1    1    2 1
     2    1   42 1
     3    1   43 1
     4    1   44 1
     5    2    6 1
     6    2    3 2
     7    3    4 1
     8    3   13 1
     9    4    5 2
    10    5    6 1
    11    5    7 1
    12    7   12 ar
    13    7    8 ar
    14    8    9 ar
    15    8   45 1
    16    9   10 ar
    17    9   46 1
    18   10   11 ar
    19   10   47 1
    20   11   12 ar
    21   11   48 1
    22   12   49 1
    23   13   14 1
    24   13   50 1
    25   13   51 1
    26   14   15 1
    27   14   52 1
    28   14   53 1
    29   15   16 1
    30   16   21 ar
    31   16   17 ar
    32   17   18 ar
    33   17   54 1
    34   18   19 ar
    35   18   55 1
    36   19   20 ar
    37   19   56 1
    38   20   21 ar
    39   20   22 1
    40   21   57 1
    41   22   23 1
    42   22   58 1
    43   22   59 1
    44   23   24 1
    45   23   38 1
    46   23   73 1
    47   24   25 1
    48   24   60 1
    49   24   61 1
    50   25   30 ar
    51   25   26 ar
    52   26   27 ar
    53   26   62 1
    54   27   28 ar
    55   27   63 1
    56   28   29 ar
    57   28   31 1
    58   29   30 ar
    59   29   64 1
    60   30   65 1
    61   31   32 1
    62   32   37 ar
    63   32   33 ar
    64   33   34 ar
    65   33   66 1
    66   34   35 ar
    67   34   67 1
    68   35   36 ar
    69   35   68 1
    70   36   37 ar
    71   36   69 1
    72   37   70 1
    73   38   39 1
    74   38   71 1
    75   38   72 1
    76   39   40 2
    77   39   41 1
@<TRIPOS>MOLECULE
CHEMBL38943
   47    49     0     0     0
SMALL
USER_CHARGES

@<TRIPOS>ATOM
      1 C1         -0.0184    1.5028    0.0103 C.3       1 <0>        -0.1056
      2 C2          0.0021   -0.0041    0.0020 C.ar      1 <0>        -0.1056
      3 C3          0.0057   -0.6878   -1.1980 C.ar      1 <0>        -0.0580
      4 C4          0.0246   -2.0766   -1.2053 C.ar      1 <0>        -0.1389
      5 C5          0.0397   -2.7765   -0.0051 C.ar      1 <0>        -0.0937
      6 C6          0.0360   -2.0909    1.1933 C.ar      1 <0>        -0.1957
      7 C7          0.0229   -0.7036    1.1994 C.ar      1 <0>         0.1424
      8 O1          0.0254   -0.0293    2.3804 O.3       1 <0>        -0.2744
      9 C8          0.0474   -0.8131    3.5751 C.3       1 <0>        -0.0087
     10 C9          0.0468    0.0992    4.7746 C.2       1 <0>         0.5015
     11 O2          0.0293    1.3085    4.6207 O.co2     1 <0>        -0.6695
     12 O3          0.0640   -0.3721    5.8989 O.co2     1 <0>        -0.6868
     13 S1          0.0286   -2.9502   -2.7355 S.3       1 <0>        -0.1081
     14 C10         0.0549   -4.6962   -2.2439 C.3       1 <0>        -0.0195
     15 C11         0.0604   -5.5647   -3.4755 C.2       1 <0>        -0.1535
     16 C12         1.1098   -6.0555   -4.1871 C.2       1 <0>         0.0785
     17 N1          0.8913   -6.8031   -5.2431 N.2       1 <0>        -0.4808
     18 C13        -0.3404   -7.0947   -5.6371 C.2       1 <0>         0.1331
     19 S2         -1.3116   -6.2421   -4.4014 S.3       1 <0>         0.0504
     20 C14        -0.7899   -7.9102   -6.7857 C.ar      1 <0>         0.0241
     21 C15        -2.1526   -8.0884   -7.0280 C.ar      1 <0>        -0.0953
     22 C16        -2.5655   -8.8505   -8.1013 C.ar      1 <0>        -0.0656
     23 C17        -1.6318   -9.4376   -8.9366 C.ar      1 <0>        -0.1708
     24 C18        -0.2793   -9.2648   -8.7020 C.ar      1 <0>        -0.0683
     25 C19         0.1467   -8.5003   -7.6354 C.ar      1 <0>        -0.0736
     26 C20        -2.0899  -10.2692  -10.1069 C.3       1 <0>         0.5086
     27 F1         -2.2373   -9.4503  -11.2316 F         1 <0>        -0.1742
     28 F2         -1.1407  -11.2616  -10.3738 F         1 <0>        -0.1752
     29 F3         -3.3171  -10.8676   -9.8018 F         1 <0>        -0.1753
     30 C21         2.5216   -5.7409   -3.7640 C.3       1 <0>        -0.0902
     31 H1          1.0042    1.8801    0.0026 H         1 <0>         0.0689
     32 H2         -0.5455    1.8639   -0.8728 H         1 <0>         0.0610
     33 H3         -0.5286    1.8543    0.9071 H         1 <0>         0.0802
     34 H4         -0.0064   -0.1428   -2.1303 H         1 <0>         0.1297
     35 H5          0.0540   -3.8564   -0.0097 H         1 <0>         0.1186
     36 H6          0.0478   -2.6347    2.1263 H         1 <0>         0.1327
     37 H7         -0.8339   -1.4538    3.6055 H         1 <0>         0.0594
     38 H8          0.9458   -1.4302    3.5883 H         1 <0>         0.0597
     39 H9          0.9506   -4.8945   -1.6554 H         1 <0>         0.1147
     40 H10        -0.8291   -4.9187   -1.6464 H         1 <0>         0.1055
     41 H11        -2.8824   -7.6309   -6.3764 H         1 <0>         0.1405
     42 H12        -3.6198   -8.9895   -8.2897 H         1 <0>         0.1456
     43 H13         0.4445   -9.7257   -9.3577 H         1 <0>         0.1451
     44 H14         1.2027   -8.3622   -7.4561 H         1 <0>         0.1494
     45 H15         2.8714   -6.5045   -3.0693 H         1 <0>         0.0774
     46 H16         3.1685   -5.7240   -4.6412 H         1 <0>         0.0790
     47 H17         2.5461   -4.7667   -3.2757 H         1 <0>         0.0816
@<TRIPOS>BOND
     1    1    2 1
     2    1   31 1
     3    1   32 1
     4    1   33 1
     5    2    7 ar
     6    2    3 ar
     7    3    4 ar
     8    3   34 1
     9    4    5 ar
    10    4   13 1
    11    5    6 ar
    12    5   35 1
    13    6    7 ar
    14    6   36 1
    15    7    8 1
    16    8    9 1
    17    9   10 1
    18    9   37 1
    19    9   38 1
    20   10   11 2
    21   10   12 1
    22   13   14 1
    23   14   15 1
    24   14   39 1
    25   14   40 1
    26   15   19 1
    27   15   16 2
    28   16   17 1
    29   16   30 1
    30   17   18 2
    31   18   19 1
    32   18   20 1
    33   20   25 ar
    34   20   21 ar
    35   21   22 ar
    36   21   41 1
    37   22   23 ar
    38   22   42 1
    39   23   24 ar
    40   23   26 1
    41   24   25 ar
    42   24   43 1
    43   25   44 1
    44   26   27 1
    45   26   28 1
    46   26   29 1
    47   30   45 1
    48   30   46 1
    49   30   47 1
@<TRIPOS>MOLECULE
CHEMBL401811
   51    52     0     0     0
SMALL
USER_CHARGES

@<TRIPOS>ATOM
      1 C1         -0.0184    1.5028    0.0103 C.3       1 <0>        -0.0684
      2 C2          0.0021   -0.0041    0.0020 C.2       1 <0>        -0.0442
      3 C3         -1.0705   -0.8164    0.0025 C.2       1 <0>        -0.0014
      4 N1         -0.6270   -2.0826   -0.0064 N.2       1 <0>        -0.4603
      5 C4          0.6851   -2.0676   -0.0123 C.2       1 <0>         0.2229
      6 O1          1.0981   -0.7883   -0.0131 O.3       1 <0>        -0.1960
      7 C5          1.5619   -3.2577   -0.0227 C.ar      1 <0>        -0.0146
      8 C6          1.0059   -4.5378   -0.0330 C.ar      1 <0>        -0.0717
      9 C7          1.8298   -5.6443   -0.0432 C.ar      1 <0>        -0.1205
     10 C8          3.2044   -5.4871   -0.0433 C.ar      1 <0>        -0.1028
     11 C9          3.7620   -4.2209   -0.0327 C.ar      1 <0>        -0.1213
     12 C10         2.9493   -3.1060   -0.0282 C.ar      1 <0>        -0.0920
     13 C11        -2.5133   -0.3814    0.0119 C.3       1 <0>        -0.0388
     14 C12        -3.0085   -0.2260   -1.4274 C.3       1 <0>        -0.1119
     15 C13        -4.4733    0.2157   -1.4179 C.3       1 <0>        -0.1175
     16 C14        -4.9685    0.3712   -2.8572 C.3       1 <0>        -0.1149
     17 C15        -6.4333    0.8128   -2.8476 C.3       1 <0>        -0.1161
     18 C16        -6.9285    0.9683   -4.2869 C.3       1 <0>         0.0485
     19 O2         -8.2966    1.3808   -4.2780 O.3       1 <0>        -0.3512
     20 C17        -8.8593    1.5560   -5.5798 C.3       1 <0>         0.0400
     21 C18        -8.0701    2.6261   -6.3368 C.3       1 <0>        -0.1543
     22 C19        -8.7914    0.2340   -6.3470 C.3       1 <0>        -0.1545
     23 C20       -10.2971    1.9890   -5.4515 C.2       1 <0>         0.5126
     24 O3        -10.7938    2.1341   -4.3475 O.co2     1 <0>        -0.6763
     25 O4        -10.9635    2.1942   -6.4516 O.co2     1 <0>        -0.6919
     26 H1          1.0042    1.8801    0.0026 H         1 <0>         0.0774
     27 H2         -0.5455    1.8639   -0.8728 H         1 <0>         0.0915
     28 H3         -0.5286    1.8543    0.9071 H         1 <0>         0.0905
     29 H4         -0.0670   -4.6619   -0.0326 H         1 <0>         0.1388
     30 H5          1.4008   -6.6354   -0.0508 H         1 <0>         0.1324
     31 H6          3.8450   -6.3565   -0.0513 H         1 <0>         0.1280
     32 H7          4.8357   -4.1050   -0.0321 H         1 <0>         0.1301
     33 H8          3.3858   -2.1181   -0.0249 H         1 <0>         0.1295
     34 H9         -3.1156   -1.1316    0.5243 H         1 <0>         0.0827
     35 H10        -2.6018    0.5726    0.5316 H         1 <0>         0.0810
     36 H11        -2.4061    0.5242   -1.9398 H         1 <0>         0.0608
     37 H12        -2.9200   -1.1800   -1.9471 H         1 <0>         0.0650
     38 H13        -5.0756   -0.5344   -0.9055 H         1 <0>         0.0654
     39 H14        -4.5618    1.1697   -0.8982 H         1 <0>         0.0647
     40 H15        -4.3661    1.1213   -3.3696 H         1 <0>         0.0603
     41 H16        -4.8800   -0.5829   -3.3769 H         1 <0>         0.0607
     42 H17        -7.0356    0.0627   -2.3352 H         1 <0>         0.0680
     43 H18        -6.5218    1.7668   -2.3279 H         1 <0>         0.0678
     44 H19        -6.3261    1.7184   -4.7994 H         1 <0>         0.0389
     45 H20        -6.8400    0.0143   -4.8066 H         1 <0>         0.0390
     46 H21        -7.0302    2.3129   -6.4296 H         1 <0>         0.0421
     47 H22        -8.4993    2.7598   -7.3297 H         1 <0>         0.0665
     48 H23        -8.1185    3.5679   -5.7902 H         1 <0>         0.0534
     49 H24        -9.3536   -0.5283   -5.8077 H         1 <0>         0.0535
     50 H25        -9.2206    0.3677   -7.3400 H         1 <0>         0.0665
     51 H26        -7.7515   -0.0792   -6.4398 H         1 <0>         0.0422
@<TRIPOS>BOND
     1    1    2 1
     2    1   26 1
     3    1   27 1
     4    1   28 1
     5    2    6 1
     6    2    3 2
     7    3    4 1
     8    3   13 1
     9    4    5 2
    10    5    6 1
    11    5    7 1
    12    7   12 ar
    13    7    8 ar
    14    8    9 ar
    15    8   29 1
    16    9   10 ar
    17    9   30 1
    18   10   11 ar
    19   10   31 1
    20   11   12 ar
    21   11   32 1
    22   12   33 1
    23   13   14 1
    24   13   34 1
    25   13   35 1
    26   14   15 1
    27   14   36 1
    28   14   37 1
    29   15   16 1
    30   15   38 1
    31   15   39 1
    32   16   17 1
    33   16   40 1
    34   16   41 1
    35   17   18 1
    36   17   42 1
    37   17   43 1
    38   18   19 1
    39   18   44 1
    40   18   45 1
    41   19   20 1
    42   20   21 1
    43   20   22 1
    44   20   23 1
    45   21   46 1
    46   21   47 1
    47   21   48 1
    48   22   49 1
    49   22   50 1
    50   22   51 1
    51   23   24 2
    52   23   25 1
@<TRIPOS>MOLECULE
CHEMBL421602
   64    67     0     0     0
SMALL
USER_CHARGES

@<TRIPOS>ATOM
      1 C1          1.6068    0.2822    4.3440 C.3       1 <0>        -0.1536
      2 C2          1.2229   -0.6030    3.1566 C.3       1 <0>        -0.1160
      3 C3          0.0842    0.0564    2.3760 C.3       1 <0>        -0.0822
      4 C4         -0.2939   -0.8155    1.2064 C.ar      1 <0>        -0.1084
      5 C5          0.1930   -0.5307   -0.0367 C.ar      1 <0>        -0.0381
      6 C6         -0.1560   -1.3381   -1.1225 C.ar      1 <0>        -0.1876
      7 C7         -1.0068   -2.4406   -0.9322 C.ar      1 <0>         0.1010
      8 C8         -1.4933   -2.7173    0.3378 C.ar      1 <0>        -0.0990
      9 C9         -1.1331   -1.9097    1.4023 C.ar      1 <0>         0.1806
     10 O1         -1.6050   -2.1834    2.6462 O.3       1 <0>        -0.2905
     11 C10        -2.9086   -1.6940    2.9678 C.3       1 <0>         0.0683
     12 C11        -2.7917   -0.5733    3.9685 C.ar      1 <0>        -0.1009
     13 C12        -1.8019   -0.6099    4.9332 C.ar      1 <0>        -0.0525
     14 C13        -1.6929    0.4160    5.8519 C.ar      1 <0>        -0.1520
     15 C14        -2.5774    1.4838    5.8057 C.ar      1 <0>         0.1186
     16 C15        -3.5693    1.5184    4.8365 C.ar      1 <0>        -0.2071
     17 C16        -3.6709    0.4926    3.9168 C.ar      1 <0>        -0.0629
     18 O2         -2.4725    2.4940    6.7087 O.3       1 <0>        -0.3160
     19 C17        -3.4171    3.5609    6.6012 C.3       1 <0>         0.1126
     20 C18        -3.1476    4.5808    7.6774 C.ar      1 <0>         0.1274
     21 C19        -2.1034    4.3819    8.5609 C.ar      1 <0>        -0.1481
     22 C20        -1.8639    5.3262    9.5472 C.ar      1 <0>        -0.0755
     23 C21        -2.6874    6.4403    9.6082 C.ar      1 <0>        -0.1766
     24 C22        -3.7121    6.5713    8.6904 C.ar      1 <0>         0.1020
     25 N1         -3.9072    5.6552    7.7619 N.ar      1 <0>        -0.4814
     26 C23        -3.7327   -2.8097    3.5571 C.2       1 <0>         0.5040
     27 O3         -3.2143   -3.8849    3.8054 O.co2     1 <0>        -0.6575
     28 O4         -4.9178   -2.6371    3.7855 O.co2     1 <0>        -0.6793
     29 C24        -2.4068   -3.8956    0.5576 C.3       1 <0>        -0.0869
     30 C25        -1.5694   -5.1628    0.7419 C.3       1 <0>        -0.1029
     31 C26        -2.4968   -6.3590    0.9650 C.3       1 <0>        -0.1492
     32 O5         -1.1691   -3.0284   -2.1349 O.3       1 <0>        -0.0541
     33 N2         -0.4300   -2.3163   -3.1069 N.2       1 <0>        -0.2327
     34 C27         0.1790   -1.3155   -2.5485 C.2       1 <0>         0.0398
     35 C28         1.0677   -0.3141   -3.2401 C.3       1 <0>         0.5566
     36 F1          2.3896   -0.7717   -3.2203 F         1 <0>        -0.1578
     37 F2          0.6488   -0.1558   -4.5655 F         1 <0>        -0.1594
     38 F3          0.9897    0.9151   -2.5765 F         1 <0>        -0.1554
     39 H1          2.4181   -0.1876    4.9001 H         1 <0>         0.0520
     40 H2          1.9323    1.2568    3.9804 H         1 <0>         0.0489
     41 H3          0.7435    0.4079    4.9975 H         1 <0>         0.0623
     42 H4          2.0862   -0.7288    2.5031 H         1 <0>         0.0565
     43 H5          0.8974   -1.5777    3.5202 H         1 <0>         0.0728
     44 H6         -0.7791    0.1822    3.0295 H         1 <0>         0.0918
     45 H7          0.4097    1.0311    2.0124 H         1 <0>         0.0685
     46 H8          0.8463    0.3172   -0.1808 H         1 <0>         0.1391
     47 H9         -3.3913   -1.3245    2.0631 H         1 <0>         0.0672
     48 H10        -1.1136   -1.4414    4.9688 H         1 <0>         0.1355
     49 H11        -0.9200    0.3866    6.6057 H         1 <0>         0.1273
     50 H12        -4.2591    2.3486    4.7984 H         1 <0>         0.1251
     51 H13        -4.4401    0.5212    3.1593 H         1 <0>         0.1238
     52 H14        -3.3236    4.0318    5.6226 H         1 <0>         0.0849
     53 H15        -4.4262    3.1660    6.7194 H         1 <0>         0.0860
     54 H16        -1.4821    3.5018    8.4841 H         1 <0>         0.1464
     55 H17        -1.0555    5.1971   10.2516 H         1 <0>         0.1360
     56 H18        -2.5302    7.1958   10.3637 H         1 <0>         0.1352
     57 H19        -4.3579    7.4360    8.7312 H         1 <0>         0.1583
     58 H20        -3.0103   -3.7260    1.4493 H         1 <0>         0.1072
     59 H21        -3.0606   -4.0146   -0.3064 H         1 <0>         0.0667
     60 H22        -0.9659   -5.3323   -0.1499 H         1 <0>         0.0480
     61 H23        -0.9156   -5.0438    1.6058 H         1 <0>         0.0687
     62 H24        -1.9002   -7.2617    1.0963 H         1 <0>         0.0484
     63 H25        -3.1003   -6.1894    1.8568 H         1 <0>         0.0700
     64 H26        -3.1507   -6.4780    0.1011 H         1 <0>         0.0461
@<TRIPOS>BOND
     1    1    2 1
     2    1   39 1
     3    1   40 1
     4    1   41 1
     5    2    3 1
     6    2   42 1
     7    2   43 1
     8    3    4 1
     9    3   44 1
    10    3   45 1
    11    4    9 ar
    12    4    5 ar
    13    5    6 ar
    14    5   46 1
    15    6   34 1
    16    6    7 ar
    17    7    8 ar
    18    7   32 1
    19    8    9 ar
    20    8   29 1
    21    9   10 1
    22   10   11 1
    23   11   12 1
    24   11   26 1
    25   11   47 1
    26   12   17 ar
    27   12   13 ar
    28   13   14 ar
    29   13   48 1
    30   14   15 ar
    31   14   49 1
    32   15   16 ar
    33   15   18 1
    34   16   17 ar
    35   16   50 1
    36   17   51 1
    37   18   19 1
    38   19   20 1
    39   19   52 1
    40   19   53 1
    41   20   25 ar
    42   20   21 ar
    43   21   22 ar
    44   21   54 1
    45   22   23 ar
    46   22   55 1
    47   23   24 ar
    48   23   56 1
    49   24   25 ar
    50   24   57 1
    51   26   27 2
    52   26   28 1
    53   29   30 1
    54   29   58 1
    55   29   59 1
    56   30   31 1
    57   30   60 1
    58   30   61 1
    59   31   62 1
    60   31   63 1
    61   31   64 1
    62   32   33 1
    63   33   34 2
    64   34   35 1
    65   35   36 1
    66   35   37 1
    67   35   38 1
@<TRIPOS>MOLECULE
CHEMBL421602__1
   64    67     0     0     0
SMALL
USER_CHARGES

@<TRIPOS>ATOM
      1 C1         -1.5043    0.2917   -1.4817 C.3       1 <0>        -0.1482
      2 C2         -1.0760   -1.1159   -1.0620 C.3       1 <0>        -0.1053
      3 C3         -2.2967   -1.8942   -0.5672 C.3       1 <0>        -0.1034
      4 C4         -1.8748   -3.2806   -0.1538 C.ar      1 <0>        -0.0891
      5 C5         -2.0667   -4.3299   -1.0058 C.ar      1 <0>        -0.0360
      6 C6         -1.6758   -5.6162   -0.6246 C.ar      1 <0>        -0.1934
      7 C7         -1.0865   -5.8264    0.6341 C.ar      1 <0>         0.1030
      8 C8         -0.8978   -4.7494    1.4888 C.ar      1 <0>        -0.1340
      9 C9         -1.2866   -3.4817    1.0926 C.ar      1 <0>         0.1978
     10 O1         -1.0972   -2.4267    1.9269 O.3       1 <0>        -0.2891
     11 C10        -1.8064   -2.4452    3.1674 C.3       1 <0>         0.0631
     12 C11        -0.8842   -2.0167    4.2796 C.ar      1 <0>        -0.0864
     13 C12         0.0065   -0.9789    4.0764 C.ar      1 <0>        -0.0516
     14 C13         0.8532   -0.5845    5.0943 C.ar      1 <0>        -0.1500
     15 C14         0.8089   -1.2305    6.3212 C.ar      1 <0>         0.1196
     16 C15        -0.0860   -2.2713    6.5227 C.ar      1 <0>        -0.2063
     17 C16        -0.9342   -2.6584    5.5033 C.ar      1 <0>        -0.0647
     18 O2          1.6412   -0.8447    7.3239 O.3       1 <0>        -0.3161
     19 C17         1.5404   -1.5546    8.5600 C.3       1 <0>         0.1127
     20 C18         2.5325   -0.9919    9.5449 C.ar      1 <0>         0.1274
     21 C19         3.3480    0.0588    9.1683 C.ar      1 <0>        -0.1482
     22 C20         4.2572    0.5692   10.0818 C.ar      1 <0>        -0.0755
     23 C21         4.3126    0.0011   11.3457 C.ar      1 <0>        -0.1765
     24 C22         3.4656   -1.0473   11.6503 C.ar      1 <0>         0.1019
     25 N1          2.6090   -1.5039   10.7575 N.ar      1 <0>        -0.4812
     26 C23        -2.9759   -1.4979    3.0915 C.2       1 <0>         0.4945
     27 O3         -3.0955   -0.7523    2.1343 O.co2     1 <0>        -0.6590
     28 O4         -3.8027   -1.4770    3.9874 O.co2     1 <0>        -0.6781
     29 C24        -0.2677   -4.9589    2.8417 C.3       1 <0>        -0.0875
     30 C25         1.2322   -4.6691    2.7561 C.3       1 <0>        -0.1111
     31 C26         1.8719   -4.8817    4.1296 C.3       1 <0>        -0.1493
     32 O5         -0.8159   -7.1440    0.7301 O.3       1 <0>        -0.0593
     33 N2         -1.2248   -7.7930   -0.4571 N.2       1 <0>        -0.2370
     34 C27        -1.7354   -6.9264   -1.2773 C.2       1 <0>         0.0430
     35 C28        -2.2880   -7.2150   -2.6493 C.3       1 <0>         0.5560
     36 F1         -1.2663   -7.0975   -3.5977 F         1 <0>        -0.1584
     37 F2         -2.8054   -8.5144   -2.6798 F         1 <0>        -0.1600
     38 F3         -3.3053   -6.3009   -2.9440 F         1 <0>        -0.1539
     39 H1         -0.6346    0.8462   -1.8342 H         1 <0>         0.0457
     40 H2         -2.2408    0.2237   -2.2824 H         1 <0>         0.0469
     41 H3         -1.9426    0.8079   -0.6276 H         1 <0>         0.0650
     42 H4         -0.6376   -1.6321   -1.9161 H         1 <0>         0.0458
     43 H5         -0.3394   -1.0480   -0.2613 H         1 <0>         0.0661
     44 H6         -2.7351   -1.3780    0.2869 H         1 <0>         0.1390
     45 H7         -3.0333   -1.9622   -1.3679 H         1 <0>         0.0606
     46 H8         -2.5200   -4.1663   -1.9723 H         1 <0>         0.1404
     47 H9         -2.1684   -3.4544    3.3640 H         1 <0>         0.0725
     48 H10         0.0405   -0.4763    3.1211 H         1 <0>         0.1349
     49 H11         1.5492    0.2258    4.9349 H         1 <0>         0.1270
     50 H12        -0.1223   -2.7757    7.4769 H         1 <0>         0.1256
     51 H13        -1.6341   -3.4657    5.6611 H         1 <0>         0.1232
     52 H14         0.5317   -1.4479    8.9591 H         1 <0>         0.0860
     53 H15         1.7546   -2.6100    8.3914 H         1 <0>         0.0851
     54 H16         3.2778    0.4766    8.1749 H         1 <0>         0.1464
     55 H17         4.9073    1.3895    9.8155 H         1 <0>         0.1360
     56 H18         5.0091    0.3732   12.0824 H         1 <0>         0.1352
     57 H19         3.5026   -1.4952   12.6324 H         1 <0>         0.1583
     58 H20        -0.7273   -4.2851    3.5648 H         1 <0>         0.0918
     59 H21        -0.4209   -5.9907    3.1580 H         1 <0>         0.0719
     60 H22         1.6918   -5.3428    2.0330 H         1 <0>         0.0562
     61 H23         1.3854   -3.6373    2.4398 H         1 <0>         0.0692
     62 H24         2.9404   -4.6753    4.0687 H         1 <0>         0.0516
     63 H25         1.4123   -4.2080    4.8527 H         1 <0>         0.0590
     64 H26         1.7187   -5.9135    4.4459 H         1 <0>         0.0503
@<TRIPOS>BOND
     1    1    2 1
     2    1   39 1
     3    1   40 1
     4    1   41 1
     5    2    3 1
     6    2   42 1
     7    2   43 1
     8    3    4 1
     9    3   44 1
    10    3   45 1
    11    4    9 ar
    12    4    5 ar
    13    5    6 ar
    14    5   46 1
    15    6   34 1
    16    6    7 ar
    17    7    8 ar
    18    7   32 1
    19    8    9 ar
    20    8   29 1
    21    9   10 1
    22   10   11 1
    23   11   12 1
    24   11   26 1
    25   11   47 1
    26   12   17 ar
    27   12   13 ar
    28   13   14 ar
    29   13   48 1
    30   14   15 ar
    31   14   49 1
    32   15   16 ar
    33   15   18 1
    34   16   17 ar
    35   16   50 1
    36   17   51 1
    37   18   19 1
    38   19   20 1
    39   19   52 1
    40   19   53 1
    41   20   25 ar
    42   20   21 ar
    43   21   22 ar
    44   21   54 1
    45   22   23 ar
    46   22   55 1
    47   23   24 ar
    48   23   56 1
    49   24   25 ar
    50   24   57 1
    51   26   27 2
    52   26   28 1
    53   29   30 1
    54   29   58 1
    55   29   59 1
    56   30   31 1
    57   30   60 1
    58   30   61 1
    59   31   62 1
    60   31   63 1
    61   31   64 1
    62   32   33 1
    63   33   34 2
    64   34   35 1
    65   35   36 1
    66   35   37 1
    67   35   38 1
@<TRIPOS>MOLECULE
CHEMBL21706
   74    76     0     0     0
SMALL
USER_CHARGES

@<TRIPOS>ATOM
      1 C1         -1.0930    0.3167   -0.5092 C.3       1 <0>        -0.1081
      2 C2          0.4180    0.4775   -0.3309 C.3       1 <0>        -0.1197
      3 C3          0.7797    1.9638   -0.3602 C.3       1 <0>        -0.1351
      4 C4          0.8336   -0.1146    0.9912 C.2       1 <0>         0.5010
      5 O1          1.6371   -1.0311    1.0230 O.co2     1 <0>        -0.6640
      6 O2          0.3664    0.3228    2.0289 O.co2     1 <0>        -0.6819
      7 S1          1.2804   -0.3814   -1.6759 S.3       1 <0>        -0.1190
      8 C5          2.9864   -0.1001   -1.3366 C.ar      1 <0>        -0.0439
      9 C6          3.3676    0.5277   -0.1568 C.ar      1 <0>        -0.0904
     10 C7          4.7055    0.7465    0.1058 C.ar      1 <0>        -0.1034
     11 C8          5.6656    0.3416   -0.8036 C.ar      1 <0>        -0.1110
     12 C9          5.2899   -0.2831   -1.9789 C.ar      1 <0>        -0.1106
     13 C10         3.9543   -0.5108   -2.2454 C.ar      1 <0>        -0.1127
     14 C11         7.1247    0.5822   -0.5134 C.3       1 <0>        -0.0883
     15 C12         7.6993   -0.6185    0.2410 C.3       1 <0>         0.1074
     16 N1          9.1178   -0.3846    0.5232 N.am      1 <0>        -0.6171
     17 C13         9.5177    0.2774    1.7674 C.3       1 <0>         0.1307
     18 C14         9.7377   -0.7742    2.8567 C.3       1 <0>        -0.1356
     19 C15        10.1554   -0.0828    4.1561 C.3       1 <0>        -0.1165
     20 C16        10.3755   -1.1343    5.2454 C.3       1 <0>        -0.1140
     21 C17        10.7931   -0.4429    6.5448 C.3       1 <0>        -0.0869
     22 C18        12.1537    0.2293    6.3503 C.3       1 <0>        -0.1155
     23 C19        12.5714    0.9207    7.6497 C.3       1 <0>        -0.1206
     24 C20        12.6704   -0.1164    8.7703 C.3       1 <0>        -0.1198
     25 C21        11.3098   -0.7886    8.9647 C.3       1 <0>        -0.1202
     26 C22        10.8921   -1.4800    7.6653 C.3       1 <0>        -0.1153
     27 C23        10.0548   -0.7785   -0.3619 C.2       1 <0>         0.7078
     28 O3         11.2320   -0.5844   -0.1277 O.2       1 <0>        -0.5697
     29 N2          9.6869   -1.3876   -1.5065 N.am      1 <0>        -0.6850
     30 C24        10.6616   -1.8799   -2.3817 C.ar      1 <0>         0.2004
     31 C25        10.4457   -1.8465   -3.7529 C.ar      1 <0>        -0.1378
     32 C26        11.4100   -2.3336   -4.6153 C.ar      1 <0>        -0.0019
     33 C27        12.5898   -2.8541   -4.1131 C.ar      1 <0>        -0.1242
     34 C28        12.8072   -2.8890   -2.7469 C.ar      1 <0>        -0.0032
     35 C29        11.8486   -2.3975   -1.8805 C.ar      1 <0>        -0.1089
     36 Cl1        14.2880   -3.5438   -2.1208 Cl        1 <0>        -0.0540
     37 Cl2        11.1407   -2.2927   -6.3298 Cl        1 <0>        -0.0534
     38 H1         -1.4047    0.8097   -1.4300 H         1 <0>         0.0502
     39 H2         -1.3419   -0.7432   -0.5623 H         1 <0>         0.0552
     40 H3         -1.6090    0.7691    0.3377 H         1 <0>         0.0746
     41 H4          0.3451    2.4607    0.5072 H         1 <0>         0.0689
     42 H5          1.8638    2.0745   -0.3370 H         1 <0>         0.0589
     43 H6          0.3879    2.4152   -1.2717 H         1 <0>         0.0524
     44 H7          2.6184    0.8445    0.5536 H         1 <0>         0.1414
     45 H8          5.0025    1.2347    1.0222 H         1 <0>         0.1154
     46 H9          6.0424   -0.5977   -2.6869 H         1 <0>         0.1144
     47 H10         3.6619   -1.0033   -3.1610 H         1 <0>         0.1190
     48 H11         7.6647    0.7145   -1.4510 H         1 <0>         0.0683
     49 H12         7.2307    1.4792    0.0967 H         1 <0>         0.0759
     50 H13         7.1594   -0.7508    1.1786 H         1 <0>         0.0935
     51 H14         7.5933   -1.5155   -0.3690 H         1 <0>         0.0762
     52 H15        10.4428    0.8301    1.6037 H         1 <0>         0.0855
     53 H16         8.7333    0.9664    2.0807 H         1 <0>         0.0808
     54 H17         8.8126   -1.3269    3.0203 H         1 <0>         0.0647
     55 H18        10.5221   -1.4632    2.5434 H         1 <0>         0.0658
     56 H19        11.0805    0.4700    3.9925 H         1 <0>         0.0656
     57 H20         9.3710    0.6063    4.4694 H         1 <0>         0.0633
     58 H21         9.4503   -1.6871    5.4091 H         1 <0>         0.0623
     59 H22        11.1598   -1.8234    4.9321 H         1 <0>         0.0605
     60 H23        10.0508    0.3096    6.8108 H         1 <0>         0.0696
     61 H24        12.8960   -0.5233    6.0844 H         1 <0>         0.0599
     62 H25        12.0832    0.9681    5.5521 H         1 <0>         0.0643
     63 H26        13.5407    1.3995    7.5112 H         1 <0>         0.0588
     64 H27        11.8290    1.6732    7.9157 H         1 <0>         0.0605
     65 H28        13.4127   -0.8690    8.5043 H         1 <0>         0.0596
     66 H29        12.9679    0.3762    9.6960 H         1 <0>         0.0579
     67 H30        11.3803   -1.5274    9.7630 H         1 <0>         0.0589
     68 H31        10.5674   -0.0361    9.2307 H         1 <0>         0.0608
     69 H32         9.9228   -1.9589    7.8039 H         1 <0>         0.0611
     70 H33        11.6344   -2.2325    7.3994 H         1 <0>         0.0601
     71 H34         8.7465   -1.4846   -1.7237 H         1 <0>         0.4138
     72 H35         9.5250   -1.4407   -4.1453 H         1 <0>         0.1442
     73 H36        13.3419   -3.2341   -4.7885 H         1 <0>         0.1443
     74 H37        12.0207   -2.4205   -0.8146 H         1 <0>         0.1541
@<TRIPOS>BOND
     1    1    2 1
     2    1   38 1
     3    1   39 1
     4    1   40 1
     5    2    3 1
     6    2    4 1
     7    2    7 1
     8    3   41 1
     9    3   42 1
    10    3   43 1
    11    4    5 2
    12    4    6 1
    13    7    8 1
    14    8   13 ar
    15    8    9 ar
    16    9   10 ar
    17    9   44 1
    18   10   11 ar
    19   10   45 1
    20   11   12 ar
    21   11   14 1
    22   12   13 ar
    23   12   46 1
    24   13   47 1
    25   14   15 1
    26   14   48 1
    27   14   49 1
    28   15   16 1
    29   15   50 1
    30   15   51 1
    31   16   17 1
    32   16   27 am
    33   17   18 1
    34   17   52 1
    35   17   53 1
    36   18   19 1
    37   18   54 1
    38   18   55 1
    39   19   20 1
    40   19   56 1
    41   19   57 1
    42   20   21 1
    43   20   58 1
    44   20   59 1
    45   21   26 1
    46   21   22 1
    47   21   60 1
    48   22   23 1
    49   22   61 1
    50   22   62 1
    51   23   24 1
    52   23   63 1
    53   23   64 1
    54   24   25 1
    55   24   65 1
    56   24   66 1
    57   25   26 1
    58   25   67 1
    59   25   68 1
    60   26   69 1
    61   26   70 1
    62   27   28 2
    63   27   29 am
    64   29   30 1
    65   29   71 1
    66   30   35 ar
    67   30   31 ar
    68   31   32 ar
    69   31   72 1
    70   32   33 ar
    71   32   37 1
    72   33   34 ar
    73   33   73 1
    74   34   35 ar
    75   34   36 1
    76   35   74 1
@<TRIPOS>MOLECULE
CHEMBL280897
   78    81     0     0     0
SMALL
USER_CHARGES

@<TRIPOS>ATOM
      1 C1         -1.4579   -0.0905   -0.4585 C.3       1 <0>        -0.1062
      2 C2          0.0278    0.2268   -0.2766 C.3       1 <0>        -0.1195
      3 C3          0.2789    1.6996   -0.6061 C.3       1 <0>        -0.1363
      4 C4          0.4281   -0.0439    1.1509 C.2       1 <0>         0.5010
      5 O1          1.2954   -0.8651    1.3955 O.co2     1 <0>        -0.6639
      6 O2         -0.1153    0.5584    2.0611 O.co2     1 <0>        -0.6826
      7 S1          1.0097   -0.8175   -1.3883 S.3       1 <0>        -0.1196
      8 C5          2.6709   -0.3090   -1.0943 C.ar      1 <0>        -0.0455
      9 C6          2.9554    0.5797   -0.0644 C.ar      1 <0>        -0.0923
     10 C7          4.2584    0.9759    0.1631 C.ar      1 <0>        -0.1041
     11 C8          5.2798    0.4896   -0.6325 C.ar      1 <0>        -0.1082
     12 C9          5.0004   -0.3946   -1.6586 C.ar      1 <0>        -0.1099
     13 C10         3.7005   -0.8001   -1.8881 C.ar      1 <0>        -0.1129
     14 C11         6.7006    0.9245   -0.3811 C.3       1 <0>        -0.0876
     15 C12         7.3601   -0.0361    0.6106 C.3       1 <0>         0.1129
     16 N1          8.7413    0.3867    0.8550 N.am      1 <0>        -0.6265
     17 C13         9.0392    1.3236    1.9412 C.3       1 <0>         0.1404
     18 C14         9.3215    0.5420    3.2258 C.3       1 <0>        -0.0981
     19 C15         9.6280    1.5058    4.3431 C.ar      1 <0>        -0.0729
     20 C16        10.9323    1.9076    4.5681 C.ar      1 <0>        -0.1099
     21 C17        11.2187    2.7901    5.5899 C.ar      1 <0>        -0.1082
     22 C18        10.1910    3.2762    6.3956 C.ar      1 <0>        -0.0547
     23 C19         8.8790    2.8680    6.1644 C.ar      1 <0>        -0.1064
     24 C20         8.6033    1.9896    5.1362 C.ar      1 <0>        -0.1115
     25 C21        10.4929    4.2248    7.4960 C.ar      1 <0>        -0.0403
     26 C22        11.8042    4.6371    7.7238 C.ar      1 <0>        -0.1135
     27 C23        12.0792    5.5200    8.7484 C.ar      1 <0>        -0.1184
     28 C24        11.0559    5.9950    9.5488 C.ar      1 <0>        -0.1230
     29 C25         9.7524    5.5887    9.3274 C.ar      1 <0>        -0.1171
     30 C26         9.4652    4.7110    8.3017 C.ar      1 <0>        -0.1123
     31 C27         9.7379   -0.0863    0.0807 C.2       1 <0>         0.7087
     32 O3         10.8842    0.2646    0.2836 O.2       1 <0>        -0.5919
     33 N2          9.4638   -0.9482   -0.9185 N.am      1 <0>        -0.7433
     34 C28        10.5470   -1.4623   -1.7602 C.3       1 <0>         0.1645
     35 C29        10.8294   -0.4704   -2.8904 C.3       1 <0>        -0.1296
     36 C30        11.9607   -1.0073   -3.7694 C.3       1 <0>        -0.1162
     37 C31        11.5482   -2.3550   -4.3648 C.3       1 <0>        -0.1220
     38 C32        11.2659   -3.3469   -3.2347 C.3       1 <0>        -0.1145
     39 C33        10.1345   -2.8100   -2.3556 C.3       1 <0>        -0.1283
     40 H1         -1.7252    0.0124   -1.5102 H         1 <0>         0.0499
     41 H2         -1.6539   -1.1117   -0.1320 H         1 <0>         0.0554
     42 H3         -2.0528    0.6020    0.1370 H         1 <0>         0.0726
     43 H4         -0.2072    2.3271    0.1409 H         1 <0>         0.0689
     44 H5          1.3512    1.8951   -0.6027 H         1 <0>         0.0597
     45 H6         -0.1285    1.9260   -1.5915 H         1 <0>         0.0521
     46 H7          2.1583    0.9602    0.5570 H         1 <0>         0.1409
     47 H8          4.4802    1.6668    0.9630 H         1 <0>         0.1152
     48 H9          5.8004   -0.7721   -2.2782 H         1 <0>         0.1146
     49 H10         3.4837   -1.4946   -2.6862 H         1 <0>         0.1184
     50 H11         7.2550    0.9150   -1.3195 H         1 <0>         0.0690
     51 H12         6.7041    1.9328    0.0328 H         1 <0>         0.0732
     52 H13         6.8057   -0.0266    1.5490 H         1 <0>         0.0873
     53 H14         7.3566   -1.0445    0.1967 H         1 <0>         0.0753
     54 H15         9.9138    1.9185    1.6781 H         1 <0>         0.0852
     55 H16         8.1851    1.9826    2.0971 H         1 <0>         0.0788
     56 H17         8.4469   -0.0529    3.4888 H         1 <0>         0.0753
     57 H18        10.1757   -0.1170    3.0699 H         1 <0>         0.0772
     58 H19        11.7281    1.5299    3.9432 H         1 <0>         0.1255
     59 H20        12.2374    3.1029    5.7649 H         1 <0>         0.1234
     60 H21         8.0787    3.2415    6.7862 H         1 <0>         0.1252
     61 H22         7.5861    1.6762    4.9532 H         1 <0>         0.1270
     62 H23        12.6040    4.2663    7.0999 H         1 <0>         0.1247
     63 H24        13.0953    5.8402    8.9259 H         1 <0>         0.1227
     64 H25        11.2756    6.6854   10.3497 H         1 <0>         0.1212
     65 H26         8.9573    5.9624    9.9556 H         1 <0>         0.1238
     66 H27         8.4465    4.3978    8.1269 H         1 <0>         0.1262
     67 H28         8.5493   -1.2281   -1.0804 H         1 <0>         0.3972
     68 H29        11.4458   -1.5914   -1.1571 H         1 <0>         0.0861
     69 H30         9.9307   -0.3413   -3.4935 H         1 <0>         0.0625
     70 H31        11.1233    0.4897   -2.4662 H         1 <0>         0.0674
     71 H32        12.1619   -0.3007   -4.5745 H         1 <0>         0.0628
     72 H33        12.8595   -1.1364   -3.1663 H         1 <0>         0.0631
     73 H34        10.6495   -2.2259   -4.9679 H         1 <0>         0.0628
     74 H35        12.3542   -2.7375   -4.9911 H         1 <0>         0.0618
     75 H36        10.9720   -4.3070   -3.6589 H         1 <0>         0.0663
     76 H37        12.1646   -3.4760   -2.6315 H         1 <0>         0.0641
     77 H38         9.9334   -3.5166   -1.5505 H         1 <0>         0.0686
     78 H39         9.2358   -2.6809   -2.9588 H         1 <0>         0.0685
@<TRIPOS>BOND
     1    1    2 1
     2    1   40 1
     3    1   41 1
     4    1   42 1
     5    2    3 1
     6    2    4 1
     7    2    7 1
     8    3   43 1
     9    3   44 1
    10    3   45 1
    11    4    5 2
    12    4    6 1
    13    7    8 1
    14    8   13 ar
    15    8    9 ar
    16    9   10 ar
    17    9   46 1
    18   10   11 ar
    19   10   47 1
    20   11   12 ar
    21   11   14 1
    22   12   13 ar
    23   12   48 1
    24   13   49 1
    25   14   15 1
    26   14   50 1
    27   14   51 1
    28   15   16 1
    29   15   52 1
    30   15   53 1
    31   16   17 1
    32   16   31 am
    33   17   18 1
    34   17   54 1
    35   17   55 1
    36   18   19 1
    37   18   56 1
    38   18   57 1
    39   19   24 ar
    40   19   20 ar
    41   20   21 ar
    42   20   58 1
    43   21   22 ar
    44   21   59 1
    45   22   23 ar
    46   22   25 1
    47   23   24 ar
    48   23   60 1
    49   24   61 1
    50   25   30 ar
    51   25   26 ar
    52   26   27 ar
    53   26   62 1
    54   27   28 ar
    55   27   63 1
    56   28   29 ar
    57   28   64 1
    58   29   30 ar
    59   29   65 1
    60   30   66 1
    61   31   32 2
    62   31   33 am
    63   33   34 1
    64   33   67 1
    65   34   39 1
    66   34   35 1
    67   34   68 1
    68   35   36 1
    69   35   69 1
    70   35   70 1
    71   36   37 1
    72   36   71 1
    73   36   72 1
    74   37   38 1
    75   37   73 1
    76   37   74 1
    77   38   39 1
    78   38   75 1
    79   38   76 1
    80   39   77 1
    81   39   78 1
@<TRIPOS>MOLECULE
CHEMBL205777
   61    63     0     0     0
SMALL
USER_CHARGES

@<TRIPOS>ATOM
      1 C1         -0.0187    1.5258    0.0104 C.3       1 <0>        -0.1592
      2 C2          0.0021   -0.0041    0.0020 C.3       1 <0>        -0.0844
      3 C3          0.7182   -0.4975   -1.2568 C.3       1 <0>        -0.1318
      4 C4          2.1536    0.0321   -1.2676 C.3       1 <0>        -0.1212
      5 C5          0.7390   -2.0273   -1.2652 C.3       1 <0>        -0.0524
      6 C6          1.4443   -2.5133   -2.5051 C.ar      1 <0>        -0.0835
      7 C7          0.7251   -2.7414   -3.6637 C.ar      1 <0>        -0.0006
      8 C8          1.3693   -3.1874   -4.8015 C.ar      1 <0>        -0.1537
      9 C9          2.7391   -3.4059   -4.7810 C.ar      1 <0>         0.1116
     10 C10         3.4586   -3.1759   -3.6174 C.ar      1 <0>        -0.2229
     11 C11         2.8105   -2.7250   -2.4837 C.ar      1 <0>        -0.0836
     12 O1          3.3751   -3.8450   -5.8989 O.3       1 <0>        -0.3176
     13 C12         4.7864   -4.0484   -5.8048 C.3       1 <0>         0.0672
     14 C13         5.3218   -4.5395   -7.1513 C.3       1 <0>        -0.1199
     15 C14         6.8329   -4.7571   -7.0506 C.3       1 <0>         0.0590
     16 O2          7.3329   -5.2158   -8.3082 O.3       1 <0>        -0.2931
     17 C15         8.6660   -5.4589   -8.3898 C.ar      1 <0>         0.1984
     18 C16         9.4740   -5.2625   -7.2713 C.ar      1 <0>        -0.2120
     19 C17        10.8158   -5.5020   -7.3374 C.ar      1 <0>        -0.0181
     20 C18        11.3845   -5.9483   -8.5359 C.ar      1 <0>        -0.1802
     21 C19        12.8210   -6.2140   -8.6360 C.2       1 <0>        -0.0561
     22 C20        13.3125   -6.6457   -9.8266 C.2       1 <0>        -0.1827
     23 C21        12.4418   -6.8251  -10.9211 C.2       1 <0>         0.5152
     24 O3         12.8955   -7.2127  -11.9829 O.2       1 <0>        -0.4404
     25 O4         11.1258   -6.5802  -10.8227 O.3       1 <0>        -0.2562
     26 C22        10.5736   -6.1488   -9.6685 C.ar      1 <0>         0.1920
     27 C23         9.2110   -5.9055   -9.5823 C.ar      1 <0>        -0.1329
     28 C24         8.3272   -6.1204  -10.7838 C.3       1 <0>        -0.1030
     29 C25        13.7297   -6.0135   -7.4506 C.3       1 <0>         0.5098
     30 F1         15.0429   -6.3354   -7.8098 F         1 <0>        -0.1655
     31 F2         13.6727   -4.6773   -7.0401 F         1 <0>        -0.1632
     32 F3         13.3169   -6.8417   -6.4013 F         1 <0>        -0.1636
     33 C26        -0.0107    0.0017   -2.4777 C.2       1 <0>         0.5024
     34 O5         -1.0102    0.6885   -2.3526 O.co2     1 <0>        -0.6937
     35 O6          0.3993   -0.2812   -3.5905 O.co2     1 <0>        -0.6801
     36 H1          1.0039    1.9031    0.0027 H         1 <0>         0.0360
     37 H2         -0.5459    1.8868   -0.8726 H         1 <0>         0.0954
     38 H3         -0.5289    1.8773    0.9072 H         1 <0>         0.0295
     39 H4          0.5293   -0.3651    0.8851 H         1 <0>         0.0330
     40 H5         -1.0205   -0.3814    0.0098 H         1 <0>         0.0536
     41 H6          2.6808   -0.3290   -0.3846 H         1 <0>         0.0330
     42 H7          2.6638   -0.3194   -2.1644 H         1 <0>         0.0586
     43 H8          2.1388    1.1220   -1.2617 H         1 <0>         0.0452
     44 H9          1.2661   -2.3884   -0.3821 H         1 <0>         0.0544
     45 H10        -0.2836   -2.4046   -1.2575 H         1 <0>         0.0597
     46 H11        -0.3413   -2.5711   -3.6791 H         1 <0>         0.1216
     47 H12         0.8069   -3.3660   -5.7060 H         1 <0>         0.1195
     48 H13         4.5251   -3.3453   -3.5989 H         1 <0>         0.1137
     49 H14         3.3708   -2.5416   -1.5789 H         1 <0>         0.1127
     50 H15         5.2721   -3.1087   -5.5415 H         1 <0>         0.0626
     51 H16         4.9958   -4.7932   -5.0370 H         1 <0>         0.0613
     52 H17         4.8361   -5.4791   -7.4146 H         1 <0>         0.0874
     53 H18         5.1124   -3.7946   -7.9191 H         1 <0>         0.0887
     54 H19         7.3186   -3.8175   -6.7873 H         1 <0>         0.0748
     55 H20         7.0423   -5.5020   -6.2828 H         1 <0>         0.0739
     56 H21         9.0354   -4.9182   -6.3464 H         1 <0>         0.1486
     57 H22        11.4371   -5.3474   -6.4676 H         1 <0>         0.1421
     58 H23        14.3674   -6.8507   -9.9346 H         1 <0>         0.1804
     59 H24         8.2737   -5.1997  -11.3648 H         1 <0>         0.0763
     60 H25         8.7419   -6.9166  -11.4021 H         1 <0>         0.0739
     61 H26         7.3269   -6.4004  -10.4536 H         1 <0>         0.0802
@<TRIPOS>BOND
     1    1    2 1
     2    1   36 1
     3    1   37 1
     4    1   38 1
     5    2    3 1
     6    2   39 1
     7    2   40 1
     8    3    4 1
     9    3    5 1
    10    3   33 1
    11    4   41 1
    12    4   42 1
    13    4   43 1
    14    5    6 1
    15    5   44 1
    16    5   45 1
    17    6   11 ar
    18    6    7 ar
    19    7    8 ar
    20    7   46 1
    21    8    9 ar
    22    8   47 1
    23    9   10 ar
    24    9   12 1
    25   10   11 ar
    26   10   48 1
    27   11   49 1
    28   12   13 1
    29   13   14 1
    30   13   50 1
    31   13   51 1
    32   14   15 1
    33   14   52 1
    34   14   53 1
    35   15   16 1
    36   15   54 1
    37   15   55 1
    38   16   17 1
    39   17   27 ar
    40   17   18 ar
    41   18   19 ar
    42   18   56 1
    43   19   20 ar
    44   19   57 1
    45   20   26 ar
    46   20   21 1
    47   21   22 2
    48   21   29 1
    49   22   23 1
    50   22   58 1
    51   23   24 2
    52   23   25 1
    53   25   26 1
    54   26   27 ar
    55   27   28 1
    56   28   59 1
    57   28   60 1
    58   28   61 1
    59   29   30 1
    60   29   31 1
    61   29   32 1
    62   33   34 2
    63   33   35 1
@<TRIPOS>MOLECULE
CHEMBL592234
   63    65     0     0     0
SMALL
USER_CHARGES

@<TRIPOS>ATOM
      1 C1         -0.9123    1.5660    0.0723 C.3       1 <0>        -0.1489
      2 C2         -1.1523    0.0783    0.0826 C.2       1 <0>         0.1707
      3 N1         -1.1115   -0.5757    1.1977 N.2       1 <0>        -0.3382
      4 O1         -0.8413    0.1063    2.4089 O.3       1 <0>        -0.2339
      5 C3         -0.8266   -0.7390    3.5610 C.3       1 <0>         0.0775
      6 C4         -0.5267    0.0997    4.8050 C.3       1 <0>        -0.1118
      7 C5         -0.5110   -0.8053    6.0386 C.3       1 <0>        -0.1106
      8 C6         -0.2110    0.0334    7.2826 C.3       1 <0>         0.0757
      9 O2         -0.1964   -0.8119    8.4347 O.3       1 <0>        -0.2446
     10 N2          0.0738   -0.1299    9.6459 N.2       1 <0>        -0.3397
     11 C7          0.1146   -0.7838   10.7610 C.2       1 <0>         0.1881
     12 C8          0.2555   -0.0417   12.0650 C.3       1 <0>        -0.0402
     13 C9         -1.1328    0.2982   12.6109 C.3       1 <0>        -0.1751
     14 C10        -0.9919    1.0404   13.9149 C.2       1 <0>         0.4936
     15 O3          0.1162    1.2756   14.3658 O.co2     1 <0>        -0.6953
     16 O4         -1.9860    1.4055   14.5190 O.co2     1 <0>        -0.7019
     17 C11         0.0232   -2.2574   10.7564 C.ar      1 <0>        -0.0908
     18 C12         0.6223   -2.9939    9.7327 C.ar      1 <0>        -0.0790
     19 C13         0.5329   -4.3706    9.7345 C.ar      1 <0>        -0.1308
     20 C14        -0.1488   -5.0214   10.7474 C.ar      1 <0>        -0.1116
     21 C15        -0.7448   -4.2977   11.7649 C.ar      1 <0>        -0.1266
     22 C16        -0.6578   -2.9209   11.7787 C.ar      1 <0>        -0.0872
     23 C17        -1.4340   -0.6328   -1.1803 C.ar      1 <0>        -0.0530
     24 C18        -1.4738    0.0667   -2.3882 C.ar      1 <0>        -0.0922
     25 C19        -1.7406   -0.6093   -3.5570 C.ar      1 <0>        -0.1239
     26 C20        -1.9695   -1.9810   -3.5490 C.ar      1 <0>        -0.0607
     27 C21        -1.9265   -2.6782   -2.3607 C.ar      1 <0>        -0.0807
     28 C22        -1.6567   -2.0079   -1.1774 C.ar      1 <0>        -0.0789
     29 C23        -2.1494   -4.1663   -2.2855 C.3       1 <0>        -0.0824
     30 C24        -2.8372   -4.6716   -3.5518 C.3       1 <0>        -0.1206
     31 C25        -2.0546   -4.1570   -4.7656 C.3       1 <0>        -0.1211
     32 C26        -2.2628   -2.6475   -4.8682 C.3       1 <0>        -0.0835
     33 H1          0.1515    1.7615   -0.0627 H         1 <0>         0.0840
     34 H2         -1.4717    2.0186   -0.7464 H         1 <0>         0.0786
     35 H3         -1.2431    1.9939    1.0187 H         1 <0>         0.0815
     36 H4         -1.7990   -1.2187    3.6720 H         1 <0>         0.0580
     37 H5         -0.0567   -1.5014    3.4425 H         1 <0>         0.0577
     38 H6          0.4457    0.5795    4.6940 H         1 <0>         0.0750
     39 H7         -1.2966    0.8621    4.9235 H         1 <0>         0.0756
     40 H8         -1.4834   -1.2851    6.1496 H         1 <0>         0.0741
     41 H9          0.2589   -1.5677    5.9201 H         1 <0>         0.0728
     42 H10         0.7614    0.5132    7.1715 H         1 <0>         0.0541
     43 H11        -0.9810    0.7958    7.4011 H         1 <0>         0.0557
     44 H12         0.7854   -0.6670   12.7835 H         1 <0>         0.0891
     45 H13         0.8166    0.8782   11.9007 H         1 <0>         0.0872
     46 H14        -1.6626    0.9236   11.8924 H         1 <0>         0.0621
     47 H15        -1.6938   -0.6217   12.7752 H         1 <0>         0.0607
     48 H16         1.1541   -2.4871    8.9411 H         1 <0>         0.1253
     49 H17         0.9959   -4.9416    8.9433 H         1 <0>         0.1204
     50 H18        -0.2163   -6.0993   10.7437 H         1 <0>         0.1198
     51 H19        -1.2757   -4.8119   12.5523 H         1 <0>         0.1247
     52 H20        -1.1194   -2.3574   12.5761 H         1 <0>         0.1350
     53 H21        -1.2966    1.1319   -2.4052 H         1 <0>         0.1312
     54 H22        -1.7728   -0.0682   -4.4911 H         1 <0>         0.1266
     55 H23        -1.6233   -2.5548   -0.2467 H         1 <0>         0.1315
     56 H24        -1.1883   -4.6683   -2.1738 H         1 <0>         0.0772
     57 H25        -2.7748   -4.3927   -1.4220 H         1 <0>         0.0760
     58 H26        -2.8450   -5.7616   -3.5554 H         1 <0>         0.0687
     59 H27        -3.8600   -4.2966   -3.5886 H         1 <0>         0.0661
     60 H28        -0.9940   -4.3733   -4.6372 H         1 <0>         0.0662
     61 H29        -2.4215   -4.6405   -5.6710 H         1 <0>         0.0683
     62 H30        -3.2959   -2.4457   -5.1510 H         1 <0>         0.0781
     63 H31        -1.5967   -2.2438   -5.6307 H         1 <0>         0.0761
@<TRIPOS>BOND
     1    1    2 1
     2    1   33 1
     3    1   34 1
     4    1   35 1
     5    2    3 2
     6    2   23 1
     7    3    4 1
     8    4    5 1
     9    5    6 1
    10    5   36 1
    11    5   37 1
    12    6    7 1
    13    6   38 1
    14    6   39 1
    15    7    8 1
    16    7   40 1
    17    7   41 1
    18    8    9 1
    19    8   42 1
    20    8   43 1
    21    9   10 1
    22   10   11 2
    23   11   12 1
    24   11   17 1
    25   12   13 1
    26   12   44 1
    27   12   45 1
    28   13   14 1
    29   13   46 1
    30   13   47 1
    31   14   15 2
    32   14   16 1
    33   17   22 ar
    34   17   18 ar
    35   18   19 ar
    36   18   48 1
    37   19   20 ar
    38   19   49 1
    39   20   21 ar
    40   20   50 1
    41   21   22 ar
    42   21   51 1
    43   22   52 1
    44   23   28 ar
    45   23   24 ar
    46   24   25 ar
    47   24   53 1
    48   25   26 ar
    49   25   54 1
    50   26   32 1
    51   26   27 ar
    52   27   28 ar
    53   27   29 1
    54   28   55 1
    55   29   30 1
    56   29   56 1
    57   29   57 1
    58   30   31 1
    59   30   58 1
    60   30   59 1
    61   31   32 1
    62   31   60 1
    63   31   61 1
    64   32   62 1
    65   32   63 1
@<TRIPOS>MOLECULE
CHEMBL592236
   59    60     0     0     0
SMALL
USER_CHARGES

@<TRIPOS>ATOM
      1 C1          2.2262    1.3202   -0.1015 C.3       1 <0>        -0.1198
      2 C2          1.9612   -0.1633   -0.0955 C.ar      1 <0>        -0.0712
      3 C3          1.7260   -0.8257   -1.2875 C.ar      1 <0>        -0.1210
      4 C4          1.4828   -2.1834   -1.2892 C.ar      1 <0>        -0.0920
      5 C5          1.4747   -2.8895   -0.0846 C.ar      1 <0>        -0.0533
      6 C6          1.7131   -2.2151    1.1141 C.ar      1 <0>        -0.0765
      7 C7          1.9598   -0.8576    1.1009 C.ar      1 <0>        -0.0920
      8 C8          2.2226   -0.1287    2.3935 C.3       1 <0>        -0.1175
      9 C9          1.2145   -4.3429   -0.0787 C.2       1 <0>         0.1703
     10 N1          1.2077   -4.9940    1.0387 N.2       1 <0>        -0.3380
     11 O1          0.9582   -6.3879    1.0444 O.3       1 <0>        -0.2339
     12 C10         0.9806   -6.9771    2.3460 C.3       1 <0>         0.0775
     13 C11         0.7003   -8.4768    2.2319 C.3       1 <0>        -0.1118
     14 C12         0.7243   -9.1077    3.6256 C.3       1 <0>        -0.1106
     15 C13         0.4441  -10.6075    3.5114 C.3       1 <0>         0.0757
     16 O2          0.4665  -11.1966    4.8131 O.3       1 <0>        -0.2446
     17 N2          0.2170  -12.5905    4.8188 N.2       1 <0>        -0.3397
     18 C14         0.2101  -13.2417    5.9362 C.2       1 <0>         0.1881
     19 C15         0.0914  -14.7440    5.9321 C.3       1 <0>        -0.0402
     20 C16         1.4881  -15.3658    5.8734 C.3       1 <0>        -0.1752
     21 C17         1.3694  -16.8681    5.8694 C.2       1 <0>         0.4938
     22 O3          0.2696  -17.3928    5.9096 O.co2     1 <0>        -0.6954
     23 O4          2.3731  -17.5588    5.8258 O.co2     1 <0>        -0.7019
     24 C18         0.3186  -12.5132    7.2158 C.ar      1 <0>        -0.0908
     25 C19        -0.2958  -11.2689    7.3686 C.ar      1 <0>        -0.0790
     26 C20        -0.1904  -10.5936    8.5669 C.ar      1 <0>        -0.1308
     27 C21         0.5226  -11.1465    9.6158 C.ar      1 <0>        -0.1116
     28 C22         1.1339  -12.3793    9.4712 C.ar      1 <0>        -0.1266
     29 C23         1.0313  -13.0682    8.2804 C.ar      1 <0>        -0.0872
     30 C24         0.9570   -5.0675   -1.3747 C.3       1 <0>        -0.1490
     31 H1          3.2966    1.4977   -0.2064 H         1 <0>         0.0730
     32 H2          1.6981    1.7803   -0.9367 H         1 <0>         0.0679
     33 H3          1.8757    1.7557    0.8342 H         1 <0>         0.0704
     34 H4          1.7326   -0.2784   -2.2185 H         1 <0>         0.1279
     35 H5          1.2987   -2.6991   -2.2201 H         1 <0>         0.1312
     36 H6          1.7079   -2.7552    2.0493 H         1 <0>         0.1325
     37 H7          1.2795    0.2269    2.8083 H         1 <0>         0.0717
     38 H8          2.6989   -0.8061    3.1023 H         1 <0>         0.0681
     39 H9          2.8796    0.7203    2.2047 H         1 <0>         0.0698
     40 H10         1.9609   -6.8240    2.7974 H         1 <0>         0.0582
     41 H11         0.2171   -6.5111    2.9689 H         1 <0>         0.0575
     42 H12        -0.2799   -8.6300    1.7806 H         1 <0>         0.0749
     43 H13         1.4639   -8.9428    1.6090 H         1 <0>         0.0757
     44 H14         1.7046   -8.9546    4.0769 H         1 <0>         0.0741
     45 H15        -0.0392   -8.6417    4.2485 H         1 <0>         0.0729
     46 H16        -0.5362  -10.7606    3.0601 H         1 <0>         0.0541
     47 H17         1.2076  -11.0734    2.8885 H         1 <0>         0.0557
     48 H18        -0.4140  -15.0710    6.8408 H         1 <0>         0.0891
     49 H19        -0.4841  -15.0606    5.0622 H         1 <0>         0.0872
     50 H20         1.9935  -15.0388    4.9648 H         1 <0>         0.0622
     51 H21         2.0636  -15.0492    6.7433 H         1 <0>         0.0607
     52 H22        -0.8520  -10.8358    6.5504 H         1 <0>         0.1253
     53 H23        -0.6652   -9.6309    8.6864 H         1 <0>         0.1204
     54 H24         0.6026  -10.6133   10.5516 H         1 <0>         0.1198
     55 H25         1.6893  -12.8051   10.2938 H         1 <0>         0.1247
     56 H26         1.5049  -14.0325    8.1704 H         1 <0>         0.1350
     57 H27         1.9017   -5.4228   -1.7862 H         1 <0>         0.0843
     58 H28         0.2983   -5.9164   -1.1916 H         1 <0>         0.0814
     59 H29         0.4848   -4.3874   -2.0836 H         1 <0>         0.0786
@<TRIPOS>BOND
     1    1    2 1
     2    1   31 1
     3    1   32 1
     4    1   33 1
     5    2    7 ar
     6    2    3 ar
     7    3    4 ar
     8    3   34 1
     9    4    5 ar
    10    4   35 1
    11    5    6 ar
    12    5    9 1
    13    6    7 ar
    14    6   36 1
    15    7    8 1
    16    8   37 1
    17    8   38 1
    18    8   39 1
    19    9   10 2
    20    9   30 1
    21   10   11 1
    22   11   12 1
    23   12   13 1
    24   12   40 1
    25   12   41 1
    26   13   14 1
    27   13   42 1
    28   13   43 1
    29   14   15 1
    30   14   44 1
    31   14   45 1
    32   15   16 1
    33   15   46 1
    34   15   47 1
    35   16   17 1
    36   17   18 2
    37   18   19 1
    38   18   24 1
    39   19   20 1
    40   19   48 1
    41   19   49 1
    42   20   21 1
    43   20   50 1
    44   20   51 1
    45   21   22 2
    46   21   23 1
    47   24   29 ar
    48   24   25 ar
    49   25   26 ar
    50   25   52 1
    51   26   27 ar
    52   26   53 1
    53   27   28 ar
    54   27   54 1
    55   28   29 ar
    56   28   55 1
    57   29   56 1
    58   30   57 1
    59   30   58 1
    60   30   59 1
@<TRIPOS>MOLECULE
CHEMBL210917
   54    57     0     0     0
SMALL
USER_CHARGES

@<TRIPOS>ATOM
      1 C1         -0.0187    1.5258    0.0104 C.3       1 <0>        -0.1526
      2 C2          0.0021   -0.0041    0.0020 C.3       1 <0>        -0.1162
      3 C3          0.7421   -0.5109    1.2415 C.3       1 <0>        -0.0711
      4 C4          0.7625   -2.0177    1.2333 C.ar      1 <0>        -0.1221
      5 C5         -0.2618   -2.7295    1.8327 C.ar      1 <0>         0.2028
      6 C6         -0.2503   -4.1223    1.8294 C.ar      1 <0>        -0.2162
      7 C7          0.7717   -4.8044    1.2346 C.ar      1 <0>         0.0007
      8 C8          1.8143   -4.1024    0.6239 C.ar      1 <0>        -0.2143
      9 C9          1.8057   -2.6968    0.6194 C.ar      1 <0>         0.1312
     10 O1          2.9142   -2.2956   -0.0353 O.3       1 <0>        -0.0555
     11 N1          3.6416   -3.4301   -0.4619 N.2       1 <0>        -0.2266
     12 C10         3.0298   -4.5107   -0.0846 C.2       1 <0>         0.0478
     13 C11         3.4787   -5.9260   -0.3428 C.3       1 <0>         0.5558
     14 F1          2.9526   -6.3671   -1.5617 F         1 <0>        -0.1562
     15 F2          4.8760   -5.9698   -0.3949 F         1 <0>        -0.1567
     16 F3          3.0242   -6.7548    0.6885 F         1 <0>        -0.1551
     17 O2         -1.2855   -2.0651    2.4291 O.3       1 <0>        -0.2924
     18 C12        -2.3113   -2.8583    3.0296 C.3       1 <0>         0.0606
     19 C13        -3.3699   -1.9415    3.6458 C.3       1 <0>        -0.1424
     20 C14        -4.4682   -2.7907    4.2888 C.3       1 <0>         0.1549
     21 N2         -5.4818   -1.9128    4.8788 N.pl3     1 <0>        -0.4148
     22 C15        -5.4663   -1.4301    6.1613 C.ar      1 <0>         0.1132
     23 C16        -4.5942   -1.5777    7.2373 C.ar      1 <0>        -0.1473
     24 C17        -4.8623   -0.9505    8.4207 C.ar      1 <0>        -0.0524
     25 C18        -5.9981   -0.1634    8.5679 C.ar      1 <0>        -0.0551
     26 C19        -6.8705   -0.0010    7.5312 C.ar      1 <0>        -0.0441
     27 C20        -6.6177   -0.6329    6.3084 C.ar      1 <0>        -0.1720
     28 C21        -7.3138   -0.6775    5.0266 C.2       1 <0>         0.0759
     29 N3         -6.6175   -1.4282    4.2217 N.2       1 <0>        -0.2650
     30 C22        -6.2691    0.5170    9.8849 C.3       1 <0>        -0.1544
     31 C23        -5.6279    1.8808    9.8871 C.2       1 <0>         0.4949
     32 O3         -5.0084    2.2647    8.9098 O.co2     1 <0>        -0.6871
     33 O4         -5.7288    2.6002   10.8663 O.co2     1 <0>        -0.7036
     34 H1          1.0039    1.9031    0.0027 H         1 <0>         0.0545
     35 H2         -0.5459    1.8868   -0.8726 H         1 <0>         0.0550
     36 H3         -0.5289    1.8773    0.9072 H         1 <0>         0.0583
     37 H4         -1.0205   -0.3814    0.0098 H         1 <0>         0.0647
     38 H5          0.5123   -0.3556   -0.8948 H         1 <0>         0.0587
     39 H6          1.7647   -0.1336    1.2338 H         1 <0>         0.0757
     40 H7          0.2319   -0.1594    2.1383 H         1 <0>         0.0872
     41 H8         -1.0553   -4.6663    2.3009 H         1 <0>         0.1487
     42 H9          0.7747   -5.8844    1.2363 H         1 <0>         0.1442
     43 H10        -2.7742   -3.4889    2.2706 H         1 <0>         0.0726
     44 H11        -1.8767   -3.4858    3.8077 H         1 <0>         0.0728
     45 H12        -2.9070   -1.3108    4.4049 H         1 <0>         0.0853
     46 H13        -3.8045   -1.3139    2.8677 H         1 <0>         0.0854
     47 H14        -4.9311   -3.4213    3.5298 H         1 <0>         0.0918
     48 H15        -4.0336   -3.4182    5.0669 H         1 <0>         0.0898
     49 H16        -3.7082   -2.1869    7.1362 H         1 <0>         0.1162
     50 H17        -4.1835   -1.0681    9.2524 H         1 <0>         0.1230
     51 H18        -7.7514    0.6118    7.6538 H         1 <0>         0.1214
     52 H19        -8.2389   -0.1744    4.7870 H         1 <0>         0.1924
     53 H20        -7.3449    0.6210   10.0256 H         1 <0>         0.0691
     54 H21        -5.8529   -0.0814   10.6954 H         1 <0>         0.0684
@<TRIPOS>BOND
     1    1    2 1
     2    1   34 1
     3    1   35 1
     4    1   36 1
     5    2    3 1
     6    2   37 1
     7    2   38 1
     8    3    4 1
     9    3   39 1
    10    3   40 1
    11    4    9 ar
    12    4    5 ar
    13    5    6 ar
    14    5   17 1
    15    6    7 ar
    16    6   41 1
    17    7    8 ar
    18    7   42 1
    19    8   12 1
    20    8    9 ar
    21    9   10 1
    22   10   11 1
    23   11   12 2
    24   12   13 1
    25   13   14 1
    26   13   15 1
    27   13   16 1
    28   17   18 1
    29   18   19 1
    30   18   43 1
    31   18   44 1
    32   19   20 1
    33   19   45 1
    34   19   46 1
    35   20   21 1
    36   20   47 1
    37   20   48 1
    38   21   29 1
    39   21   22 1
    40   22   27 ar
    41   22   23 ar
    42   23   24 ar
    43   23   49 1
    44   24   25 ar
    45   24   50 1
    46   25   26 ar
    47   25   30 1
    48   26   27 ar
    49   26   51 1
    50   27   28 1
    51   28   29 2
    52   28   52 1
    53   30   31 1
    54   30   53 1
    55   30   54 1
    56   31   32 2
    57   31   33 1
@<TRIPOS>MOLECULE
CHEMBL366207
   58    60     0     0     0
SMALL
USER_CHARGES

@<TRIPOS>ATOM
      1 C1          3.3736    0.9732    1.5629 C.3       1 <0>        -0.1531
      2 C2          2.5698   -0.2282    1.0611 C.3       1 <0>        -0.1134
      3 C3          1.1065    0.1785    0.8763 C.3       1 <0>        -0.0897
      4 C4          0.3149   -1.0047    0.3821 C.ar      1 <0>        -0.1102
      5 C5          0.1020   -1.1740   -0.9673 C.ar      1 <0>        -0.0731
      6 C6         -0.6325   -2.2727   -1.4248 C.ar      1 <0>        -0.1797
      7 C7         -1.1475   -3.1950   -0.5083 C.ar      1 <0>        -0.0509
      8 C8         -0.9298   -3.0180    0.8393 C.ar      1 <0>        -0.1066
      9 C9         -0.1945   -1.9270    1.2894 C.ar      1 <0>         0.1472
     10 O1          0.0221   -1.7591    2.6184 O.3       1 <0>        -0.2982
     11 C10        -1.0119   -1.1184    3.3684 C.3       1 <0>         0.0680
     12 C11        -0.5885    0.2874    3.7083 C.ar      1 <0>        -0.0695
     13 C12         0.7395    0.5640    3.9743 C.ar      1 <0>        -0.0915
     14 C13         1.1278    1.8535    4.2861 C.ar      1 <0>        -0.1283
     15 C14         0.1882    2.8665    4.3315 C.ar      1 <0>        -0.1311
     16 C15        -1.1396    2.5900    4.0646 C.ar      1 <0>        -0.1250
     17 C16        -1.5273    1.3013    3.7486 C.ar      1 <0>        -0.1048
     18 C17        -1.2618   -1.8890    4.6392 C.2       1 <0>         0.5094
     19 O2         -0.5370   -2.8225    4.9386 O.co2     1 <0>        -0.6638
     20 O3         -2.1888   -1.5788    5.3679 O.co2     1 <0>        -0.6808
     21 C18        -1.4843   -4.0111    1.8279 C.3       1 <0>        -0.0914
     22 C19        -2.9614   -3.7054    2.0840 C.3       1 <0>        -0.1135
     23 C20        -3.5436   -4.7579    3.0296 C.3       1 <0>        -0.1477
     24 C21        -0.8636   -2.4580   -2.8696 C.2       1 <0>         0.4427
     25 O4         -1.7682   -3.1738   -3.2537 O.2       1 <0>        -0.4538
     26 C22         0.0044   -1.7736   -3.8505 C.ar      1 <0>        -0.1534
     27 C23         1.3127   -1.4259   -3.5070 C.ar      1 <0>        -0.0780
     28 C24         2.1175   -0.7877   -4.4276 C.ar      1 <0>        -0.1307
     29 C25         1.6312   -0.4914   -5.6888 C.ar      1 <0>        -0.0950
     30 C26         0.3358   -0.8329   -6.0358 C.ar      1 <0>        -0.1321
     31 C27        -0.4780   -1.4766   -5.1270 C.ar      1 <0>        -0.0669
     32 H1          4.4161    0.6834    1.6946 H         1 <0>         0.0509
     33 H2          3.3105    1.7821    0.8350 H         1 <0>         0.0488
     34 H3          2.9668    1.3098    2.5164 H         1 <0>         0.0607
     35 H4          2.9766   -0.5648    0.1076 H         1 <0>         0.0546
     36 H5          2.6329   -1.0371    1.7890 H         1 <0>         0.0697
     37 H6          0.6997    0.5152    1.8298 H         1 <0>         0.0949
     38 H7          1.0434    0.9875    0.1484 H         1 <0>         0.0633
     39 H8          0.5012   -0.4592   -1.6716 H         1 <0>         0.1327
     40 H9         -1.7155   -4.0447   -0.8573 H         1 <0>         0.1315
     41 H10        -1.9260   -1.0893    2.7754 H         1 <0>         0.0660
     42 H11         1.4736   -0.2274    3.9388 H         1 <0>         0.1263
     43 H12         2.1653    2.0696    4.4946 H         1 <0>         0.1165
     44 H13         0.4915    3.8738    4.5758 H         1 <0>         0.1143
     45 H14        -1.8737    3.3813    4.1004 H         1 <0>         0.1163
     46 H15        -2.5641    1.0859    3.5365 H         1 <0>         0.1178
     47 H16        -1.3865   -5.0189    1.4242 H         1 <0>         0.0679
     48 H17        -0.9308   -3.9394    2.7642 H         1 <0>         0.1060
     49 H18        -3.0550   -2.7184    2.5369 H         1 <0>         0.0621
     50 H19        -3.5055   -3.7249    1.1396 H         1 <0>         0.0525
     51 H20        -3.3738   -5.7519    2.6158 H         1 <0>         0.0477
     52 H21        -3.0572   -4.6813    4.0021 H         1 <0>         0.0654
     53 H22        -4.6144   -4.5903    3.1448 H         1 <0>         0.0491
     54 H23         1.6933   -1.6560   -2.5228 H         1 <0>         0.1377
     55 H24         3.1294   -0.5183   -4.1634 H         1 <0>         0.1289
     56 H25         2.2654    0.0091   -6.4055 H         1 <0>         0.1254
     57 H26        -0.0375   -0.5984   -7.0217 H         1 <0>         0.1274
     58 H27        -1.4873   -1.7466   -5.4006 H         1 <0>         0.1307
@<TRIPOS>BOND
     1    1    2 1
     2    1   32 1
     3    1   33 1
     4    1   34 1
     5    2    3 1
     6    2   35 1
     7    2   36 1
     8    3    4 1
     9    3   37 1
    10    3   38 1
    11    4    9 ar
    12    4    5 ar
    13    5    6 ar
    14    5   39 1
    15    6    7 ar
    16    6   24 1
    17    7    8 ar
    18    7   40 1
    19    8    9 ar
    20    8   21 1
    21    9   10 1
    22   10   11 1
    23   11   12 1
    24   11   18 1
    25   11   41 1
    26   12   17 ar
    27   12   13 ar
    28   13   14 ar
    29   13   42 1
    30   14   15 ar
    31   14   43 1
    32   15   16 ar
    33   15   44 1
    34   16   17 ar
    35   16   45 1
    36   17   46 1
    37   18   19 2
    38   18   20 1
    39   21   22 1
    40   21   47 1
    41   21   48 1
    42   22   23 1
    43   22   49 1
    44   22   50 1
    45   23   51 1
    46   23   52 1
    47   23   53 1
    48   24   25 2
    49   24   26 1
    50   26   31 ar
    51   26   27 ar
    52   27   28 ar
    53   27   54 1
    54   28   29 ar
    55   28   55 1
    56   29   30 ar
    57   29   56 1
    58   30   31 ar
    59   30   57 1
    60   31   58 1
@<TRIPOS>MOLECULE
CHEMBL366207__1
   58    60     0     0     0
SMALL
USER_CHARGES

@<TRIPOS>ATOM
      1 C1         -0.8276   -3.5460   -2.1391 C.3       1 <0>        -0.1430
      2 C2         -0.8059   -4.3706   -0.8505 C.3       1 <0>        -0.1040
      3 C3         -2.1492   -4.2292   -0.1319 C.3       1 <0>        -0.0779
      4 C4         -2.0937   -4.9598    1.1851 C.ar      1 <0>        -0.1143
      5 C5         -2.7207   -6.1775    1.3224 C.ar      1 <0>        -0.0704
      6 C6         -2.6682   -6.8548    2.5449 C.ar      1 <0>        -0.1820
      7 C7         -1.9782   -6.2911    3.6229 C.ar      1 <0>        -0.0508
      8 C8         -1.3541   -5.0729    3.4767 C.ar      1 <0>        -0.1104
      9 C9         -1.4044   -4.4055    2.2579 C.ar      1 <0>         0.1516
     10 O1         -0.7834   -3.2073    2.1166 O.3       1 <0>        -0.2959
     11 C10        -1.6133   -2.0441    2.1032 C.3       1 <0>         0.0669
     12 C11        -1.4274   -1.2795    3.3885 C.ar      1 <0>        -0.0608
     13 C12        -0.1659   -1.1480    3.9382 C.ar      1 <0>        -0.0903
     14 C13         0.0046   -0.4467    5.1171 C.ar      1 <0>        -0.1240
     15 C14        -1.0863    0.1235    5.7461 C.ar      1 <0>        -0.1289
     16 C15        -2.3477   -0.0072    5.1959 C.ar      1 <0>        -0.1240
     17 C16        -2.5176   -0.7049    4.0147 C.ar      1 <0>        -0.1074
     18 C17        -1.2316   -1.1681    0.9379 C.2       1 <0>         0.5052
     19 O2         -1.9073   -0.1914    0.6624 O.co2     1 <0>        -0.6850
     20 O3         -0.2470   -1.4361    0.2706 O.co2     1 <0>        -0.6555
     21 C18        -0.6103   -4.4645    4.6376 C.3       1 <0>        -0.0760
     22 C19        -1.6013   -3.7559    5.5632 C.3       1 <0>        -0.1226
     23 C20        -0.8678   -3.2573    6.8098 C.3       1 <0>        -0.1467
     24 C21        -3.3388   -8.1595    2.6969 C.2       1 <0>         0.4439
     25 O4         -3.5899   -8.5883    3.8066 O.2       1 <0>        -0.4564
     26 C22        -3.7057   -8.9456    1.5005 C.ar      1 <0>        -0.1546
     27 C23        -2.9881   -8.7909    0.3124 C.ar      1 <0>        -0.0783
     28 C24        -3.3356   -9.5282   -0.8004 C.ar      1 <0>        -0.1300
     29 C25        -4.3929  -10.4191   -0.7415 C.ar      1 <0>        -0.0944
     30 C26        -5.1082  -10.5773    0.4325 C.ar      1 <0>        -0.1326
     31 C27        -4.7679   -9.8508    1.5544 C.ar      1 <0>        -0.0671
     32 H1          0.1570   -3.5754   -2.6059 H         1 <0>         0.0464
     33 H2         -1.5669   -3.9613   -2.8239 H         1 <0>         0.0359
     34 H3         -1.0882   -2.5137   -1.9054 H         1 <0>         0.0708
     35 H4         -0.6322   -5.4190   -1.0930 H         1 <0>         0.0427
     36 H5         -0.0073   -4.0105   -0.2020 H         1 <0>         0.0831
     37 H6         -2.3566   -3.1741    0.0464 H         1 <0>         0.0828
     38 H7         -2.9390   -4.6552   -0.7507 H         1 <0>         0.0612
     39 H8         -3.2527   -6.6091    0.4875 H         1 <0>         0.1338
     40 H9         -1.9355   -6.8106    4.5688 H         1 <0>         0.1307
     41 H10        -2.6569   -2.3434    2.0062 H         1 <0>         0.0622
     42 H11         0.6864   -1.5936    3.4468 H         1 <0>         0.1233
     43 H12         0.9901   -0.3446    5.5470 H         1 <0>         0.1147
     44 H13        -0.9532    0.6709    6.6676 H         1 <0>         0.1127
     45 H14        -3.2000    0.4381    5.6875 H         1 <0>         0.1146
     46 H15        -3.5025   -0.8038    3.5829 H         1 <0>         0.1152
     47 H16        -0.0945   -5.2497    5.1903 H         1 <0>         0.0665
     48 H17         0.1178   -3.7440    4.2651 H         1 <0>         0.0848
     49 H18        -2.0456   -2.9092    5.0400 H         1 <0>         0.0731
     50 H19        -2.3857   -4.4532    5.8577 H         1 <0>         0.0537
     51 H20        -0.4236   -4.1040    7.3331 H         1 <0>         0.0462
     52 H21        -0.0834   -2.5600    6.5153 H         1 <0>         0.0597
     53 H22        -1.5738   -2.7525    7.4693 H         1 <0>         0.0498
     54 H23        -2.1632   -8.0954    0.2649 H         1 <0>         0.1388
     55 H24        -2.7816   -9.4096   -1.7198 H         1 <0>         0.1298
     56 H25        -4.6612  -10.9934   -1.6159 H         1 <0>         0.1256
     57 H26        -5.9324  -11.2742    0.4714 H         1 <0>         0.1272
     58 H27        -5.3241   -9.9785    2.4713 H         1 <0>         0.1303
@<TRIPOS>BOND
     1    1    2 1
     2    1   32 1
     3    1   33 1
     4    1   34 1
     5    2    3 1
     6    2   35 1
     7    2   36 1
     8    3    4 1
     9    3   37 1
    10    3   38 1
    11    4    9 ar
    12    4    5 ar
    13    5    6 ar
    14    5   39 1
    15    6    7 ar
    16    6   24 1
    17    7    8 ar
    18    7   40 1
    19    8    9 ar
    20    8   21 1
    21    9   10 1
    22   10   11 1
    23   11   12 1
    24   11   18 1
    25   11   41 1
    26   12   17 ar
    27   12   13 ar
    28   13   14 ar
    29   13   42 1
    30   14   15 ar
    31   14   43 1
    32   15   16 ar
    33   15   44 1
    34   16   17 ar
    35   16   45 1
    36   17   46 1
    37   18   19 2
    38   18   20 1
    39   21   22 1
    40   21   47 1
    41   21   48 1
    42   22   23 1
    43   22   49 1
    44   22   50 1
    45   23   51 1
    46   23   52 1
    47   23   53 1
    48   24   25 2
    49   24   26 1
    50   26   31 ar
    51   26   27 ar
    52   27   28 ar
    53   27   54 1
    54   28   29 ar
    55   28   55 1
    56   29   30 ar
    57   29   56 1
    58   30   31 ar
    59   30   57 1
    60   31   58 1
@<TRIPOS>MOLECULE
CHEMBL537921
   83    87     0     0     0
SMALL
USER_CHARGES

@<TRIPOS>ATOM
      1 C1          4.3800    2.1329   -1.7245 C.3       1 <0>        -0.1431
      2 C2          4.1914    0.6152   -1.7689 C.3       1 <0>         0.0661
      3 O1          5.2025    0.0335   -2.5942 O.3       1 <0>        -0.3665
      4 C3          5.1166   -1.3887   -2.7035 C.3       1 <0>         0.0334
      5 H1          4.6873   -1.7981   -1.7890 H         1 <0>         0.0477
      6 C4          6.5162   -1.9695   -2.9144 C.3       1 <0>        -0.0609
      7 C5          7.3561   -1.7138   -1.6895 C.ar      1 <0>        -0.0960
      8 C6          8.0986   -0.5516   -1.5922 C.ar      1 <0>        -0.0624
      9 C7          8.8697   -0.3150   -0.4706 C.ar      1 <0>        -0.1520
     10 C8          8.8981   -1.2446    0.5588 C.ar      1 <0>         0.1132
     11 C9          8.1518   -2.4098    0.4590 C.ar      1 <0>        -0.2078
     12 C10         7.3783   -2.6392   -0.6624 C.ar      1 <0>        -0.0822
     13 O2          9.6561   -1.0144    1.6630 O.3       1 <0>        -0.3122
     14 C11         9.6372   -2.0150    2.6831 C.3       1 <0>         0.0357
     15 C12        10.5432   -1.5832    3.8379 C.3       1 <0>         0.1294
     16 N1          9.9937   -0.3791    4.4659 N.pl3     1 <0>        -0.6171
     17 C13        10.3795    0.9547    3.9863 C.3       1 <0>         0.1284
     18 C14        10.6762    1.8265    5.2135 C.3       1 <0>        -0.1273
     19 C15         9.3951    1.9759    6.0336 C.3       1 <0>        -0.0135
     20 C16         8.7842    0.6266    6.3074 C.ar      1 <0>        -0.1448
     21 C17         9.0903   -0.4815    5.5261 C.ar      1 <0>         0.2459
     22 C18         8.5028   -1.7151    5.7952 C.ar      1 <0>        -0.2011
     23 C19         7.6111   -1.8457    6.8363 C.ar      1 <0>        -0.0427
     24 C20         7.2970   -0.7366    7.6230 C.ar      1 <0>        -0.1133
     25 C21         7.8956    0.4985    7.3571 C.ar      1 <0>        -0.0264
     26 C22         6.3405   -0.8701    8.7447 C.2       1 <0>         0.2337
     27 N2          5.8606    0.1947    9.3217 N.2       1 <0>        -0.3425
     28 O3          5.0466    0.0698   10.4736 O.3       1 <0>        -0.2296
     29 C23         4.5903    1.3171   11.0010 C.3       1 <0>         0.1052
     30 C24         3.7249    1.0624   12.2367 C.3       1 <0>        -0.1542
     31 C25         2.2533    1.4752   12.1658 C.3       1 <0>        -0.1763
     32 C26         3.2340    2.2822   13.0190 C.3       1 <0>        -0.1692
     33 C27         5.9289   -2.2149    9.2113 C.ar      1 <0>        -0.0909
     34 C28         6.8565   -3.2553    9.2540 C.ar      1 <0>        -0.0924
     35 C29         6.4674   -4.5054    9.6899 C.ar      1 <0>        -0.1269
     36 C30         5.1601   -4.7275   10.0841 C.ar      1 <0>        -0.1058
     37 C31         4.2353   -3.6995   10.0436 C.ar      1 <0>        -0.1248
     38 C32         4.6139   -2.4437    9.6150 C.ar      1 <0>        -0.0742
     39 C33         9.7218    2.6620    7.3616 C.3       1 <0>        -0.1399
     40 C34         8.3952    2.8357    5.2578 C.3       1 <0>        -0.1415
     41 C35         4.2407   -1.7505   -3.8753 C.2       1 <0>         0.4772
     42 O4          3.8112   -0.8759   -4.6082 O.co2     1 <0>        -0.6795
     43 O5          3.9617   -2.9177   -4.0903 O.co2     1 <0>        -0.7005
     44 H2          5.3625    2.3651   -1.3136 H         1 <0>         0.0542
     45 H3          4.3031    2.5382   -2.7334 H         1 <0>         0.0625
     46 H4          3.6087    2.5767   -1.0950 H         1 <0>         0.0597
     47 H5          4.2683    0.2099   -0.7600 H         1 <0>         0.0291
     48 H6          3.2089    0.3830   -2.1798 H         1 <0>         0.0453
     49 H7          6.4419   -3.0433   -3.0863 H         1 <0>         0.0862
     50 H8          6.9803   -1.4945   -3.7787 H         1 <0>         0.0738
     51 H9          8.0762    0.1718   -2.3938 H         1 <0>         0.1301
     52 H10         9.4501    0.5927   -0.3954 H         1 <0>         0.1233
     53 H11         8.1723   -3.1350    1.2590 H         1 <0>         0.1201
     54 H12         6.7937   -3.5441   -0.7387 H         1 <0>         0.1230
     55 H13         8.6182   -2.1419    3.0486 H         1 <0>         0.0652
     56 H14         9.9963   -2.9589    2.2729 H         1 <0>         0.0676
     57 H15        10.5990   -2.3843    4.5750 H         1 <0>         0.0963
     58 H16        11.5418   -1.3705    3.4563 H         1 <0>         0.0877
     59 H17        11.2704    0.8794    3.3628 H         1 <0>         0.0812
     60 H18         9.5622    1.3913    3.4122 H         1 <0>         0.0682
     61 H19        11.4460    1.3514    5.8216 H         1 <0>         0.0694
     62 H20        11.0190    2.8091    4.8892 H         1 <0>         0.0785
     63 H21         8.7471   -2.5722    5.1851 H         1 <0>         0.1259
     64 H22         7.1566   -2.8033    7.0436 H         1 <0>         0.1303
     65 H23         7.6535    1.3576    7.9652 H         1 <0>         0.1317
     66 H24         5.4481    1.9299   11.2782 H         1 <0>         0.0588
     67 H25         4.0012    1.8372   10.2457 H         1 <0>         0.0567
     68 H26         3.9693    0.1650   12.8050 H         1 <0>         0.1125
     69 H27         1.9018    1.9283   11.2388 H         1 <0>         0.0965
     70 H28         1.5293    0.8493   12.6875 H         1 <0>         0.0965
     71 H29         3.1552    2.1871   14.1020 H         1 <0>         0.0990
     72 H30         3.5276    3.2661   12.6534 H         1 <0>         0.0967
     73 H31         7.8773   -3.0831    8.9461 H         1 <0>         0.1297
     74 H32         7.1848   -5.3120    9.7230 H         1 <0>         0.1256
     75 H33         4.8602   -5.7076   10.4246 H         1 <0>         0.1231
     76 H34         3.2160   -3.8790   10.3523 H         1 <0>         0.1243
     77 H35         3.8923   -1.6406    9.5884 H         1 <0>         0.1271
     78 H36        10.1473    3.6464    7.1669 H         1 <0>         0.0575
     79 H37         8.8099    2.7699    7.9488 H         1 <0>         0.0593
     80 H38        10.4411    2.0583    7.9151 H         1 <0>         0.0556
     81 H39         8.1654    2.3563    4.3062 H         1 <0>         0.0585
     82 H40         7.4803    2.9440    5.8403 H         1 <0>         0.0569
     83 H41         8.8276    3.8192    5.0740 H         1 <0>         0.0579
@<TRIPOS>BOND
     1    1    2 1
     2    1   44 1
     3    1   45 1
     4    1   46 1
     5    2    3 1
     6    2   47 1
     7    2   48 1
     8    3    4 1
     9    4    5 1
    10    4    6 1
    11    4   41 1
    12    6    7 1
    13    6   49 1
    14    6   50 1
    15    7   12 ar
    16    7    8 ar
    17    8    9 ar
    18    8   51 1
    19    9   10 ar
    20    9   52 1
    21   10   11 ar
    22   10   13 1
    23   11   12 ar
    24   11   53 1
    25   12   54 1
    26   13   14 1
    27   14   15 1
    28   14   55 1
    29   14   56 1
    30   15   16 1
    31   15   57 1
    32   15   58 1
    33   16   21 1
    34   16   17 1
    35   17   18 1
    36   17   59 1
    37   17   60 1
    38   18   19 1
    39   18   61 1
    40   18   62 1
    41   19   20 1
    42   19   39 1
    43   19   40 1
    44   20   25 ar
    45   20   21 ar
    46   21   22 ar
    47   22   23 ar
    48   22   63 1
    49   23   24 ar
    50   23   64 1
    51   24   25 ar
    52   24   26 1
    53   25   65 1
    54   26   27 2
    55   26   33 1
    56   27   28 1
    57   28   29 1
    58   29   30 1
    59   29   66 1
    60   29   67 1
    61   30   32 1
    62   30   31 1
    63   30   68 1
    64   31   32 1
    65   31   69 1
    66   31   70 1
    67   32   71 1
    68   32   72 1
    69   33   38 ar
    70   33   34 ar
    71   34   35 ar
    72   34   73 1
    73   35   36 ar
    74   35   74 1
    75   36   37 ar
    76   36   75 1
    77   37   38 ar
    78   37   76 1
    79   38   77 1
    80   39   78 1
    81   39   79 1
    82   39   80 1
    83   40   81 1
    84   40   82 1
    85   40   83 1
    86   41   42 2
    87   41   43 1
@<TRIPOS>MOLECULE
CHEMBL389297
   66    69     0     0     0
SMALL
USER_CHARGES

@<TRIPOS>ATOM
      1 C1         -0.0184    1.5028    0.0103 C.3       1 <0>        -0.0709
      2 C2          0.0021   -0.0041    0.0020 C.2       1 <0>        -0.0343
      3 C3         -1.0705   -0.8164    0.0025 C.2       1 <0>        -0.0042
      4 N1         -0.6270   -2.0826   -0.0064 N.2       1 <0>        -0.4574
      5 C4          0.6851   -2.0676   -0.0123 C.2       1 <0>         0.2278
      6 O1          1.0981   -0.7883   -0.0131 O.3       1 <0>        -0.1940
      7 C5          1.5619   -3.2577   -0.0227 C.ar      1 <0>        -0.0164
      8 C6          1.0059   -4.5378   -0.0330 C.ar      1 <0>        -0.0703
      9 C7          1.8298   -5.6443   -0.0432 C.ar      1 <0>        -0.1202
     10 C8          3.2044   -5.4871   -0.0433 C.ar      1 <0>        -0.1017
     11 C9          3.7620   -4.2209   -0.0327 C.ar      1 <0>        -0.1218
     12 C10         2.9493   -3.1060   -0.0282 C.ar      1 <0>        -0.0912
     13 C11        -2.5133   -0.3814    0.0119 C.3       1 <0>        -0.0352
     14 C12        -3.0085   -0.2260   -1.4274 C.3       1 <0>         0.0690
     15 O2         -4.3766    0.1865   -1.4185 O.3       1 <0>        -0.3166
     16 C13        -4.9731    0.3716   -2.6255 C.ar      1 <0>         0.1165
     17 C14        -4.2580    0.1549   -3.7944 C.ar      1 <0>        -0.2112
     18 C15        -4.8667    0.3432   -5.0201 C.ar      1 <0>        -0.0804
     19 C16        -6.1874    0.7477   -5.0825 C.ar      1 <0>        -0.0978
     20 C17        -6.9021    0.9648   -3.9190 C.ar      1 <0>        -0.0521
     21 C18        -6.2998    0.7719   -2.6908 C.ar      1 <0>        -0.1462
     22 C19        -6.8489    0.9529   -6.4210 C.3       1 <0>        -0.0497
     23 C20        -7.4951   -0.3570   -6.8767 C.3       1 <0>        -0.1063
     24 C21        -8.0496   -0.1864   -8.2675 C.2       1 <0>         0.1435
     25 N2         -9.3114   -0.2595   -8.4666 N.2       1 <0>        -0.2922
     26 O3         -9.8325   -0.0991   -9.7734 O.3       1 <0>        -0.2618
     27 C22       -11.2556   -0.2048   -9.8487 C.3       1 <0>         0.1201
     28 C23       -11.6982   -0.0190  -11.2773 C.ar      1 <0>        -0.0908
     29 C24       -11.9928    1.2462  -11.7501 C.ar      1 <0>        -0.0680
     30 C25       -12.3983    1.4178  -13.0601 C.ar      1 <0>        -0.1575
     31 C26       -12.5095    0.3219  -13.8990 C.ar      1 <0>         0.0973
     32 C27       -12.2142   -0.9448  -13.4243 C.ar      1 <0>        -0.1575
     33 C28       -11.8038   -1.1133  -12.1154 C.ar      1 <0>        -0.0685
     34 F1        -12.9063    0.4884  -15.1796 F         1 <0>        -0.1425
     35 C29        -7.1180    0.0704   -9.4239 C.3       1 <0>        -0.1471
     36 C30        -8.6112   -0.7217   -5.9321 C.2       1 <0>         0.5142
     37 O4         -9.5548    0.0357   -5.7821 O.co2     1 <0>        -0.6776
     38 O5         -8.5706   -1.7741   -5.3179 O.co2     1 <0>        -0.6976
     39 H1          1.0042    1.8801    0.0026 H         1 <0>         0.0797
     40 H2         -0.5455    1.8639   -0.8728 H         1 <0>         0.0923
     41 H3         -0.5286    1.8543    0.9071 H         1 <0>         0.0928
     42 H4         -0.0670   -4.6619   -0.0326 H         1 <0>         0.1398
     43 H5          1.4008   -6.6354   -0.0508 H         1 <0>         0.1329
     44 H6          3.8450   -6.3565   -0.0513 H         1 <0>         0.1281
     45 H7          4.8357   -4.1050   -0.0321 H         1 <0>         0.1301
     46 H8          3.3858   -2.1181   -0.0249 H         1 <0>         0.1297
     47 H9         -3.1156   -1.1316    0.5243 H         1 <0>         0.0951
     48 H10        -2.6018    0.5726    0.5316 H         1 <0>         0.0922
     49 H11        -2.4061    0.5242   -1.9398 H         1 <0>         0.0586
     50 H12        -2.9200   -1.1800   -1.9471 H         1 <0>         0.0646
     51 H13        -3.2262   -0.1604   -3.7462 H         1 <0>         0.1191
     52 H14        -4.3105    0.1747   -5.9304 H         1 <0>         0.1197
     53 H15        -7.9335    1.2810   -3.9704 H         1 <0>         0.1359
     54 H16        -6.8598    0.9373   -1.7823 H         1 <0>         0.1265
     55 H17        -7.6139    1.7243   -6.3338 H         1 <0>         0.0779
     56 H18        -6.1019    1.2629   -7.1517 H         1 <0>         0.0607
     57 H19        -6.7470   -1.1498   -6.8785 H         1 <0>         0.0844
     58 H20       -11.5660   -1.1887   -9.4972 H         1 <0>         0.0646
     59 H21       -11.7106    0.5643   -9.2245 H         1 <0>         0.0672
     60 H22       -11.9063    2.1008  -11.0955 H         1 <0>         0.1359
     61 H23       -12.6287    2.4063  -13.4291 H         1 <0>         0.1357
     62 H24       -12.3009   -1.8003  -14.0777 H         1 <0>         0.1356
     63 H25       -11.5691   -2.1007  -11.7462 H         1 <0>         0.1354
     64 H26        -6.8099   -0.8798   -9.8601 H         1 <0>         0.0735
     65 H27        -7.6309    0.6671  -10.1781 H         1 <0>         0.0703
     66 H28        -6.2393    0.6095   -9.0698 H         1 <0>         0.0721
@<TRIPOS>BOND
     1    1    2 1
     2    1   39 1
     3    1   40 1
     4    1   41 1
     5    2    6 1
     6    2    3 2
     7    3    4 1
     8    3   13 1
     9    4    5 2
    10    5    6 1
    11    5    7 1
    12    7   12 ar
    13    7    8 ar
    14    8    9 ar
    15    8   42 1
    16    9   10 ar
    17    9   43 1
    18   10   11 ar
    19   10   44 1
    20   11   12 ar
    21   11   45 1
    22   12   46 1
    23   13   14 1
    24   13   47 1
    25   13   48 1
    26   14   15 1
    27   14   49 1
    28   14   50 1
    29   15   16 1
    30   16   21 ar
    31   16   17 ar
    32   17   18 ar
    33   17   51 1
    34   18   19 ar
    35   18   52 1
    36   19   20 ar
    37   19   22 1
    38   20   21 ar
    39   20   53 1
    40   21   54 1
    41   22   23 1
    42   22   55 1
    43   22   56 1
    44   23   24 1
    45   23   36 1
    46   23   57 1
    47   24   25 2
    48   24   35 1
    49   25   26 1
    50   26   27 1
    51   27   28 1
    52   27   58 1
    53   27   59 1
    54   28   33 ar
    55   28   29 ar
    56   29   30 ar
    57   29   60 1
    58   30   31 ar
    59   30   61 1
    60   31   32 ar
    61   31   34 1
    62   32   33 ar
    63   32   62 1
    64   33   63 1
    65   35   64 1
    66   35   65 1
    67   35   66 1
    68   36   37 2
    69   36   38 1
@<TRIPOS>MOLECULE
CHEMBL389297__1
   66    69     0     0     0
SMALL
USER_CHARGES

@<TRIPOS>ATOM
      1 C1         -7.0010   -5.5507    2.0213 C.3       1 <0>        -0.0707
      2 C2         -6.6522   -6.6621    1.0652 C.2       1 <0>        -0.0345
      3 C3         -7.2402   -6.9093   -0.1194 C.2       1 <0>        -0.0049
      4 N1         -6.6418   -7.9817   -0.6595 N.2       1 <0>        -0.4573
      5 C4         -5.7054   -8.3969    0.1605 C.2       1 <0>         0.2289
      6 O1         -5.6893   -7.5897    1.2353 O.3       1 <0>        -0.1938
      7 C5         -4.8134   -9.5544   -0.0630 C.ar      1 <0>        -0.0166
      8 C6         -4.9239  -10.3089   -1.2320 C.ar      1 <0>        -0.0698
      9 C7         -4.0880  -11.3876   -1.4347 C.ar      1 <0>        -0.1201
     10 C8         -3.1419  -11.7221   -0.4822 C.ar      1 <0>        -0.1016
     11 C9         -3.0275  -10.9786    0.6789 C.ar      1 <0>        -0.1220
     12 C10        -3.8533   -9.8940    0.8913 C.ar      1 <0>        -0.0910
     13 C11        -8.3704   -6.1218   -0.7306 C.3       1 <0>        -0.0334
     14 C12        -7.7988   -4.9931   -1.5910 C.3       1 <0>         0.0672
     15 O2         -8.8705   -4.2464   -2.1706 O.3       1 <0>        -0.3178
     16 C13        -8.5323   -3.2003   -2.9694 C.ar      1 <0>         0.1162
     17 C14        -7.1963   -2.9022   -3.1955 C.ar      1 <0>        -0.2040
     18 C15        -6.8551   -1.8386   -4.0083 C.ar      1 <0>        -0.0523
     19 C16        -7.8437   -1.0711   -4.5959 C.ar      1 <0>        -0.0989
     20 C17        -9.1759   -1.3659   -4.3719 C.ar      1 <0>        -0.0806
     21 C18        -9.5223   -2.4322   -3.5648 C.ar      1 <0>        -0.1548
     22 C19        -7.4687    0.0889   -5.4818 C.3       1 <0>        -0.0491
     23 C20        -7.3866   -0.3843   -6.9344 C.3       1 <0>        -0.1062
     24 C21        -7.1521    0.8001   -7.8361 C.2       1 <0>         0.1467
     25 N2         -6.0596    0.8959   -8.4953 N.2       1 <0>        -0.2982
     26 O3         -5.8391    2.0088   -9.3426 O.3       1 <0>        -0.2602
     27 C22        -4.5789    1.9861  -10.0159 C.3       1 <0>         0.1196
     28 C23        -4.4517    3.2106  -10.8852 C.ar      1 <0>        -0.0910
     29 C24        -4.8966    3.1780  -12.1937 C.ar      1 <0>        -0.0685
     30 C25        -4.7808    4.3004  -12.9916 C.ar      1 <0>        -0.1573
     31 C26        -4.2191    5.4579  -12.4800 C.ar      1 <0>         0.0975
     32 C27        -3.7739    5.4894  -11.1693 C.ar      1 <0>        -0.1574
     33 C28        -3.8954    4.3674  -10.3717 C.ar      1 <0>        -0.0679
     34 F1         -4.1050    6.5556  -13.2593 F         1 <0>        -0.1424
     35 C29        -8.2042    1.8717   -7.9615 C.3       1 <0>        -0.1461
     36 C30        -6.2481   -1.3607   -7.0811 C.2       1 <0>         0.5159
     37 O4         -5.1273   -1.0495   -6.7156 O.co2     1 <0>        -0.6804
     38 O5         -6.4477   -2.4617   -7.5653 O.co2     1 <0>        -0.6983
     39 H1         -6.3488   -5.6033    2.8931 H         1 <0>         0.0798
     40 H2         -6.8675   -4.5893    1.5252 H         1 <0>         0.0923
     41 H3         -8.0389   -5.6555    2.3372 H         1 <0>         0.0922
     42 H4         -5.6622  -10.0491   -1.9761 H         1 <0>         0.1398
     43 H5         -4.1727  -11.9725   -2.3387 H         1 <0>         0.1330
     44 H6         -2.4900  -12.5675   -0.6457 H         1 <0>         0.1280
     45 H7         -2.2873  -11.2453    1.4188 H         1 <0>         0.1300
     46 H8         -3.7598   -9.3115    1.7960 H         1 <0>         0.1296
     47 H9         -8.9777   -6.7802   -1.3518 H         1 <0>         0.0943
     48 H10        -8.9879   -5.6979    0.0613 H         1 <0>         0.0915
     49 H11        -7.1915   -4.3347   -0.9699 H         1 <0>         0.0598
     50 H12        -7.1813   -5.4170   -2.3830 H         1 <0>         0.0668
     51 H13        -6.4238   -3.5010   -2.7361 H         1 <0>         0.1205
     52 H14        -5.8153   -1.6061   -4.1845 H         1 <0>         0.1320
     53 H15        -9.9463   -0.7647   -4.8317 H         1 <0>         0.1253
     54 H16       -10.5630   -2.6648   -3.3937 H         1 <0>         0.1247
     55 H17        -8.2238    0.8703   -5.3963 H         1 <0>         0.0610
     56 H18        -6.5007    0.4837   -5.1730 H         1 <0>         0.0780
     57 H19        -8.3214   -0.8720   -7.2110 H         1 <0>         0.0853
     58 H20        -3.7743    1.9773   -9.2807 H         1 <0>         0.0669
     59 H21        -4.5144    1.0920  -10.6360 H         1 <0>         0.0646
     60 H22        -5.3344    2.2749  -12.5926 H         1 <0>         0.1355
     61 H23        -5.1281    4.2746  -14.0139 H         1 <0>         0.1357
     62 H24        -3.3352    6.3916  -10.7693 H         1 <0>         0.1358
     63 H25        -3.5523    4.3931   -9.3480 H         1 <0>         0.1359
     64 H26        -8.0305    2.6412   -7.2092 H         1 <0>         0.0749
     65 H27        -8.1528    2.3169   -8.9551 H         1 <0>         0.0697
     66 H28        -9.1902    1.4322   -7.8108 H         1 <0>         0.0719
@<TRIPOS>BOND
     1    1    2 1
     2    1   39 1
     3    1   40 1
     4    1   41 1
     5    2    6 1
     6    2    3 2
     7    3    4 1
     8    3   13 1
     9    4    5 2
    10    5    6 1
    11    5    7 1
    12    7   12 ar
    13    7    8 ar
    14    8    9 ar
    15    8   42 1
    16    9   10 ar
    17    9   43 1
    18   10   11 ar
    19   10   44 1
    20   11   12 ar
    21   11   45 1
    22   12   46 1
    23   13   14 1
    24   13   47 1
    25   13   48 1
    26   14   15 1
    27   14   49 1
    28   14   50 1
    29   15   16 1
    30   16   21 ar
    31   16   17 ar
    32   17   18 ar
    33   17   51 1
    34   18   19 ar
    35   18   52 1
    36   19   20 ar
    37   19   22 1
    38   20   21 ar
    39   20   53 1
    40   21   54 1
    41   22   23 1
    42   22   55 1
    43   22   56 1
    44   23   24 1
    45   23   36 1
    46   23   57 1
    47   24   25 2
    48   24   35 1
    49   25   26 1
    50   26   27 1
    51   27   28 1
    52   27   58 1
    53   27   59 1
    54   28   33 ar
    55   28   29 ar
    56   29   30 ar
    57   29   60 1
    58   30   31 ar
    59   30   61 1
    60   31   32 ar
    61   31   34 1
    62   32   33 ar
    63   32   62 1
    64   33   63 1
    65   35   64 1
    66   35   65 1
    67   35   66 1
    68   36   37 2
    69   36   38 1
@<TRIPOS>MOLECULE
CHEMBL207569
   64    67     0     0     0
SMALL
USER_CHARGES

@<TRIPOS>ATOM
      1 C1         -1.4761   -0.2503   -0.3679 C.3       1 <0>        -0.1148
      2 C2         -0.0147    0.1606   -0.1773 C.3       1 <0>         0.0296
      3 C3          0.1574    1.6295   -0.5694 C.3       1 <0>        -0.1739
      4 C4          0.3743   -0.0227    1.2670 C.2       1 <0>         0.4808
      5 O1          1.2827   -0.7804    1.5622 O.co2     1 <0>        -0.6695
      6 O2         -0.2193    0.5868    2.1403 O.co2     1 <0>        -0.6852
      7 O3          0.8206   -0.6537   -1.0026 O.3       1 <0>        -0.3033
      8 C5          2.1566   -0.4030   -0.9667 C.ar      1 <0>         0.1384
      9 C6          2.6656    0.5164   -0.0615 C.ar      1 <0>        -0.1172
     10 C7          4.0227    0.7711   -0.0251 C.ar      1 <0>        -0.1204
     11 C8          4.8765    0.1071   -0.8933 C.ar      1 <0>         0.0709
     12 C9          4.3677   -0.8130   -1.7979 C.ar      1 <0>        -0.1808
     13 C10         3.0110   -1.0708   -1.8315 C.ar      1 <0>        -0.1357
     14 O4          6.2125    0.3585   -0.8581 O.3       1 <0>        -0.3128
     15 C11         7.0326   -0.3613   -1.7807 C.3       1 <0>         0.1003
     16 C12         8.4720    0.0451   -1.5962 C.ar      1 <0>        -0.0804
     17 C13         8.9847    1.1067   -2.3155 C.ar      1 <0>        -0.0688
     18 C14        10.3154    1.4870   -2.1489 C.ar      1 <0>        -0.0598
     19 C15        11.1274    0.7951   -1.2556 C.ar      1 <0>        -0.0803
     20 C16        10.6054   -0.2734   -0.5332 C.ar      1 <0>        -0.0584
     21 C17         9.2719   -0.6419   -0.7043 C.ar      1 <0>        -0.0681
     22 C18        11.4655   -1.0164    0.4210 C.ar      1 <0>        -0.0054
     23 C19        12.7957   -0.6427    0.6005 C.ar      1 <0>        -0.1152
     24 C20        13.5911   -1.3373    1.4892 C.ar      1 <0>        -0.0656
     25 C21        13.0700   -2.4029    2.2008 C.ar      1 <0>        -0.1864
     26 C22        11.7502   -2.7784    2.0262 C.ar      1 <0>        -0.0629
     27 C23        10.9441   -2.0866    1.1450 C.ar      1 <0>        -0.1115
     28 C24        13.9435   -3.1577    3.1694 C.3       1 <0>         0.5084
     29 F1         13.8526   -2.5694    4.4354 F         1 <0>        -0.1757
     30 F2         13.5177   -4.4884    3.2419 F         1 <0>        -0.1764
     31 F3         15.2711   -3.1162    2.7301 F         1 <0>        -0.1779
     32 C25        10.8652    2.6275   -2.9232 C.ar      1 <0>        -0.0040
     33 C26        12.1966    3.0050   -2.7618 C.ar      1 <0>        -0.1152
     34 C27        12.7027    4.0664   -3.4845 C.ar      1 <0>        -0.0651
     35 C28        11.8906    4.7552   -4.3672 C.ar      1 <0>        -0.1869
     36 C29        10.5680    4.3850   -4.5310 C.ar      1 <0>        -0.0633
     37 C30        10.0533    3.3209   -3.8184 C.ar      1 <0>        -0.1124
     38 C31        12.4487    5.9136   -5.1531 C.3       1 <0>         0.5084
     39 F4         12.9727    5.4468   -6.3634 F         1 <0>        -0.1767
     40 F5         11.4293    6.8363   -5.4113 F         1 <0>        -0.1762
     41 F6         13.4623    6.5332   -4.4143 F         1 <0>        -0.1773
     42 H1         -1.7823   -0.0390   -1.3925 H         1 <0>         0.0503
     43 H2         -1.5825   -1.3168   -0.1696 H         1 <0>         0.0567
     44 H3         -2.1047    0.3122    0.3224 H         1 <0>         0.0782
     45 H4         -0.3144    2.2636    0.1812 H         1 <0>         0.0753
     46 H5          1.2194    1.8672   -0.6303 H         1 <0>         0.0664
     47 H6         -0.3102    1.8041   -1.5384 H         1 <0>         0.0511
     48 H7          2.0008    1.0334    0.6146 H         1 <0>         0.1462
     49 H8          4.4190    1.4875    0.6793 H         1 <0>         0.1232
     50 H9          5.0324   -1.3297   -2.4743 H         1 <0>         0.1225
     51 H10         2.6152   -1.7900   -2.5333 H         1 <0>         0.1233
     52 H11         6.9310   -1.4313   -1.5990 H         1 <0>         0.0710
     53 H12         6.7187   -0.1344   -2.7995 H         1 <0>         0.0702
     54 H13         8.3535    1.6431   -3.0086 H         1 <0>         0.1336
     55 H14        12.1590    1.0862   -1.1236 H         1 <0>         0.1328
     56 H15         8.8646   -1.4685   -0.1412 H         1 <0>         0.1346
     57 H16        13.2038    0.1886    0.0448 H         1 <0>         0.1367
     58 H17        14.6223   -1.0485    1.6291 H         1 <0>         0.1382
     59 H18        11.3486   -3.6115    2.5838 H         1 <0>         0.1401
     60 H19         9.9123   -2.3774    1.0133 H         1 <0>         0.1410
     61 H20        12.8314    2.4683   -2.0723 H         1 <0>         0.1371
     62 H21        13.7346    4.3600   -3.3602 H         1 <0>         0.1383
     63 H22         9.9381    4.9266   -5.2211 H         1 <0>         0.1395
     64 H23         9.0219    3.0293   -3.9508 H         1 <0>         0.1404
@<TRIPOS>BOND
     1    1    2 1
     2    1   42 1
     3    1   43 1
     4    1   44 1
     5    2    3 1
     6    2    4 1
     7    2    7 1
     8    3   45 1
     9    3   46 1
    10    3   47 1
    11    4    5 2
    12    4    6 1
    13    7    8 1
    14    8   13 ar
    15    8    9 ar
    16    9   10 ar
    17    9   48 1
    18   10   11 ar
    19   10   49 1
    20   11   12 ar
    21   11   14 1
    22   12   13 ar
    23   12   50 1
    24   13   51 1
    25   14   15 1
    26   15   16 1
    27   15   52 1
    28   15   53 1
    29   16   21 ar
    30   16   17 ar
    31   17   18 ar
    32   17   54 1
    33   18   19 ar
    34   18   32 1
    35   19   20 ar
    36   19   55 1
    37   20   21 ar
    38   20   22 1
    39   21   56 1
    40   22   27 ar
    41   22   23 ar
    42   23   24 ar
    43   23   57 1
    44   24   25 ar
    45   24   58 1
    46   25   26 ar
    47   25   28 1
    48   26   27 ar
    49   26   59 1
    50   27   60 1
    51   28   29 1
    52   28   30 1
    53   28   31 1
    54   32   37 ar
    55   32   33 ar
    56   33   34 ar
    57   33   61 1
    58   34   35 ar
    59   34   62 1
    60   35   36 ar
    61   35   38 1
    62   36   37 ar
    63   36   63 1
    64   37   64 1
    65   38   39 1
    66   38   40 1
    67   38   41 1
@<TRIPOS>MOLECULE
CHEMBL200495
   56    59     0     0     0
SMALL
USER_CHARGES

@<TRIPOS>ATOM
      1 C1         -0.0187    1.5258    0.0104 C.3       1 <0>        -0.1518
      2 C2          0.0021   -0.0041    0.0020 C.3       1 <0>        -0.1174
      3 C3          0.7421   -0.5109    1.2415 C.3       1 <0>        -0.0693
      4 C4          0.7625   -2.0177    1.2333 C.ar      1 <0>        -0.1237
      5 C5         -0.2618   -2.7295    1.8327 C.ar      1 <0>         0.2032
      6 C6         -0.2503   -4.1223    1.8294 C.ar      1 <0>        -0.2158
      7 C7          0.7717   -4.8044    1.2346 C.ar      1 <0>         0.0018
      8 C8          1.8143   -4.1024    0.6239 C.ar      1 <0>        -0.2136
      9 C9          1.8057   -2.6968    0.6194 C.ar      1 <0>         0.1304
     10 O1          2.9142   -2.2956   -0.0353 O.3       1 <0>        -0.0563
     11 N1          3.6416   -3.4301   -0.4619 N.2       1 <0>        -0.2268
     12 C10         3.0298   -4.5107   -0.0846 C.2       1 <0>         0.0489
     13 C11         3.4787   -5.9260   -0.3428 C.3       1 <0>         0.5553
     14 F1          2.9526   -6.3671   -1.5617 F         1 <0>        -0.1559
     15 F2          4.8760   -5.9698   -0.3949 F         1 <0>        -0.1568
     16 F3          3.0242   -6.7548    0.6885 F         1 <0>        -0.1545
     17 O2         -1.2855   -2.0651    2.4291 O.3       1 <0>        -0.2933
     18 C12        -2.3113   -2.8583    3.0296 C.3       1 <0>         0.0585
     19 C13        -3.3699   -1.9415    3.6458 C.3       1 <0>        -0.1186
     20 C14        -4.4682   -2.7907    4.2888 C.3       1 <0>         0.0665
     21 O3         -5.4569   -1.9344    4.8643 O.3       1 <0>        -0.3169
     22 C15        -6.5102   -2.5345    5.4805 C.ar      1 <0>         0.0849
     23 C16        -6.5833   -3.9243    5.5327 C.ar      1 <0>        -0.1889
     24 C17        -7.6424   -4.5481    6.1530 C.ar      1 <0>        -0.0759
     25 C18        -8.6524   -3.7892    6.7351 C.ar      1 <0>         0.0884
     26 C19        -8.5816   -2.3857    6.6841 C.ar      1 <0>        -0.0751
     27 C20        -7.4998   -1.7636    6.0568 C.ar      1 <0>        -0.1111
     28 C21        -9.7760   -1.8941    7.3752 C.2       1 <0>        -0.2343
     29 C22       -10.4652   -2.9713    7.7835 C.2       1 <0>         0.0797
     30 N2         -9.8102   -4.1130    7.4106 N.pl3     1 <0>        -0.4416
     31 C23       -10.2705   -5.4761    7.6870 C.3       1 <0>         0.0318
     32 C24        -9.6169   -5.9811    8.9474 C.2       1 <0>         0.4800
     33 O4         -8.8387   -5.2685    9.5583 O.co2     1 <0>        -0.6713
     34 O5         -9.8662   -7.1024    9.3563 O.co2     1 <0>        -0.6926
     35 H1          1.0039    1.9031    0.0027 H         1 <0>         0.0540
     36 H2         -0.5459    1.8868   -0.8726 H         1 <0>         0.0550
     37 H3         -0.5289    1.8773    0.9072 H         1 <0>         0.0571
     38 H4         -1.0205   -0.3814    0.0098 H         1 <0>         0.0657
     39 H5          0.5123   -0.3556   -0.8948 H         1 <0>         0.0592
     40 H6          1.7647   -0.1336    1.2338 H         1 <0>         0.0750
     41 H7          0.2319   -0.1594    2.1383 H         1 <0>         0.0863
     42 H8         -1.0553   -4.6663    2.3009 H         1 <0>         0.1498
     43 H9          0.7747   -5.8844    1.2363 H         1 <0>         0.1451
     44 H10        -2.7742   -3.4889    2.2706 H         1 <0>         0.0738
     45 H11        -1.8767   -3.4858    3.8077 H         1 <0>         0.0744
     46 H12        -2.9070   -1.3108    4.4049 H         1 <0>         0.0878
     47 H13        -3.8045   -1.3139    2.8677 H         1 <0>         0.0872
     48 H14        -4.9311   -3.4213    3.5298 H         1 <0>         0.0620
     49 H15        -4.0336   -3.4182    5.0669 H         1 <0>         0.0632
     50 H16        -5.8020   -4.5183    5.0821 H         1 <0>         0.1226
     51 H17        -7.6892   -5.6265    6.1873 H         1 <0>         0.1180
     52 H18        -7.4399   -0.6860    6.0192 H         1 <0>         0.1237
     53 H19       -10.0500   -0.8606    7.5279 H         1 <0>         0.1414
     54 H20       -11.3986   -2.9412    8.3261 H         1 <0>         0.1607
     55 H21       -11.3530   -5.4752    7.8142 H         1 <0>         0.0878
     56 H22       -10.0031   -6.1258    6.8536 H         1 <0>         0.0823
@<TRIPOS>BOND
     1    1    2 1
     2    1   35 1
     3    1   36 1
     4    1   37 1
     5    2    3 1
     6    2   38 1
     7    2   39 1
     8    3    4 1
     9    3   40 1
    10    3   41 1
    11    4    9 ar
    12    4    5 ar
    13    5    6 ar
    14    5   17 1
    15    6    7 ar
    16    6   42 1
    17    7    8 ar
    18    7   43 1
    19    8   12 1
    20    8    9 ar
    21    9   10 1
    22   10   11 1
    23   11   12 2
    24   12   13 1
    25   13   14 1
    26   13   15 1
    27   13   16 1
    28   17   18 1
    29   18   19 1
    30   18   44 1
    31   18   45 1
    32   19   20 1
    33   19   46 1
    34   19   47 1
    35   20   21 1
    36   20   48 1
    37   20   49 1
    38   21   22 1
    39   22   27 ar
    40   22   23 ar
    41   23   24 ar
    42   23   50 1
    43   24   25 ar
    44   24   51 1
    45   25   30 1
    46   25   26 ar
    47   26   27 ar
    48   26   28 1
    49   27   52 1
    50   28   29 2
    51   28   53 1
    52   29   30 1
    53   29   54 1
    54   30   31 1
    55   31   32 1
    56   31   55 1
    57   31   56 1
    58   32   33 2
    59   32   34 1
@<TRIPOS>MOLECULE
CHEMBL250673
   64    67     0     0     0
SMALL
USER_CHARGES

@<TRIPOS>ATOM
      1 C1         -2.5404   -3.1051   -7.2901 C.3       1 <0>        -0.1049
      2 C2         -1.2256   -3.0722   -6.5546 C.ar      1 <0>        -0.1315
      3 C3         -1.2076   -3.0321   -5.1742 C.ar      1 <0>        -0.0260
      4 C4          0.0044   -3.0019   -4.4965 C.ar      1 <0>        -0.2114
      5 C5          1.1976   -3.0120   -5.2082 C.ar      1 <0>        -0.0226
      6 C6          1.1774   -3.0521   -6.5880 C.ar      1 <0>        -0.2230
      7 C7         -0.0337   -3.0880   -7.2639 C.ar      1 <0>         0.1795
      8 O1         -0.0524   -3.1336   -8.6229 O.3       1 <0>        -0.2686
      9 C8          1.2117   -3.1475   -9.2890 C.3       1 <0>        -0.0113
     10 C9          0.9938   -3.1988  -10.7793 C.2       1 <0>         0.5020
     11 O2         -0.1391   -3.2214  -11.2293 O.co2     1 <0>        -0.6682
     12 O3          1.9504   -3.2177  -11.5350 O.co2     1 <0>        -0.6844
     13 S1          0.0286   -2.9501   -2.7354 S.3       1 <0>         0.0338
     14 C10        -0.0950   -4.6415   -2.2575 C.ar      1 <0>        -0.0559
     15 C11        -0.0617   -5.6567   -3.2129 C.ar      1 <0>        -0.1371
     16 C12        -0.1620   -6.9830   -2.7998 C.ar      1 <0>         0.2619
     17 N1         -0.2881   -7.2858   -1.5130 N.ar      1 <0>        -0.4624
     18 C13        -0.3234   -6.3442   -0.5751 C.ar      1 <0>         0.2418
     19 C14        -0.2224   -4.9953   -0.9160 C.ar      1 <0>        -0.1216
     20 C15        -0.4606   -6.7189    0.8002 C.1       1 <0>        -0.0744
     21 C16        -0.5732   -7.0261    1.9277 C.1       1 <0>        -0.1023
     22 C17        -0.7104   -7.4008    3.3029 C.ar      1 <0>         0.0526
     23 C18        -0.8008   -8.7495    3.6575 C.ar      1 <0>        -0.0928
     24 C19        -0.9324   -9.1029    4.9841 C.ar      1 <0>        -0.0679
     25 C20        -0.9749   -8.1257    5.9630 C.ar      1 <0>        -0.1771
     26 C21        -0.8859   -6.7882    5.6195 C.ar      1 <0>        -0.0682
     27 C22        -0.7487   -6.4199    4.2975 C.ar      1 <0>        -0.0945
     28 C23        -1.1193   -8.5201    7.4103 C.3       1 <0>         0.5085
     29 F1          0.1487   -8.7003    7.9733 F         1 <0>        -0.1751
     30 F2         -1.7980   -7.5117    8.1030 F         1 <0>        -0.1759
     31 F3         -1.8426   -9.7143    7.4983 F         1 <0>        -0.1759
     32 C24        -0.1292   -8.0321   -3.7739 C.1       1 <0>        -0.1322
     33 C25        -0.1024   -8.8922   -4.5725 C.1       1 <0>        -0.1022
     34 C26        -0.0687   -9.9707   -5.5738 C.3       1 <0>         0.1656
     35 N2         -0.1902  -11.2697   -4.8987 N.3       1 <0>        -0.5348
     36 C27         0.9880  -11.5410   -4.0624 C.3       1 <0>         0.0181
     37 C28         0.7934  -12.8728   -3.3328 C.3       1 <0>         0.0619
     38 O4          0.5612  -13.9071   -4.2929 O.3       1 <0>        -0.3841
     39 C29        -0.5793  -13.6754   -5.1241 C.3       1 <0>         0.0606
     40 C30        -0.3986  -12.3517   -5.8718 C.3       1 <0>         0.0201
     41 H1         -2.8508   -4.1401   -7.4335 H         1 <0>         0.0680
     42 H2         -3.2956   -2.5766   -6.7083 H         1 <0>         0.0617
     43 H3         -2.4259   -2.6224   -8.2607 H         1 <0>         0.0805
     44 H4         -2.1357   -3.0239   -4.6220 H         1 <0>         0.1335
     45 H5          2.1405   -2.9881   -4.6822 H         1 <0>         0.1311
     46 H6          2.1049   -3.0600   -7.1414 H         1 <0>         0.1372
     47 H7          1.7668   -2.2448   -9.0338 H         1 <0>         0.0624
     48 H8          1.7786   -4.0237   -8.9744 H         1 <0>         0.0626
     49 H9          0.0403   -5.4173   -4.2611 H         1 <0>         0.1478
     50 H10        -0.2471   -4.2344   -0.1500 H         1 <0>         0.1487
     51 H11        -0.7681   -9.5132    2.8945 H         1 <0>         0.1430
     52 H12        -1.0027  -10.1448    5.2596 H         1 <0>         0.1430
     53 H13        -0.9198   -6.0310    6.3889 H         1 <0>         0.1432
     54 H14        -0.6748   -5.3759    4.0312 H         1 <0>         0.1430
     55 H15        -0.8968   -9.8448   -6.2714 H         1 <0>         0.1071
     56 H16         0.8745   -9.9312   -6.1187 H         1 <0>         0.0668
     57 H17         1.8761  -11.5972   -4.6919 H         1 <0>         0.0450
     58 H18         1.1085  -10.7404   -3.3325 H         1 <0>         0.0859
     59 H19         1.6884  -13.1060   -2.7560 H         1 <0>         0.0993
     60 H20        -0.0632  -12.7991   -2.6628 H         1 <0>         0.0662
     61 H21        -0.6771  -14.4890   -5.8428 H         1 <0>         0.1008
     62 H22        -1.4758  -13.6250   -4.5062 H         1 <0>         0.0664
     63 H23        -1.2904  -12.1429   -6.4629 H         1 <0>         0.0906
     64 H24         0.4673  -12.4209   -6.5303 H         1 <0>         0.0459
@<TRIPOS>BOND
     1    1    2 1
     2    1   41 1
     3    1   42 1
     4    1   43 1
     5    2    7 ar
     6    2    3 ar
     7    3    4 ar
     8    3   44 1
     9    4    5 ar
    10    4   13 1
    11    5    6 ar
    12    5   45 1
    13    6    7 ar
    14    6   46 1
    15    7    8 1
    16    8    9 1
    17    9   10 1
    18    9   47 1
    19    9   48 1
    20   10   11 2
    21   10   12 1
    22   13   14 1
    23   14   19 ar
    24   14   15 ar
    25   15   16 ar
    26   15   49 1
    27   16   17 ar
    28   16   32 1
    29   17   18 ar
    30   18   19 ar
    31   18   20 1
    32   19   50 1
    33   20   21 3
    34   21   22 1
    35   22   27 ar
    36   22   23 ar
    37   23   24 ar
    38   23   51 1
    39   24   25 ar
    40   24   52 1
    41   25   26 ar
    42   25   28 1
    43   26   27 ar
    44   26   53 1
    45   27   54 1
    46   28   29 1
    47   28   30 1
    48   28   31 1
    49   32   33 3
    50   33   34 1
    51   34   35 1
    52   34   55 1
    53   34   56 1
    54   35   40 1
    55   35   36 1
    56   36   37 1
    57   36   57 1
    58   36   58 1
    59   37   38 1
    60   37   59 1
    61   37   60 1
    62   38   39 1
    63   39   40 1
    64   39   61 1
    65   39   62 1
    66   40   63 1
    67   40   64 1
@<TRIPOS>MOLECULE
CHEMBL307728
   55    57     0     0     0
SMALL
USER_CHARGES

@<TRIPOS>ATOM
      1 C1         -0.0187    1.5258    0.0104 C.3       1 <0>        -0.1439
      2 C2          0.0021   -0.0041    0.0020 C.3       1 <0>         0.0904
      3 C3          0.7421   -0.5109    1.2415 C.3       1 <0>        -0.1664
      4 O1         -1.3386   -0.4987    0.0122 O.3       1 <0>        -0.3608
      5 C4         -1.4988   -1.7570   -0.6458 C.3       1 <0>         0.0325
      6 C5         -2.9073   -1.8480   -1.2364 C.3       1 <0>        -0.0631
      7 C6         -3.0669   -0.8098   -2.3171 C.ar      1 <0>        -0.0897
      8 C7         -3.5267    0.4543   -1.9972 C.ar      1 <0>        -0.0609
      9 C8         -3.6743    1.4076   -2.9861 C.ar      1 <0>        -0.1441
     10 C9         -3.3603    1.0958   -4.3009 C.ar      1 <0>         0.1085
     11 C10        -2.8987   -0.1732   -4.6192 C.ar      1 <0>        -0.2058
     12 C11        -2.7479   -1.1213   -3.6259 C.ar      1 <0>        -0.0810
     13 O2         -3.5050    2.0317   -5.2756 O.3       1 <0>        -0.3109
     14 C12        -3.1627    1.6405   -6.6067 C.3       1 <0>         0.1466
     15 C13        -3.3856    2.7994   -7.5439 C.2       1 <0>         0.2630
     16 N1         -4.5243    3.0669   -8.1869 N.2       1 <0>        -0.5112
     17 C14        -4.3819    4.1467   -8.9222 C.2       1 <0>         0.3305
     18 O3         -3.1259    4.5976   -8.7594 O.3       1 <0>        -0.0885
     19 N2         -2.4994    3.7036   -7.8516 N.2       1 <0>        -0.3004
     20 C15        -5.4203    4.7578   -9.7785 C.ar      1 <0>        -0.0392
     21 C16        -6.6920    4.1875   -9.8535 C.ar      1 <0>         0.0226
     22 C17        -7.6567    4.7631  -10.6543 C.ar      1 <0>        -0.1881
     23 C18        -7.3656    5.9030  -11.3825 C.ar      1 <0>         0.0126
     24 C19        -6.1069    6.4731  -11.3131 C.ar      1 <0>        -0.1877
     25 C20        -5.1350    5.9110  -10.5113 C.ar      1 <0>         0.0081
     26 C21        -5.7987    7.7143  -12.1102 C.3       1 <0>         0.5157
     27 F1         -6.0979    8.8464  -11.3447 F         1 <0>        -0.1678
     28 F2         -4.4414    7.7259  -12.4491 F         1 <0>        -0.1688
     29 F3         -6.5707    7.7229  -13.2769 F         1 <0>        -0.1698
     30 C22        -9.0303    4.1488  -10.7364 C.3       1 <0>         0.5155
     31 F4         -9.0833    3.0141   -9.9198 F         1 <0>        -0.1668
     32 F5         -9.9833    5.0781  -10.3059 F         1 <0>        -0.1686
     33 F6         -9.2995    3.7838  -12.0598 F         1 <0>        -0.1689
     34 C23        -1.2975   -2.8725    0.3473 C.2       1 <0>         0.4773
     35 O4         -1.1313   -2.6153    1.5275 O.co2     1 <0>        -0.6719
     36 O5         -1.3010   -4.0320   -0.0293 O.co2     1 <0>        -0.7019
     37 H1          1.0039    1.9031    0.0027 H         1 <0>         0.0586
     38 H2         -0.5459    1.8868   -0.8726 H         1 <0>         0.0530
     39 H3         -0.5289    1.8773    0.9072 H         1 <0>         0.0594
     40 H4          0.5123   -0.3556   -0.8948 H         1 <0>         0.0422
     41 H5          0.7568   -1.6008    1.2356 H         1 <0>         0.0777
     42 H6          1.7647   -0.1336    1.2338 H         1 <0>         0.0380
     43 H7          0.2319   -0.1594    2.1383 H         1 <0>         0.0579
     44 H8         -0.7632   -1.8453   -1.4453 H         1 <0>         0.0477
     45 H9         -3.0600   -2.8404   -1.6606 H         1 <0>         0.0870
     46 H10        -3.6426   -1.6713   -0.4514 H         1 <0>         0.0748
     47 H11        -3.7710    0.6965   -0.9735 H         1 <0>         0.1334
     48 H12        -4.0342    2.3946   -2.7358 H         1 <0>         0.1264
     49 H13        -2.6536   -0.4183   -5.6421 H         1 <0>         0.1234
     50 H14        -2.3844   -2.1080   -3.8724 H         1 <0>         0.1267
     51 H15        -2.1146    1.3430   -6.6397 H         1 <0>         0.0981
     52 H16        -3.7884    0.8015   -6.9110 H         1 <0>         0.1044
     53 H17        -6.9202    3.2973   -9.2860 H         1 <0>         0.1714
     54 H18        -8.1243    6.3495  -12.0082 H         1 <0>         0.1596
     55 H19        -4.1542    6.3595  -10.4546 H         1 <0>         0.1630
@<TRIPOS>BOND
     1    1    2 1
     2    1   37 1
     3    1   38 1
     4    1   39 1
     5    2    3 1
     6    2    4 1
     7    2   40 1
     8    3   41 1
     9    3   42 1
    10    3   43 1
    11    4    5 1
    12    5    6 1
    13    5   34 1
    14    5   44 1
    15    6    7 1
    16    6   45 1
    17    6   46 1
    18    7   12 ar
    19    7    8 ar
    20    8    9 ar
    21    8   47 1
    22    9   10 ar
    23    9   48 1
    24   10   11 ar
    25   10   13 1
    26   11   12 ar
    27   11   49 1
    28   12   50 1
    29   13   14 1
    30   14   15 1
    31   14   51 1
    32   14   52 1
    33   15   19 2
    34   15   16 1
    35   16   17 2
    36   17   18 1
    37   17   20 1
    38   18   19 1
    39   20   25 ar
    40   20   21 ar
    41   21   22 ar
    42   21   53 1
    43   22   23 ar
    44   22   30 1
    45   23   24 ar
    46   23   54 1
    47   24   25 ar
    48   24   26 1
    49   25   55 1
    50   26   27 1
    51   26   28 1
    52   26   29 1
    53   30   31 1
    54   30   32 1
    55   30   33 1
    56   34   35 2
    57   34   36 1
@<TRIPOS>MOLECULE
CHEMBL307728__1
   55    57     0     0     0
SMALL
USER_CHARGES

@<TRIPOS>ATOM
      1 C1         -0.0187    1.5258    0.0104 C.3       1 <0>        -0.1420
      2 C2          0.0021   -0.0041    0.0020 C.3       1 <0>         0.0897
      3 C3          0.7421   -0.5109    1.2415 C.3       1 <0>        -0.1686
      4 O1         -1.3386   -0.4987    0.0122 O.3       1 <0>        -0.3593
      5 C4         -1.4988   -1.7570   -0.6458 C.3       1 <0>         0.0334
      6 C5         -2.6458   -2.5313    0.0067 C.3       1 <0>        -0.0628
      7 C6         -2.2788   -2.8690    1.4288 C.ar      1 <0>        -0.0887
      8 C7         -1.6203   -4.0519    1.7094 C.ar      1 <0>        -0.0813
      9 C8         -1.2832   -4.3639    3.0123 C.ar      1 <0>        -0.1442
     10 C9         -1.6056   -3.4890    4.0395 C.ar      1 <0>         0.1088
     11 C10        -2.2660   -2.3025    3.7553 C.ar      1 <0>        -0.2054
     12 C11        -2.5963   -1.9927    2.4501 C.ar      1 <0>        -0.0596
     13 O2         -1.2755   -3.7939    5.3220 O.3       1 <0>        -0.3112
     14 C12        -1.6387   -2.8464    6.3282 C.3       1 <0>         0.1467
     15 C13        -1.1951   -3.3510    7.6771 C.2       1 <0>         0.2631
     16 N1         -1.9216   -4.1162    8.4946 N.2       1 <0>        -0.5112
     17 C14        -1.2411   -4.3778    9.5879 C.2       1 <0>         0.3303
     18 O3         -0.0446   -3.7732    9.4872 O.3       1 <0>        -0.0886
     19 N2         -0.0388   -3.1149    8.2293 N.2       1 <0>        -0.3003
     20 C15        -1.7094   -5.1930   10.7286 C.ar      1 <0>        -0.0391
     21 C16        -2.9796   -5.7710   10.7024 C.ar      1 <0>         0.0226
     22 C17        -3.4103   -6.5311   11.7701 C.ar      1 <0>        -0.1881
     23 C18        -2.5864   -6.7206   12.8653 C.ar      1 <0>         0.0126
     24 C19        -1.3263   -6.1501   12.8978 C.ar      1 <0>        -0.1877
     25 C20        -0.8810   -5.3929   11.8340 C.ar      1 <0>         0.0080
     26 C21        -0.4359   -6.3615   14.0951 C.3       1 <0>         0.5157
     27 F1          0.3432   -7.5071   13.9004 F         1 <0>        -0.1678
     28 F2          0.3996   -5.2512   14.2568 F         1 <0>        -0.1687
     29 F3         -1.2241   -6.5226   15.2397 F         1 <0>        -0.1698
     30 C22        -4.7814   -7.1559   11.7436 C.3       1 <0>         0.5156
     31 F4         -5.4214   -6.8255   10.5442 F         1 <0>        -0.1668
     32 F5         -4.6622   -8.5464   11.8409 F         1 <0>        -0.1686
     33 F6         -5.5335   -6.6758   12.8211 F         1 <0>        -0.1689
     34 C23        -1.8128   -1.5263   -2.1016 C.2       1 <0>         0.4768
     35 O4         -1.8975   -2.4735   -2.8645 O.co2     1 <0>        -0.7005
     36 O5         -1.9820   -0.3924   -2.5164 O.co2     1 <0>        -0.6788
     37 H1          1.0039    1.9031    0.0027 H         1 <0>         0.0555
     38 H2         -0.5459    1.8868   -0.8726 H         1 <0>         0.0676
     39 H3         -0.5289    1.8773    0.9072 H         1 <0>         0.0532
     40 H4          0.5123   -0.3556   -0.8948 H         1 <0>         0.0523
     41 H5          0.7568   -1.6008    1.2356 H         1 <0>         0.0507
     42 H6          1.7647   -0.1336    1.2338 H         1 <0>         0.0542
     43 H7          0.2319   -0.1594    2.1383 H         1 <0>         0.0556
     44 H8         -0.5769   -2.3321   -0.5597 H         1 <0>         0.0488
     45 H9         -3.5477   -1.9193   -0.0003 H         1 <0>         0.0743
     46 H10        -2.8264   -3.4509   -0.5500 H         1 <0>         0.0875
     47 H11        -1.3695   -4.7327    0.9094 H         1 <0>         0.1306
     48 H12        -0.7694   -5.2884    3.2310 H         1 <0>         0.1261
     49 H13        -2.5181   -1.6197    4.5532 H         1 <0>         0.1230
     50 H14        -3.1064   -1.0671    2.2278 H         1 <0>         0.1288
     51 H15        -1.1549   -1.8920    6.1202 H         1 <0>         0.0984
     52 H16        -2.7206   -2.7129    6.3280 H         1 <0>         0.1044
     53 H17        -3.6239   -5.6232    9.8484 H         1 <0>         0.1714
     54 H18        -2.9285   -7.3162   13.6987 H         1 <0>         0.1596
     55 H19         0.1045   -4.9518   11.8587 H         1 <0>         0.1630
@<TRIPOS>BOND
     1    1    2 1
     2    1   37 1
     3    1   38 1
     4    1   39 1
     5    2    3 1
     6    2    4 1
     7    2   40 1
     8    3   41 1
     9    3   42 1
    10    3   43 1
    11    4    5 1
    12    5    6 1
    13    5   34 1
    14    5   44 1
    15    6    7 1
    16    6   45 1
    17    6   46 1
    18    7   12 ar
    19    7    8 ar
    20    8    9 ar
    21    8   47 1
    22    9   10 ar
    23    9   48 1
    24   10   11 ar
    25   10   13 1
    26   11   12 ar
    27   11   49 1
    28   12   50 1
    29   13   14 1
    30   14   15 1
    31   14   51 1
    32   14   52 1
    33   15   19 2
    34   15   16 1
    35   16   17 2
    36   17   18 1
    37   17   20 1
    38   18   19 1
    39   20   25 ar
    40   20   21 ar
    41   21   22 ar
    42   21   53 1
    43   22   23 ar
    44   22   30 1
    45   23   24 ar
    46   23   54 1
    47   24   25 ar
    48   24   26 1
    49   25   55 1
    50   26   27 1
    51   26   28 1
    52   26   29 1
    53   30   31 1
    54   30   32 1
    55   30   33 1
    56   34   35 2
    57   34   36 1
@<TRIPOS>MOLECULE
CHEMBL198163
   54    55     0     0     0
SMALL
USER_CHARGES

@<TRIPOS>ATOM
      1 C1         -0.0187    1.5258    0.0104 C.3       1 <0>        -0.1531
      2 C2          0.0021   -0.0041    0.0020 C.3       1 <0>        -0.1258
      3 C3         -1.4333   -0.5336    0.0129 C.3       1 <0>        -0.1156
      4 C4         -1.4126   -2.0635    0.0045 C.3       1 <0>        -0.1222
      5 C5         -2.8479   -2.5931    0.0153 C.3       1 <0>         0.0591
      6 O1         -2.8286   -4.0219    0.0075 O.3       1 <0>        -0.3095
      7 C6         -4.0308   -4.6552    0.0155 C.ar      1 <0>         0.1531
      8 C7         -5.1809   -3.9181    0.0248 C.ar      1 <0>        -0.2143
      9 C8         -6.4238   -4.5714    0.0327 C.ar      1 <0>        -0.0118
     10 C9         -7.6285   -3.8466    0.0417 C.ar      1 <0>        -0.1195
     11 C10        -8.8150   -4.5129    0.0488 C.ar      1 <0>        -0.1056
     12 C11        -8.8558   -5.9061    0.0472 C.ar      1 <0>        -0.1318
     13 C12        -7.7102   -6.6408    0.0385 C.ar      1 <0>        -0.0908
     14 C13        -6.4655   -5.9885    0.0310 C.ar      1 <0>        -0.0793
     15 C14        -5.2623   -6.7150    0.0222 C.ar      1 <0>        -0.0618
     16 C15        -4.0744   -6.0526    0.0085 C.ar      1 <0>        -0.1290
     17 C16        -2.7871   -6.8360   -0.0076 C.3       1 <0>         0.1600
     18 C17        -2.2993   -6.9860   -1.4499 C.3       1 <0>        -0.0189
     19 C18        -0.9834   -7.6456   -1.4568 C.1       1 <0>        -0.2156
     20 C19         0.0661   -8.1716   -1.4622 C.1       1 <0>        -0.1459
     21 C20         1.3821   -8.8312   -1.4690 C.3       1 <0>        -0.0150
     22 C21         1.8699   -8.9812   -2.9114 C.3       1 <0>        -0.0871
     23 C22         3.2377   -9.6668   -2.9185 C.3       1 <0>        -0.1844
     24 C23         3.7181   -9.8146   -4.3392 C.2       1 <0>         0.4885
     25 O2          3.0303   -9.4091   -5.2606 O.co2     1 <0>        -0.6990
     26 O3          4.7947  -10.3396   -4.5672 O.co2     1 <0>        -0.7083
     27 O4         -3.0098   -8.1297    0.5570 O.3       1 <0>        -0.5481
     28 H1          1.0039    1.9031    0.0027 H         1 <0>         0.0551
     29 H2         -0.5459    1.8868   -0.8726 H         1 <0>         0.0536
     30 H3         -0.5289    1.8773    0.9072 H         1 <0>         0.0528
     31 H4          0.5123   -0.3556   -0.8948 H         1 <0>         0.0653
     32 H5          0.5293   -0.3651    0.8851 H         1 <0>         0.0638
     33 H6         -1.9435   -0.1821    0.9097 H         1 <0>         0.0637
     34 H7         -1.9605   -0.1726   -0.8702 H         1 <0>         0.0647
     35 H8         -0.9024   -2.4150   -0.8923 H         1 <0>         0.0775
     36 H9         -0.8854   -2.4246    0.8875 H         1 <0>         0.0754
     37 H10        -3.3581   -2.2415    0.9121 H         1 <0>         0.0625
     38 H11        -3.3751   -2.2320   -0.8677 H         1 <0>         0.0637
     39 H12        -5.1344   -2.8391    0.0264 H         1 <0>         0.1332
     40 H13        -7.6122   -2.7668    0.0434 H         1 <0>         0.1244
     41 H14        -9.7390   -3.9537    0.0561 H         1 <0>         0.1217
     42 H15        -9.8109   -6.4102    0.0533 H         1 <0>         0.1222
     43 H16        -7.7575   -7.7197    0.0377 H         1 <0>         0.1277
     44 H17        -5.2810   -7.7949    0.0211 H         1 <0>         0.1368
     45 H18        -2.0337   -6.3089    0.5778 H         1 <0>         0.1170
     46 H19        -3.0111   -7.5894   -2.0133 H         1 <0>         0.0841
     47 H20        -2.2145   -6.0011   -1.9091 H         1 <0>         0.0936
     48 H21         2.0939   -8.2278   -0.9057 H         1 <0>         0.0807
     49 H22         1.2972   -9.8161   -1.0099 H         1 <0>         0.0813
     50 H23         1.1581   -9.5846   -3.4748 H         1 <0>         0.0620
     51 H24         1.9547   -7.9963   -3.3706 H         1 <0>         0.0619
     52 H25         3.9494   -9.0634   -2.3551 H         1 <0>         0.0578
     53 H26         3.1528  -10.6517   -2.4594 H         1 <0>         0.0580
     54 H27        -3.6700   -8.6562    0.0858 H         1 <0>         0.3711
@<TRIPOS>BOND
     1    1    2 1
     2    1   28 1
     3    1   29 1
     4    1   30 1
     5    2    3 1
     6    2   31 1
     7    2   32 1
     8    3    4 1
     9    3   33 1
    10    3   34 1
    11    4    5 1
    12    4   35 1
    13    4   36 1
    14    5    6 1
    15    5   37 1
    16    5   38 1
    17    6    7 1
    18    7   16 ar
    19    7    8 ar
    20    8    9 ar
    21    8   39 1
    22    9   14 ar
    23    9   10 ar
    24   10   11 ar
    25   10   40 1
    26   11   12 ar
    27   11   41 1
    28   12   13 ar
    29   12   42 1
    30   13   14 ar
    31   13   43 1
    32   14   15 ar
    33   15   16 ar
    34   15   44 1
    35   16   17 1
    36   17   18 1
    37   17   27 1
    38   17   45 1
    39   18   19 1
    40   18   46 1
    41   18   47 1
    42   19   20 3
    43   20   21 1
    44   21   22 1
    45   21   48 1
    46   21   49 1
    47   22   23 1
    48   22   50 1
    49   22   51 1
    50   23   24 1
    51   23   52 1
    52   23   53 1
    53   24   25 2
    54   24   26 1
    55   27   54 1
@<TRIPOS>MOLECULE
CHEMBL198163__1
   54    55     0     0     0
SMALL
USER_CHARGES

@<TRIPOS>ATOM
      1 C1         -0.0187    1.5258    0.0104 C.3       1 <0>        -0.1531
      2 C2          0.0021   -0.0041    0.0020 C.3       1 <0>        -0.1258
      3 C3         -1.4333   -0.5336    0.0129 C.3       1 <0>        -0.1156
      4 C4         -1.4126   -2.0635    0.0045 C.3       1 <0>        -0.1222
      5 C5         -2.8479   -2.5931    0.0153 C.3       1 <0>         0.0591
      6 O1         -2.8286   -4.0219    0.0075 O.3       1 <0>        -0.3095
      7 C6         -4.0308   -4.6552    0.0155 C.ar      1 <0>         0.1531
      8 C7         -5.1809   -3.9181    0.0248 C.ar      1 <0>        -0.2142
      9 C8         -6.4238   -4.5714    0.0327 C.ar      1 <0>        -0.0118
     10 C9         -7.6285   -3.8466    0.0417 C.ar      1 <0>        -0.1195
     11 C10        -8.8150   -4.5129    0.0488 C.ar      1 <0>        -0.1056
     12 C11        -8.8558   -5.9061    0.0472 C.ar      1 <0>        -0.1318
     13 C12        -7.7102   -6.6408    0.0385 C.ar      1 <0>        -0.0908
     14 C13        -6.4655   -5.9885    0.0310 C.ar      1 <0>        -0.0792
     15 C14        -5.2623   -6.7150    0.0222 C.ar      1 <0>        -0.0619
     16 C15        -4.0744   -6.0526    0.0085 C.ar      1 <0>        -0.1288
     17 C16        -2.7871   -6.8360   -0.0076 C.3       1 <0>         0.1601
     18 C17        -2.2729   -7.0014    1.4239 C.3       1 <0>        -0.0190
     19 C18        -0.9572   -7.6609    1.3995 C.1       1 <0>        -0.2156
     20 C19         0.0922   -8.1869    1.3800 C.1       1 <0>        -0.1459
     21 C20         1.4080   -8.8464    1.3556 C.3       1 <0>        -0.0150
     22 C21         1.9222   -9.0118    2.7871 C.3       1 <0>        -0.0871
     23 C22         3.2898   -9.6972    2.7618 C.3       1 <0>        -0.1844
     24 C23         3.7963   -9.8602    4.1717 C.2       1 <0>         0.4885
     25 O2          3.1256   -9.4647    5.1099 O.co2     1 <0>        -0.6990
     26 O3          4.8768  -10.3875    4.3742 O.co2     1 <0>        -0.7083
     27 O4         -3.0202   -8.1236   -0.5817 O.3       1 <0>        -0.5480
     28 H1          1.0039    1.9031    0.0027 H         1 <0>         0.0551
     29 H2         -0.5459    1.8868   -0.8726 H         1 <0>         0.0528
     30 H3         -0.5289    1.8773    0.9072 H         1 <0>         0.0536
     31 H4          0.5123   -0.3556   -0.8948 H         1 <0>         0.0638
     32 H5          0.5293   -0.3651    0.8851 H         1 <0>         0.0653
     33 H6         -1.9435   -0.1821    0.9097 H         1 <0>         0.0647
     34 H7         -1.9605   -0.1726   -0.8702 H         1 <0>         0.0637
     35 H8         -0.9024   -2.4150   -0.8923 H         1 <0>         0.0754
     36 H9         -0.8854   -2.4246    0.8875 H         1 <0>         0.0775
     37 H10        -3.3581   -2.2415    0.9121 H         1 <0>         0.0637
     38 H11        -3.3751   -2.2320   -0.8677 H         1 <0>         0.0625
     39 H12        -5.1344   -2.8391    0.0264 H         1 <0>         0.1332
     40 H13        -7.6122   -2.7668    0.0434 H         1 <0>         0.1244
     41 H14        -9.7390   -3.9537    0.0561 H         1 <0>         0.1217
     42 H15        -9.8109   -6.4102    0.0533 H         1 <0>         0.1222
     43 H16        -7.7575   -7.7197    0.0377 H         1 <0>         0.1277
     44 H17        -5.2810   -7.7949    0.0211 H         1 <0>         0.1366
     45 H18        -2.0446   -6.3026   -0.6010 H         1 <0>         0.1170
     46 H19        -2.1796   -6.0214    1.8920 H         1 <0>         0.0936
     47 H20        -2.9743   -7.6109    1.9938 H         1 <0>         0.0841
     48 H21         1.3146   -9.8263    0.8876 H         1 <0>         0.0813
     49 H22         2.1094   -8.2369    0.7858 H         1 <0>         0.0808
     50 H23         2.0156   -8.0318    3.2552 H         1 <0>         0.0619
     51 H24         1.2208   -9.6212    3.3570 H         1 <0>         0.0620
     52 H25         3.1964  -10.6772    2.2937 H         1 <0>         0.0579
     53 H26         3.9912   -9.0878    2.1919 H         1 <0>         0.0578
     54 H27        -3.6718   -8.6551   -0.1041 H         1 <0>         0.3711
@<TRIPOS>BOND
     1    1    2 1
     2    1   28 1
     3    1   29 1
     4    1   30 1
     5    2    3 1
     6    2   31 1
     7    2   32 1
     8    3    4 1
     9    3   33 1
    10    3   34 1
    11    4    5 1
    12    4   35 1
    13    4   36 1
    14    5    6 1
    15    5   37 1
    16    5   38 1
    17    6    7 1
    18    7   16 ar
    19    7    8 ar
    20    8    9 ar
    21    8   39 1
    22    9   14 ar
    23    9   10 ar
    24   10   11 ar
    25   10   40 1
    26   11   12 ar
    27   11   41 1
    28   12   13 ar
    29   12   42 1
    30   13   14 ar
    31   13   43 1
    32   14   15 ar
    33   15   16 ar
    34   15   44 1
    35   16   17 1
    36   17   18 1
    37   17   27 1
    38   17   45 1
    39   18   19 1
    40   18   46 1
    41   18   47 1
    42   19   20 3
    43   20   21 1
    44   21   22 1
    45   21   48 1
    46   21   49 1
    47   22   23 1
    48   22   50 1
    49   22   51 1
    50   23   24 1
    51   23   52 1
    52   23   53 1
    53   24   25 2
    54   24   26 1
    55   27   54 1
@<TRIPOS>MOLECULE
CHEMBL424133
   56    58     0     0     0
SMALL
USER_CHARGES

@<TRIPOS>ATOM
      1 C1          1.0549    1.6732    0.2565 C.3       1 <0>        -0.1169
      2 C2          1.0469    0.1663    0.2642 C.ar      1 <0>        -0.0766
      3 C3          0.9254   -0.5303   -0.9237 C.ar      1 <0>        -0.1256
      4 C4          0.9181   -1.9126   -0.9167 C.ar      1 <0>        -0.0841
      5 C5          1.0326   -2.5984    0.2780 C.ar      1 <0>        -0.1271
      6 C6          1.1550   -1.9018    1.4658 C.ar      1 <0>        -0.0903
      7 C7          1.1667   -0.5195    1.4584 C.ar      1 <0>        -0.1279
      8 C8          1.0236   -4.1053    0.2857 C.3       1 <0>         0.2026
      9 N1          2.3951   -4.6025    0.1513 N.am      1 <0>        -0.4468
     10 C9          3.2498   -4.8742    1.1596 C.2       1 <0>         0.6477
     11 N2          4.4008   -5.3069    0.6068 N.am      1 <0>        -0.6600
     12 C10         4.2530   -5.3016   -0.7588 C.2       1 <0>         0.2795
     13 N3          3.0608   -4.8900   -1.0483 N.2       1 <0>        -0.2656
     14 C11         5.3046   -5.7141   -1.7563 C.3       1 <0>        -0.0456
     15 C12         4.7493   -5.5643   -3.1741 C.3       1 <0>        -0.1048
     16 C13         5.8170   -5.9831   -4.1868 C.3       1 <0>        -0.0667
     17 C14         5.2701   -5.8355   -5.5833 C.ar      1 <0>        -0.1407
     18 C15         4.6100   -6.8930   -6.1813 C.ar      1 <0>        -0.0897
     19 C16         4.1082   -6.7605   -7.4616 C.ar      1 <0>        -0.1711
     20 C17         4.2666   -5.5648   -8.1471 C.ar      1 <0>         0.1670
     21 C18         4.9289   -4.5050   -7.5447 C.ar      1 <0>        -0.1576
     22 C19         5.4244   -4.6409   -6.2623 C.ar      1 <0>        -0.0896
     23 O1          3.7742   -5.4320   -9.4067 O.3       1 <0>        -0.3042
     24 C20         3.8627   -4.1372  -10.0048 C.3       1 <0>         0.0303
     25 C21         3.2267   -4.1734  -11.3959 C.3       1 <0>        -0.1153
     26 C22         3.1233   -3.1209   -9.1322 C.3       1 <0>        -0.1752
     27 C23         5.3107   -3.7372  -10.1247 C.2       1 <0>         0.4823
     28 O2          6.1857   -4.4910   -9.7342 O.co2     1 <0>        -0.6696
     29 O3          5.6070   -2.6596  -10.6122 O.co2     1 <0>        -0.6872
     30 O4          3.0232   -4.7508    2.3501 O.2       1 <0>        -0.5599
     31 H1          2.0790    2.0306    0.1487 H         1 <0>         0.0713
     32 H2          0.4539    2.0356   -0.5775 H         1 <0>         0.0678
     33 H3          0.6375    2.0435    1.1929 H         1 <0>         0.0660
     34 H4          0.8359    0.0055   -1.8571 H         1 <0>         0.1246
     35 H5          0.8224   -2.4568   -1.8447 H         1 <0>         0.1273
     36 H6          1.2442   -2.4376    2.3993 H         1 <0>         0.1252
     37 H7          1.2660    0.0246    2.3860 H         1 <0>         0.1216
     38 H8          0.5984   -4.4613    1.2241 H         1 <0>         0.1019
     39 H9          0.4219   -4.4693   -0.5470 H         1 <0>         0.1041
     40 H10         6.1833   -5.0794   -1.6413 H         1 <0>         0.0982
     41 H11         5.5820   -6.7538   -1.5827 H         1 <0>         0.0982
     42 H12         3.8706   -6.1989   -3.2891 H         1 <0>         0.0745
     43 H13         4.4719   -4.5245   -3.3477 H         1 <0>         0.0744
     44 H14         6.6957   -5.3484   -4.0718 H         1 <0>         0.0675
     45 H15         6.0945   -7.0228   -4.0133 H         1 <0>         0.0670
     46 H16         4.4870   -7.8237   -5.6473 H         1 <0>         0.1158
     47 H17         3.5933   -7.5871   -7.9285 H         1 <0>         0.1182
     48 H18         5.0535   -3.5732   -8.0763 H         1 <0>         0.1381
     49 H19         5.9362   -3.8148   -5.7912 H         1 <0>         0.1121
     50 H20         2.1603   -4.3787  -11.3026 H         1 <0>         0.0501
     51 H21         3.3698   -3.2104  -11.8859 H         1 <0>         0.0779
     52 H22         3.6969   -4.9569  -11.9901 H         1 <0>         0.0565
     53 H23         3.4884   -3.1882   -8.1074 H         1 <0>         0.0700
     54 H24         3.3003   -2.1160   -9.5157 H         1 <0>         0.0738
     55 H25         2.0546   -3.3343   -9.1520 H         1 <0>         0.0501
     56 H26         5.1972   -5.5760    1.0907 H         1 <0>         0.4366
@<TRIPOS>BOND
     1    1    2 1
     2    1   31 1
     3    1   32 1
     4    1   33 1
     5    2    7 ar
     6    2    3 ar
     7    3    4 ar
     8    3   34 1
     9    4    5 ar
    10    4   35 1
    11    5    6 ar
    12    5    8 1
    13    6    7 ar
    14    6   36 1
    15    7   37 1
    16    8   38 1
    17    8   39 1
    18    8    9 1
    19    9   13 1
    20    9   10 am
    21   10   30 2
    22   10   11 am
    23   11   56 1
    24   11   12 1
    25   12   14 1
    26   12   13 2
    27   14   15 1
    28   14   40 1
    29   14   41 1
    30   15   16 1
    31   15   42 1
    32   15   43 1
    33   16   17 1
    34   16   44 1
    35   16   45 1
    36   17   22 ar
    37   17   18 ar
    38   18   19 ar
    39   18   46 1
    40   19   20 ar
    41   19   47 1
    42   20   21 ar
    43   20   23 1
    44   21   22 ar
    45   21   48 1
    46   22   49 1
    47   23   24 1
    48   24   25 1
    49   24   26 1
    50   24   27 1
    51   25   50 1
    52   25   51 1
    53   25   52 1
    54   26   53 1
    55   26   54 1
    56   26   55 1
    57   27   28 2
    58   27   29 1
@<TRIPOS>MOLECULE
CHEMBL428574
   64    68     0     0     0
SMALL
USER_CHARGES

@<TRIPOS>ATOM
      1 C1          0.2807    1.7160    0.2068 C.3       1 <0>        -0.1475
      2 C2          0.0572    0.2097    0.0584 C.3       1 <0>        -0.1028
      3 C3          0.6721   -0.2699   -1.2579 C.3       1 <0>         0.0149
      4 C4          0.3464   -1.7269   -1.4631 C.2       1 <0>         0.4793
      5 O1         -0.8107   -2.0761   -1.6236 O.co2     1 <0>        -0.6917
      6 O2          1.2398   -2.5565   -1.4686 O.co2     1 <0>        -0.6732
      7 O3          2.0903   -0.1010   -1.2105 O.3       1 <0>        -0.2924
      8 C5          2.7368    0.0241   -2.3993 C.ar      1 <0>         0.1669
      9 C6          2.0380   -0.1221   -3.5891 C.ar      1 <0>        -0.1904
     10 C7          2.6973    0.0061   -4.7961 C.ar      1 <0>        -0.0798
     11 C8          4.0526    0.2798   -4.8194 C.ar      1 <0>        -0.1544
     12 C9          4.7512    0.4255   -3.6353 C.ar      1 <0>        -0.0885
     13 C10         4.0952    0.3039   -2.4254 C.ar      1 <0>        -0.1477
     14 C11         6.2281    0.7233   -3.6644 C.3       1 <0>         0.1650
     15 N1          6.4336    2.1738   -3.6792 N.pl3     1 <0>        -0.5540
     16 C12         6.5593    2.9087   -2.4181 C.3       1 <0>         0.1404
     17 C13         8.0311    2.9620   -2.0034 C.3       1 <0>        -0.1375
     18 C14         8.1624    3.7295   -0.6864 C.3       1 <0>         0.0636
     19 O4          9.5370    3.7793   -0.2991 O.3       1 <0>        -0.3137
     20 C15         9.8289    4.4302    0.8577 C.ar      1 <0>         0.1328
     21 C16         8.8125    5.0041    1.6075 C.ar      1 <0>        -0.2087
     22 C17         9.1118    5.6648    2.7832 C.ar      1 <0>        -0.0798
     23 C18        10.4230    5.7547    3.2126 C.ar      1 <0>        -0.1618
     24 C19        11.4378    5.1840    2.4669 C.ar      1 <0>        -0.0820
     25 C20        11.1431    4.5169    1.2936 C.ar      1 <0>        -0.1547
     26 C21         6.5086    2.8466   -4.8789 C.2       1 <0>         0.5225
     27 N2          6.6950    4.1350   -5.0053 N.2       1 <0>        -0.5374
     28 C22         6.7151    4.4454   -6.3321 C.ar      1 <0>         0.0852
     29 C23         6.8760    5.6384   -7.0385 C.ar      1 <0>        -0.0695
     30 C24         6.8475    5.6285   -8.4191 C.ar      1 <0>         0.0489
     31 C25         6.6585    4.4291   -9.1090 C.ar      1 <0>         0.0363
     32 C26         6.4985    3.2437   -8.4141 C.ar      1 <0>        -0.0603
     33 C27         6.5258    3.2435   -7.0284 C.ar      1 <0>         0.0012
     34 O5          6.4068    2.2737   -6.0913 O.3       1 <0>        -0.2199
     35 O6          6.6706    4.6924  -10.4496 O.3       1 <0>        -0.3026
     36 C28         6.4579    6.1116  -10.5650 C.3       1 <0>         0.2140
     37 O7          6.9774    6.6383   -9.3300 O.3       1 <0>        -0.3042
     38 H1          1.3502    1.9263    0.2075 H         1 <0>         0.0551
     39 H2         -0.1915    2.2371   -0.6260 H         1 <0>         0.0482
     40 H3         -0.1574    2.0577    1.1446 H         1 <0>         0.0508
     41 H4          0.5294   -0.3115    0.8912 H         1 <0>         0.0668
     42 H5         -1.0123   -0.0006    0.0577 H         1 <0>         0.0841
     43 H6          0.2641    0.3134   -2.0833 H         1 <0>         0.0646
     44 H7          0.9796   -0.3362   -3.5715 H         1 <0>         0.1281
     45 H8          2.1539   -0.1080   -5.7224 H         1 <0>         0.1194
     46 H9          4.5663    0.3797   -5.7641 H         1 <0>         0.1159
     47 H10         4.6404    0.4222   -1.5007 H         1 <0>         0.1244
     48 H11         6.7020    0.2983   -2.7795 H         1 <0>         0.1020
     49 H12         6.6697    0.2846   -4.5591 H         1 <0>         0.0923
     50 H13         6.1819    3.9228   -2.5494 H         1 <0>         0.0956
     51 H14         5.9818    2.4035   -1.6440 H         1 <0>         0.0952
     52 H15         8.4085    1.9479   -1.8721 H         1 <0>         0.0790
     53 H16         8.6086    3.4673   -2.7775 H         1 <0>         0.0822
     54 H17         7.7850    4.7436   -0.8177 H         1 <0>         0.0672
     55 H18         7.5849    3.2243    0.0877 H         1 <0>         0.0669
     56 H19         7.7882    4.9347    1.2722 H         1 <0>         0.1292
     57 H20         8.3209    6.1117    3.3673 H         1 <0>         0.1245
     58 H21        10.6549    6.2720    4.1319 H         1 <0>         0.1223
     59 H22        12.4613    5.2559    2.8042 H         1 <0>         0.1276
     60 H23        11.9356    4.0674    0.7137 H         1 <0>         0.1293
     61 H24         7.0220    6.5670   -6.5067 H         1 <0>         0.1465
     62 H25         6.3525    2.3183   -8.9514 H         1 <0>         0.1460
     63 H26         7.0096    6.5135  -11.4148 H         1 <0>         0.1338
     64 H27         5.3947    6.3329  -10.6583 H         1 <0>         0.0869
@<TRIPOS>BOND
     1    1    2 1
     2    1   38 1
     3    1   39 1
     4    1   40 1
     5    2    3 1
     6    2   41 1
     7    2   42 1
     8    3    4 1
     9    3    7 1
    10    3   43 1
    11    4    5 2
    12    4    6 1
    13    7    8 1
    14    8   13 ar
    15    8    9 ar
    16    9   10 ar
    17    9   44 1
    18   10   11 ar
    19   10   45 1
    20   11   12 ar
    21   11   46 1
    22   12   13 ar
    23   12   14 1
    24   13   47 1
    25   14   15 1
    26   14   48 1
    27   14   49 1
    28   15   16 1
    29   15   26 1
    30   16   17 1
    31   16   50 1
    32   16   51 1
    33   17   18 1
    34   17   52 1
    35   17   53 1
    36   18   19 1
    37   18   54 1
    38   18   55 1
    39   19   20 1
    40   20   25 ar
    41   20   21 ar
    42   21   22 ar
    43   21   56 1
    44   22   23 ar
    45   22   57 1
    46   23   24 ar
    47   23   58 1
    48   24   25 ar
    49   24   59 1
    50   25   60 1
    51   26   34 1
    52   26   27 2
    53   27   28 1
    54   28   33 ar
    55   28   29 ar
    56   29   30 ar
    57   29   61 1
    58   30   37 1
    59   30   31 ar
    60   31   32 ar
    61   31   35 1
    62   32   33 ar
    63   32   62 1
    64   33   34 1
    65   35   36 1
    66   36   37 1
    67   36   63 1
    68   36   64 1
@<TRIPOS>MOLECULE
CHEMBL428574__1
   64    68     0     0     0
SMALL
USER_CHARGES

@<TRIPOS>ATOM
      1 C1         -1.8426   -2.2154   -1.4397 C.3       1 <0>        -0.1478
      2 C2         -2.0988   -0.7135   -1.2994 C.3       1 <0>        -0.1034
      3 C3         -1.4558    0.0255   -2.4746 C.3       1 <0>         0.0158
      4 C4         -1.8112    1.4882   -2.4033 C.2       1 <0>         0.4790
      5 O1         -0.9389    2.3191   -2.2157 O.co2     1 <0>        -0.6723
      6 O2         -2.9711    1.8408   -2.5331 O.co2     1 <0>        -0.6912
      7 O3         -0.0359   -0.1233   -2.4115 O.3       1 <0>        -0.2922
      8 C5          0.6500    0.0014   -3.5780 C.ar      1 <0>         0.1662
      9 C6          2.0148   -0.2466   -3.6116 C.ar      1 <0>        -0.1570
     10 C7          2.7096   -0.1197   -4.7986 C.ar      1 <0>        -0.0851
     11 C8          2.0462    0.2542   -5.9529 C.ar      1 <0>        -0.1552
     12 C9          0.6865    0.5023   -5.9220 C.ar      1 <0>        -0.0818
     13 C10        -0.0141    0.3712   -4.7383 C.ar      1 <0>        -0.1807
     14 C11        -0.0332    0.9101   -7.1816 C.3       1 <0>         0.1597
     15 N1         -0.5153   -0.2856   -7.8775 N.pl3     1 <0>        -0.5521
     16 C12        -1.8473   -0.8186   -7.5810 C.3       1 <0>         0.1394
     17 C13        -2.8739   -0.1739   -8.5145 C.3       1 <0>        -0.1370
     18 C14        -4.2650   -0.7306   -8.2049 C.3       1 <0>         0.0630
     19 O4         -5.2239   -0.1284   -9.0768 O.3       1 <0>        -0.3132
     20 C15        -6.5183   -0.5161   -8.9321 C.ar      1 <0>         0.1339
     21 C16        -6.8595   -1.4525   -7.9670 C.ar      1 <0>        -0.2077
     22 C17        -8.1761   -1.8445   -7.8216 C.ar      1 <0>        -0.0794
     23 C18        -9.1535   -1.3049   -8.6373 C.ar      1 <0>        -0.1626
     24 C19        -8.8159   -0.3719   -9.6003 C.ar      1 <0>        -0.0826
     25 C20        -7.5017    0.0280   -9.7455 C.ar      1 <0>        -0.1550
     26 C21         0.2840   -0.9088   -8.8105 C.2       1 <0>         0.5243
     27 N2         -0.0498   -1.9748   -9.4909 N.2       1 <0>        -0.5383
     28 C22         0.9826   -2.3073  -10.3160 C.ar      1 <0>         0.0867
     29 C23         1.1798   -3.3290  -11.2463 C.ar      1 <0>        -0.0700
     30 C24         2.3687   -3.4017  -11.9452 C.ar      1 <0>         0.0488
     31 C25         3.3724   -2.4565  -11.7235 C.ar      1 <0>         0.0345
     32 C26         3.1826   -1.4418  -10.8027 C.ar      1 <0>        -0.0597
     33 C27         1.9929   -1.3604  -10.0965 C.ar      1 <0>        -0.0002
     34 O5          1.5189   -0.5065   -9.1589 O.3       1 <0>        -0.2205
     35 O6          4.4333   -2.7516  -12.5325 O.3       1 <0>        -0.3030
     36 C28         4.2328   -4.1153  -12.9481 C.3       1 <0>         0.2141
     37 O7          2.8042   -4.2849  -12.8920 O.3       1 <0>        -0.3043
     38 H1         -2.2758   -2.5722   -2.3741 H         1 <0>         0.0479
     39 H2         -0.7687   -2.4020   -1.4425 H         1 <0>         0.0555
     40 H3         -2.3007   -2.7419   -0.6024 H         1 <0>         0.0509
     41 H4         -3.1727   -0.5269   -1.2966 H         1 <0>         0.0840
     42 H5         -1.6656   -0.3567   -0.3650 H         1 <0>         0.0668
     43 H6         -1.8235   -0.3925   -3.4117 H         1 <0>         0.0621
     44 H7          2.5334   -0.5383   -2.7103 H         1 <0>         0.1254
     45 H8          3.7719   -0.3122   -4.8251 H         1 <0>         0.1225
     46 H9          2.5912    0.3529   -6.8800 H         1 <0>         0.1160
     47 H10        -1.0771    0.5607   -4.7156 H         1 <0>         0.1273
     48 H11        -0.8795    1.5478   -6.9263 H         1 <0>         0.1036
     49 H12         0.6511    1.4568   -7.8303 H         1 <0>         0.0927
     50 H13        -1.8481   -1.8983   -7.7303 H         1 <0>         0.0961
     51 H14        -2.1062   -0.5947   -6.5462 H         1 <0>         0.0944
     52 H15        -2.8731    0.9058   -8.3652 H         1 <0>         0.0803
     53 H16        -2.6150   -0.3978   -9.5494 H         1 <0>         0.0819
     54 H17        -4.2658   -1.8103   -8.3542 H         1 <0>         0.0667
     55 H18        -4.5239   -0.5067   -7.1700 H         1 <0>         0.0696
     56 H19        -6.0964   -1.8748   -7.3300 H         1 <0>         0.1294
     57 H20        -8.4423   -2.5734   -7.0704 H         1 <0>         0.1243
     58 H21       -10.1822   -1.6130   -8.5224 H         1 <0>         0.1217
     59 H22        -9.5811    0.0478  -10.2365 H         1 <0>         0.1270
     60 H23        -7.2392    0.7601  -10.4949 H         1 <0>         0.1290
     61 H24         0.4047   -4.0610  -11.4189 H         1 <0>         0.1464
     62 H25         3.9616   -0.7130  -10.6342 H         1 <0>         0.1455
     63 H26         4.5962   -4.2629  -13.9650 H         1 <0>         0.1333
     64 H27         4.7270   -4.8016  -12.2605 H         1 <0>         0.0863
@<TRIPOS>BOND
     1    1    2 1
     2    1   38 1
     3    1   39 1
     4    1   40 1
     5    2    3 1
     6    2   41 1
     7    2   42 1
     8    3    4 1
     9    3    7 1
    10    3   43 1
    11    4    5 2
    12    4    6 1
    13    7    8 1
    14    8   13 ar
    15    8    9 ar
    16    9   10 ar
    17    9   44 1
    18   10   11 ar
    19   10   45 1
    20   11   12 ar
    21   11   46 1
    22   12   13 ar
    23   12   14 1
    24   13   47 1
    25   14   15 1
    26   14   48 1
    27   14   49 1
    28   15   16 1
    29   15   26 1
    30   16   17 1
    31   16   50 1
    32   16   51 1
    33   17   18 1
    34   17   52 1
    35   17   53 1
    36   18   19 1
    37   18   54 1
    38   18   55 1
    39   19   20 1
    40   20   25 ar
    41   20   21 ar
    42   21   22 ar
    43   21   56 1
    44   22   23 ar
    45   22   57 1
    46   23   24 ar
    47   23   58 1
    48   24   25 ar
    49   24   59 1
    50   25   60 1
    51   26   34 1
    52   26   27 2
    53   27   28 1
    54   28   33 ar
    55   28   29 ar
    56   29   30 ar
    57   29   61 1
    58   30   37 1
    59   30   31 ar
    60   31   32 ar
    61   31   35 1
    62   32   33 ar
    63   32   62 1
    64   33   34 1
    65   35   36 1
    66   36   37 1
    67   36   63 1
    68   36   64 1
@<TRIPOS>MOLECULE
CHEMBL383607
   53    54     0     0     0
SMALL
USER_CHARGES

@<TRIPOS>ATOM
      1 C1         -0.0187    1.5258    0.0104 C.3       1 <0>        -0.1530
      2 C2          0.0021   -0.0041    0.0020 C.3       1 <0>        -0.1255
      3 C3          0.7182   -0.4975   -1.2568 C.3       1 <0>        -0.1144
      4 C4          0.7390   -2.0273   -1.2652 C.3       1 <0>        -0.1242
      5 C5          1.4551   -2.5207   -2.5240 C.3       1 <0>         0.0717
      6 O1          1.4745   -3.9496   -2.5319 O.3       1 <0>        -0.3004
      7 C6          2.0767   -4.5512   -3.5870 C.ar      1 <0>         0.3677
      8 C7          2.1172   -5.9498   -3.6444 C.ar      1 <0>        -0.1726
      9 C8          2.7191   -6.5692   -4.6988 C.ar      1 <0>        -0.0212
     10 C9          3.2876   -5.7665   -5.7084 C.ar      1 <0>        -0.1305
     11 C10         3.9225   -6.3375   -6.8225 C.ar      1 <0>        -0.0799
     12 C11         4.4600   -5.5301   -7.7785 C.ar      1 <0>        -0.1324
     13 C12         4.3881   -4.1435   -7.6654 C.ar      1 <0>        -0.0895
     14 C13         3.7801   -3.5569   -6.5981 C.ar      1 <0>        -0.1077
     15 C14         3.2132   -4.3573   -5.5914 C.ar      1 <0>         0.1685
     16 N1          2.6043   -3.8071   -4.5348 N.ar      1 <0>        -0.5372
     17 C15         1.4967   -6.7687   -2.5420 C.3       1 <0>         0.1649
     18 C16         2.5026   -6.9332   -1.4009 C.3       1 <0>        -0.0188
     19 C17         1.8581   -7.6292   -0.2752 C.1       1 <0>        -0.2176
     20 C18         1.3442   -8.1842    0.6225 C.1       1 <0>        -0.1422
     21 C19         0.6997   -8.8802    1.7482 C.3       1 <0>        -0.0157
     22 C20         1.7056   -9.0447    2.8893 C.3       1 <0>        -0.0872
     23 C21         1.0357   -9.7681    4.0593 C.3       1 <0>        -0.1844
     24 C22         2.0265   -9.9301    5.1832 C.2       1 <0>         0.4885
     25 O2          3.1630   -9.5063    5.0598 O.co2     1 <0>        -0.6990
     26 O3          1.6916  -10.4850    6.2159 O.co2     1 <0>        -0.7081
     27 O4          1.1370   -8.0554   -3.0491 O.3       1 <0>        -0.5459
     28 H1          1.0039    1.9031    0.0027 H         1 <0>         0.0537
     29 H2         -0.5459    1.8868   -0.8726 H         1 <0>         0.0528
     30 H3         -0.5289    1.8773    0.9072 H         1 <0>         0.0547
     31 H4          0.5293   -0.3651    0.8851 H         1 <0>         0.0649
     32 H5         -1.0205   -0.3814    0.0098 H         1 <0>         0.0633
     33 H6          0.1910   -0.1364   -2.1398 H         1 <0>         0.0641
     34 H7          1.7408   -0.1202   -1.2645 H         1 <0>         0.0651
     35 H8          1.2661   -2.3884   -0.3821 H         1 <0>         0.0760
     36 H9         -0.2836   -2.4046   -1.2575 H         1 <0>         0.0740
     37 H10         0.9279   -2.1597   -3.4071 H         1 <0>         0.0671
     38 H11         2.4777   -2.1435   -2.5317 H         1 <0>         0.0683
     39 H12         2.7597   -7.6468   -4.7590 H         1 <0>         0.1481
     40 H13         3.9847   -7.4112   -6.9209 H         1 <0>         0.1310
     41 H14         4.9486   -5.9704   -8.6351 H         1 <0>         0.1272
     42 H15         4.8219   -3.5241   -8.4365 H         1 <0>         0.1291
     43 H16         3.7335   -2.4804   -6.5251 H         1 <0>         0.1337
     44 H17         0.6057   -6.2624   -2.1707 H         1 <0>         0.1202
     45 H18         3.3547   -7.5170   -1.7491 H         1 <0>         0.0845
     46 H19         2.8443   -5.9514   -1.0734 H         1 <0>         0.0939
     47 H20        -0.1524   -8.2964    2.0964 H         1 <0>         0.0814
     48 H21         0.3580   -9.8620    1.4207 H         1 <0>         0.0818
     49 H22         2.5577   -9.6284    2.5411 H         1 <0>         0.0620
     50 H23         2.0473   -8.0628    3.2168 H         1 <0>         0.0621
     51 H24         0.1836   -9.1843    4.4075 H         1 <0>         0.0579
     52 H25         0.6941  -10.7499    3.7318 H         1 <0>         0.0580
     53 H26         1.8825   -8.5635   -3.3969 H         1 <0>         0.3713
@<TRIPOS>BOND
     1    1    2 1
     2    1   28 1
     3    1   29 1
     4    1   30 1
     5    2    3 1
     6    2   31 1
     7    2   32 1
     8    3    4 1
     9    3   33 1
    10    3   34 1
    11    4    5 1
    12    4   35 1
    13    4   36 1
    14    5    6 1
    15    5   37 1
    16    5   38 1
    17    6    7 1
    18    7   16 ar
    19    7    8 ar
    20    8    9 ar
    21    8   17 1
    22    9   10 ar
    23    9   39 1
    24   10   15 ar
    25   10   11 ar
    26   11   12 ar
    27   11   40 1
    28   12   13 ar
    29   12   41 1
    30   13   14 ar
    31   13   42 1
    32   14   15 ar
    33   14   43 1
    34   15   16 ar
    35   17   18 1
    36   17   27 1
    37   17   44 1
    38   18   19 1
    39   18   45 1
    40   18   46 1
    41   19   20 3
    42   20   21 1
    43   21   22 1
    44   21   47 1
    45   21   48 1
    46   22   23 1
    47   22   49 1
    48   22   50 1
    49   23   24 1
    50   23   51 1
    51   23   52 1
    52   24   25 2
    53   24   26 1
    54   27   53 1
@<TRIPOS>MOLECULE
CHEMBL383607__1
   53    54     0     0     0
SMALL
USER_CHARGES

@<TRIPOS>ATOM
      1 C1         -0.0187    1.5258    0.0104 C.3       1 <0>        -0.1530
      2 C2          0.0021   -0.0041    0.0020 C.3       1 <0>        -0.1255
      3 C3          0.7182   -0.4975   -1.2568 C.3       1 <0>        -0.1144
      4 C4          0.7390   -2.0273   -1.2652 C.3       1 <0>        -0.1242
      5 C5          1.4551   -2.5207   -2.5240 C.3       1 <0>         0.0717
      6 O1          1.4745   -3.9496   -2.5319 O.3       1 <0>        -0.3004
      7 C6          2.0767   -4.5512   -3.5870 C.ar      1 <0>         0.3677
      8 C7          2.1172   -5.9498   -3.6444 C.ar      1 <0>        -0.1726
      9 C8          2.7191   -6.5692   -4.6988 C.ar      1 <0>        -0.0212
     10 C9          3.2876   -5.7665   -5.7084 C.ar      1 <0>        -0.1305
     11 C10         3.9225   -6.3375   -6.8225 C.ar      1 <0>        -0.0799
     12 C11         4.4600   -5.5301   -7.7785 C.ar      1 <0>        -0.1324
     13 C12         4.3881   -4.1435   -7.6654 C.ar      1 <0>        -0.0895
     14 C13         3.7801   -3.5569   -6.5981 C.ar      1 <0>        -0.1077
     15 C14         3.2132   -4.3573   -5.5914 C.ar      1 <0>         0.1685
     16 N1          2.6043   -3.8071   -4.5348 N.ar      1 <0>        -0.5372
     17 C15         1.4967   -6.7687   -2.5420 C.3       1 <0>         0.1648
     18 C16         0.0025   -6.9474   -2.8185 C.3       1 <0>        -0.0188
     19 C17        -0.6266   -7.6432   -1.6842 C.1       1 <0>        -0.2176
     20 C18        -1.1284   -8.1982   -0.7795 C.1       1 <0>        -0.1422
     21 C19        -1.7576   -8.8941    0.3549 C.3       1 <0>        -0.0156
     22 C20        -3.2517   -9.0727    0.0784 C.3       1 <0>        -0.0872
     23 C21        -3.9057   -9.7960    1.2574 C.3       1 <0>        -0.1844
     24 C22        -5.3774   -9.9720    0.9850 C.2       1 <0>         0.4885
     25 O2         -5.8586   -9.5573   -0.0556 O.co2     1 <0>        -0.6990
     26 O3         -6.0868  -10.5290    1.8053 O.co2     1 <0>        -0.7081
     27 O4          2.1275   -8.0498   -2.4874 O.3       1 <0>        -0.5459
     28 H1          1.0039    1.9031    0.0027 H         1 <0>         0.0528
     29 H2         -0.5459    1.8868   -0.8726 H         1 <0>         0.0537
     30 H3         -0.5289    1.8773    0.9072 H         1 <0>         0.0547
     31 H4          0.5293   -0.3651    0.8851 H         1 <0>         0.0633
     32 H5         -1.0205   -0.3814    0.0098 H         1 <0>         0.0649
     33 H6          0.1910   -0.1364   -2.1398 H         1 <0>         0.0651
     34 H7          1.7408   -0.1202   -1.2645 H         1 <0>         0.0641
     35 H8          1.2661   -2.3884   -0.3821 H         1 <0>         0.0740
     36 H9         -0.2836   -2.4046   -1.2575 H         1 <0>         0.0760
     37 H10         0.9279   -2.1597   -3.4071 H         1 <0>         0.0683
     38 H11         2.4777   -2.1435   -2.5317 H         1 <0>         0.0671
     39 H12         2.7597   -7.6468   -4.7590 H         1 <0>         0.1481
     40 H13         3.9847   -7.4112   -6.9209 H         1 <0>         0.1310
     41 H14         4.9486   -5.9704   -8.6351 H         1 <0>         0.1272
     42 H15         4.8219   -3.5241   -8.4365 H         1 <0>         0.1291
     43 H16         3.7335   -2.4804   -6.5251 H         1 <0>         0.1337
     44 H17         1.6312   -6.2566   -1.5892 H         1 <0>         0.1203
     45 H18        -0.4623   -5.9701   -2.9483 H         1 <0>         0.0938
     46 H19        -0.1311   -7.5367   -3.7257 H         1 <0>         0.0845
     47 H20        -1.2927   -9.8714    0.4847 H         1 <0>         0.0818
     48 H21        -1.6239   -8.3047    1.2620 H         1 <0>         0.0814
     49 H22        -3.7166   -8.0954   -0.0515 H         1 <0>         0.0621
     50 H23        -3.3854   -9.6621   -0.8288 H         1 <0>         0.0620
     51 H24        -3.4408  -10.7733    1.3872 H         1 <0>         0.0580
     52 H25        -3.7720   -9.2067    2.1645 H         1 <0>         0.0579
     53 H26         2.0477   -8.5626   -3.3033 H         1 <0>         0.3713
@<TRIPOS>BOND
     1    1    2 1
     2    1   28 1
     3    1   29 1
     4    1   30 1
     5    2    3 1
     6    2   31 1
     7    2   32 1
     8    3    4 1
     9    3   33 1
    10    3   34 1
    11    4    5 1
    12    4   35 1
    13    4   36 1
    14    5    6 1
    15    5   37 1
    16    5   38 1
    17    6    7 1
    18    7   16 ar
    19    7    8 ar
    20    8    9 ar
    21    8   17 1
    22    9   10 ar
    23    9   39 1
    24   10   15 ar
    25   10   11 ar
    26   11   12 ar
    27   11   40 1
    28   12   13 ar
    29   12   41 1
    30   13   14 ar
    31   13   42 1
    32   14   15 ar
    33   14   43 1
    34   15   16 ar
    35   17   18 1
    36   17   27 1
    37   17   44 1
    38   18   19 1
    39   18   45 1
    40   18   46 1
    41   19   20 3
    42   20   21 1
    43   21   22 1
    44   21   47 1
    45   21   48 1
    46   22   23 1
    47   22   49 1
    48   22   50 1
    49   23   24 1
    50   23   51 1
    51   23   52 1
    52   24   25 2
    53   24   26 1
    54   27   53 1
@<TRIPOS>MOLECULE
CHEMBL240868
   56    59     0     0     0
SMALL
USER_CHARGES

@<TRIPOS>ATOM
      1 C1         -1.4881    1.3111   -0.5931 C.3       1 <0>        -0.1447
      2 C2         -1.3161   -0.2076   -0.5238 C.3       1 <0>        -0.0537
      3 C3         -2.6567   -0.8548   -0.2892 C.2       1 <0>         0.0657
      4 C4         -3.1052   -1.8176   -1.1369 C.2       1 <0>        -0.2045
      5 S1         -4.6848   -2.2036   -0.3921 S.3       1 <0>         0.0016
      6 C5         -4.5756   -1.0432    0.9638 C.2       1 <0>         0.1726
      7 N1         -3.3908   -0.4931    0.7374 N.2       1 <0>        -0.4945
      8 C6         -5.5434   -0.7736    2.0482 C.ar      1 <0>        -0.1140
      9 C7         -6.7508   -1.4818    2.1161 C.ar      1 <0>        -0.0125
     10 C8         -7.6224   -1.1948    3.1480 C.ar      1 <0>        -0.1858
     11 C9         -7.2769   -0.2209    4.0785 C.ar      1 <0>         0.3455
     12 N2         -6.1291    0.4308    3.9868 N.ar      1 <0>        -0.5363
     13 C10        -5.2661    0.1846    3.0219 C.ar      1 <0>         0.1998
     14 O1         -8.1289    0.0653    5.0943 O.3       1 <0>        -0.2969
     15 C11        -7.7198    1.0749    6.0192 C.3       1 <0>         0.0737
     16 C12        -8.8012    1.2576    7.0860 C.3       1 <0>        -0.1207
     17 C13        -8.3632    2.3385    8.0763 C.3       1 <0>         0.0665
     18 O2         -9.3732    2.5091    9.0727 O.3       1 <0>        -0.3159
     19 C14        -9.1390    3.4391   10.0356 C.ar      1 <0>         0.1143
     20 C15        -7.9640    4.1768   10.0193 C.ar      1 <0>        -0.2078
     21 C16        -7.7307    5.1200   10.9993 C.ar      1 <0>        -0.0702
     22 C17        -8.6646    5.3335   12.0002 C.ar      1 <0>        -0.1082
     23 C18        -9.8362    4.5995   12.0187 C.ar      1 <0>        -0.0615
     24 C19       -10.0758    3.6572   11.0336 C.ar      1 <0>        -0.1404
     25 C20       -10.6826    5.0166   13.2024 C.3       1 <0>        -0.0826
     26 C21        -9.7170    5.7649   14.1458 C.3       1 <0>        -0.1019
     27 C22        -8.6443    6.2939   13.1702 C.3       1 <0>        -0.0266
     28 H1         -8.8987    7.3003   12.8379 H         1 <0>         0.0888
     29 C23        -7.2684    6.2865   13.8393 C.3       1 <0>        -0.1741
     30 C24        -7.2244    7.3467   14.9094 C.2       1 <0>         0.4910
     31 O3         -8.1629    8.1127   15.0475 O.co2     1 <0>        -0.6955
     32 O4         -6.2504    7.4384   15.6370 O.co2     1 <0>        -0.7083
     33 H2         -0.5184    1.7792   -0.7627 H         1 <0>         0.0588
     34 H3         -2.1616    1.5635   -1.4121 H         1 <0>         0.0511
     35 H4         -1.9067    1.6726    0.3462 H         1 <0>         0.0649
     36 H5         -0.8975   -0.5691   -1.4630 H         1 <0>         0.0780
     37 H6         -0.6426   -0.4600    0.2952 H         1 <0>         0.0799
     38 H7         -2.6377   -2.2339   -2.0169 H         1 <0>         0.1985
     39 H8         -6.9938   -2.2331    1.3793 H         1 <0>         0.1464
     40 H9         -8.5620   -1.7207    3.2313 H         1 <0>         0.1531
     41 H10        -4.3370    0.7338    2.9824 H         1 <0>         0.1737
     42 H11        -6.7865    0.7746    6.4955 H         1 <0>         0.0748
     43 H12        -7.5707    2.0151    5.4882 H         1 <0>         0.0746
     44 H13        -9.7345    1.5578    6.6097 H         1 <0>         0.0853
     45 H14        -8.9503    0.3174    7.6169 H         1 <0>         0.0855
     46 H15        -7.4299    2.0382    8.5526 H         1 <0>         0.0653
     47 H16        -8.2141    3.2787    7.5454 H         1 <0>         0.0651
     48 H17        -7.2331    4.0129    9.2412 H         1 <0>         0.1241
     49 H18        -6.8160    5.6941   10.9861 H         1 <0>         0.1225
     50 H19       -10.9931    3.0873   11.0451 H         1 <0>         0.1238
     51 H20       -11.4848    5.6798   12.8788 H         1 <0>         0.0792
     52 H21       -11.0942    4.1391   13.7010 H         1 <0>         0.0706
     53 H22       -10.2254    6.5888   14.6465 H         1 <0>         0.0853
     54 H23        -9.2770    5.0811   14.8717 H         1 <0>         0.0642
     55 H24        -7.0878    5.3097   14.2880 H         1 <0>         0.0567
     56 H25        -6.5005    6.4912   13.0933 H         1 <0>         0.0558
@<TRIPOS>BOND
     1    1    2 1
     2    1   33 1
     3    1   34 1
     4    1   35 1
     5    2    3 1
     6    2   36 1
     7    2   37 1
     8    3    7 1
     9    3    4 2
    10    4    5 1
    11    4   38 1
    12    5    6 1
    13    6    7 2
    14    6    8 1
    15    8   13 ar
    16    8    9 ar
    17    9   10 ar
    18    9   39 1
    19   10   11 ar
    20   10   40 1
    21   11   12 ar
    22   11   14 1
    23   12   13 ar
    24   13   41 1
    25   14   15 1
    26   15   16 1
    27   15   42 1
    28   15   43 1
    29   16   17 1
    30   16   44 1
    31   16   45 1
    32   17   18 1
    33   17   46 1
    34   17   47 1
    35   18   19 1
    36   19   24 ar
    37   19   20 ar
    38   20   21 ar
    39   20   48 1
    40   21   22 ar
    41   21   49 1
    42   22   27 1
    43   22   23 ar
    44   23   24 ar
    45   23   25 1
    46   24   50 1
    47   25   26 1
    48   25   51 1
    49   25   52 1
    50   26   27 1
    51   26   53 1
    52   26   54 1
    53   27   28 1
    54   27   29 1
    55   29   30 1
    56   29   55 1
    57   29   56 1
    58   30   31 2
    59   30   32 1
@<TRIPOS>MOLECULE
CHEMBL366145
   53    55     0     0     0
SMALL
USER_CHARGES

@<TRIPOS>ATOM
      1 C1         -0.0187    1.5258    0.0104 C.3       1 <0>        -0.1364
      2 C2          0.0021   -0.0041    0.0020 C.3       1 <0>        -0.0921
      3 C3          0.7421   -0.5109    1.2415 C.3       1 <0>        -0.1487
      4 C4         -1.4333   -0.5336    0.0129 C.3       1 <0>         0.0476
      5 C5         -1.4476   -2.0757    0.1354 C.3       1 <0>        -0.0835
      6 C6         -1.5609   -2.2702    1.6351 C.ar      1 <0>        -0.1324
      7 C7         -1.3523   -3.3665    2.4426 C.ar      1 <0>        -0.0993
      8 C8         -1.5251   -3.2584    3.8153 C.ar      1 <0>         0.0808
      9 C9         -1.9077   -2.0436    4.3652 C.ar      1 <0>        -0.1728
     10 C10        -2.1192   -0.9486    3.5540 C.ar      1 <0>        -0.1195
     11 C11        -1.9508   -1.0520    2.1755 C.ar      1 <0>         0.0964
     12 O1         -2.1222   -0.1135    1.2028 O.3       1 <0>        -0.2665
     13 O2         -1.3210   -4.3376    4.6170 O.3       1 <0>        -0.3136
     14 C12        -1.5181   -4.1502    6.0199 C.3       1 <0>         0.0666
     15 C13        -1.2440   -5.4646    6.7535 C.3       1 <0>        -0.1193
     16 C14        -1.4550   -5.2639    8.2555 C.3       1 <0>         0.0604
     17 O3         -1.1990   -6.4915    8.9407 O.3       1 <0>        -0.2952
     18 C15        -1.3424   -6.4853   10.2931 C.ar      1 <0>         0.1315
     19 C16        -1.7271   -5.3230   10.9443 C.ar      1 <0>        -0.1621
     20 C17        -1.8733   -5.3167   12.3180 C.ar      1 <0>        -0.0740
     21 C18        -1.6350   -6.4727   13.0466 C.ar      1 <0>         0.0769
     22 C19        -1.2502   -7.6355   12.3963 C.ar      1 <0>        -0.1447
     23 C20        -1.1094   -7.6437   11.0210 C.ar      1 <0>        -0.0332
     24 Cl1        -0.6348   -9.1009   10.2056 Cl        1 <0>        -0.0364
     25 O4         -1.7782   -6.4656   14.3988 O.3       1 <0>        -0.3052
     26 C21        -1.5165   -7.6913   15.0854 C.3       1 <0>         0.6027
     27 F1         -0.1950   -8.0850   14.8494 F         1 <0>        -0.1637
     28 F2         -1.7101   -7.5071   16.4586 F         1 <0>        -0.1293
     29 F3         -2.3883   -8.6817   14.6202 F         1 <0>        -0.1636
     30 C22        -2.1750   -0.0852   -1.2199 C.2       1 <0>         0.5159
     31 O5         -1.7690   -0.4027   -2.3249 O.co2     1 <0>        -0.6808
     32 O6         -3.1810    0.5951   -1.1124 O.co2     1 <0>        -0.6699
     33 H1          1.0039    1.9031    0.0027 H         1 <0>         0.0459
     34 H2         -0.5459    1.8868   -0.8726 H         1 <0>         0.0606
     35 H3         -0.5289    1.8773    0.9072 H         1 <0>         0.0544
     36 H4          0.5123   -0.3556   -0.8948 H         1 <0>         0.0863
     37 H5          0.7568   -1.6008    1.2356 H         1 <0>         0.0546
     38 H6          1.7647   -0.1336    1.2338 H         1 <0>         0.0497
     39 H7          0.2319   -0.1594    2.1383 H         1 <0>         0.0536
     40 H8         -2.3105   -2.4993   -0.3786 H         1 <0>         0.0882
     41 H9         -0.5205   -2.5052   -0.2442 H         1 <0>         0.0880
     42 H10        -1.0543   -4.3091    2.0079 H         1 <0>         0.1281
     43 H11        -2.0408   -1.9552    5.4333 H         1 <0>         0.1274
     44 H12        -2.4169   -0.0064    3.9899 H         1 <0>         0.1263
     45 H13        -0.8354   -3.3820    6.3833 H         1 <0>         0.0632
     46 H14        -2.5464   -3.8390    6.2039 H         1 <0>         0.0635
     47 H15        -1.9266   -6.2327    6.3900 H         1 <0>         0.0880
     48 H16        -0.2157   -5.7758    6.5694 H         1 <0>         0.0878
     49 H17        -0.7724   -4.4958    8.6189 H         1 <0>         0.0714
     50 H18        -2.4833   -4.9527    8.4395 H         1 <0>         0.0716
     51 H19        -1.9121   -4.4225   10.3775 H         1 <0>         0.1543
     52 H20        -2.1730   -4.4113   12.8248 H         1 <0>         0.1504
     53 H21        -1.0646   -8.5355   12.9636 H         1 <0>         0.1498
@<TRIPOS>BOND
     1    1    2 1
     2    1   33 1
     3    1   34 1
     4    1   35 1
     5    2    3 1
     6    2    4 1
     7    2   36 1
     8    3   37 1
     9    3   38 1
    10    3   39 1
    11    4   12 1
    12    4    5 1
    13    4   30 1
    14    5    6 1
    15    5   40 1
    16    5   41 1
    17    6   11 ar
    18    6    7 ar
    19    7    8 ar
    20    7   42 1
    21    8    9 ar
    22    8   13 1
    23    9   10 ar
    24    9   43 1
    25   10   11 ar
    26   10   44 1
    27   11   12 1
    28   13   14 1
    29   14   15 1
    30   14   45 1
    31   14   46 1
    32   15   16 1
    33   15   47 1
    34   15   48 1
    35   16   17 1
    36   16   49 1
    37   16   50 1
    38   17   18 1
    39   18   23 ar
    40   18   19 ar
    41   19   20 ar
    42   19   51 1
    43   20   21 ar
    44   20   52 1
    45   21   22 ar
    46   21   25 1
    47   22   23 ar
    48   22   53 1
    49   23   24 1
    50   25   26 1
    51   26   27 1
    52   26   28 1
    53   26   29 1
    54   30   31 2
    55   30   32 1
@<TRIPOS>MOLECULE
CHEMBL478725
   52    55     0     0     0
SMALL
USER_CHARGES

@<TRIPOS>ATOM
      1 C1         -0.0184    1.5028    0.0103 C.3       1 <0>        -0.0716
      2 C2          0.0021   -0.0041    0.0020 C.2       1 <0>        -0.0284
      3 C3         -1.0705   -0.8164    0.0025 C.2       1 <0>        -0.0074
      4 N1         -0.6270   -2.0826   -0.0064 N.2       1 <0>        -0.4571
      5 C4          0.6851   -2.0676   -0.0123 C.2       1 <0>         0.2274
      6 O1          1.0981   -0.7883   -0.0131 O.3       1 <0>        -0.1929
      7 C5          1.5619   -3.2577   -0.0227 C.ar      1 <0>        -0.0150
      8 C6          1.0059   -4.5378   -0.0330 C.ar      1 <0>        -0.0709
      9 C7          1.8298   -5.6443   -0.0432 C.ar      1 <0>        -0.1208
     10 C8          3.2044   -5.4871   -0.0433 C.ar      1 <0>        -0.1022
     11 C9          3.7620   -4.2209   -0.0327 C.ar      1 <0>        -0.1211
     12 C10         2.9493   -3.1060   -0.0282 C.ar      1 <0>        -0.0905
     13 C11        -2.5133   -0.3814    0.0119 C.3       1 <0>         0.0872
     14 C12        -2.9897   -0.2318   -1.3728 C.1       1 <0>        -0.1826
     15 C13        -3.3696   -0.1126   -2.4772 C.1       1 <0>        -0.1057
     16 C14        -3.8331    0.0330   -3.8243 C.ar      1 <0>        -0.0042
     17 C15        -2.9742   -0.2275   -4.8928 C.ar      1 <0>        -0.0969
     18 C16        -3.4271   -0.0859   -6.1883 C.ar      1 <0>        -0.1174
     19 C17        -4.7296    0.3134   -6.4292 C.ar      1 <0>        -0.0544
     20 C18        -5.5861    0.5732   -5.3744 C.ar      1 <0>        -0.0903
     21 C19        -5.1472    0.4303   -4.0741 C.ar      1 <0>        -0.0885
     22 C20        -5.2173    0.4665   -7.8469 C.3       1 <0>        -0.0762
     23 C21        -5.8045   -0.8610   -8.3304 C.3       1 <0>         0.0641
     24 H1         -5.0642   -1.6516   -8.2084 H         1 <0>         0.0870
     25 C22        -7.0313   -1.1923   -7.5203 C.2       1 <0>         0.4997
     26 O2         -7.9844   -0.4318   -7.5185 O.co2     1 <0>        -0.6768
     27 O3         -7.0708   -2.2207   -6.8666 O.co2     1 <0>        -0.6801
     28 N2         -6.1693   -0.7474   -9.7447 N.pl3     1 <0>        -0.4140
     29 C23        -7.0634    0.1403  -10.2656 C.2       1 <0>         0.0216
     30 C24        -7.1301   -0.0608  -11.5974 C.2       1 <0>        -0.2315
     31 C25        -6.2447   -1.1111  -11.9101 C.2       1 <0>        -0.2131
     32 C26        -5.6663   -1.5079  -10.7583 C.2       1 <0>        -0.0301
     33 H2          1.0042    1.8801    0.0026 H         1 <0>         0.0803
     34 H3         -0.5455    1.8639   -0.8728 H         1 <0>         0.0934
     35 H4         -0.5286    1.8543    0.9071 H         1 <0>         0.0918
     36 H5         -0.0670   -4.6619   -0.0326 H         1 <0>         0.1386
     37 H6          1.4008   -6.6354   -0.0508 H         1 <0>         0.1321
     38 H7          3.8450   -6.3565   -0.0513 H         1 <0>         0.1279
     39 H8          4.8357   -4.1050   -0.0321 H         1 <0>         0.1303
     40 H9          3.3858   -2.1181   -0.0249 H         1 <0>         0.1302
     41 H10        -3.1156   -1.1316    0.5243 H         1 <0>         0.1052
     42 H11        -2.6018    0.5726    0.5316 H         1 <0>         0.1043
     43 H12        -1.9571   -0.5390   -4.7060 H         1 <0>         0.1225
     44 H13        -2.7632   -0.2869   -7.0162 H         1 <0>         0.1241
     45 H14        -6.6017    0.8846   -5.5691 H         1 <0>         0.1348
     46 H15        -5.8181    0.6290   -3.2515 H         1 <0>         0.1225
     47 H16        -5.9853    1.2391   -7.8855 H         1 <0>         0.0852
     48 H17        -4.3837    0.7505   -8.4892 H         1 <0>         0.0687
     49 H18        -7.6224    0.8771   -9.7078 H         1 <0>         0.1593
     50 H19        -7.7486    0.4833  -12.2959 H         1 <0>         0.1260
     51 H20        -6.0597   -1.5202  -12.8924 H         1 <0>         0.1252
     52 H21        -4.9329   -2.2941  -10.6561 H         1 <0>         0.1501
@<TRIPOS>BOND
     1    1    2 1
     2    1   33 1
     3    1   34 1
     4    1   35 1
     5    2    6 1
     6    2    3 2
     7    3    4 1
     8    3   13 1
     9    4    5 2
    10    5    6 1
    11    5    7 1
    12    7   12 ar
    13    7    8 ar
    14    8    9 ar
    15    8   36 1
    16    9   10 ar
    17    9   37 1
    18   10   11 ar
    19   10   38 1
    20   11   12 ar
    21   11   39 1
    22   12   40 1
    23   13   14 1
    24   13   41 1
    25   13   42 1
    26   14   15 3
    27   15   16 1
    28   16   21 ar
    29   16   17 ar
    30   17   18 ar
    31   17   43 1
    32   18   19 ar
    33   18   44 1
    34   19   20 ar
    35   19   22 1
    36   20   21 ar
    37   20   45 1
    38   21   46 1
    39   22   23 1
    40   22   47 1
    41   22   48 1
    42   23   24 1
    43   23   25 1
    44   23   28 1
    45   25   26 2
    46   25   27 1
    47   28   32 1
    48   28   29 1
    49   29   30 2
    50   29   49 1
    51   30   31 1
    52   30   50 1
    53   31   32 2
    54   31   51 1
    55   32   52 1
@<TRIPOS>MOLECULE
CHEMBL1075895
   66    70     0     0     0
SMALL
USER_CHARGES

@<TRIPOS>ATOM
      1 C1          0.0729    1.9199   -0.6350 C.3       1 <0>        -0.1057
      2 C2          0.1607    0.4209   -0.5067 C.ar      1 <0>        -0.0850
      3 C3          0.0965   -0.3738   -1.6350 C.ar      1 <0>        -0.1069
      4 C4          0.1778   -1.7532   -1.5170 C.ar      1 <0>         0.0748
      5 C5          0.3236   -2.3350   -0.2662 C.ar      1 <0>        -0.1689
      6 C6          0.3878   -1.5405    0.8617 C.ar      1 <0>        -0.1754
      7 C7          0.3118   -0.1604    0.7432 C.ar      1 <0>         0.1116
      8 O1          0.3807    0.6221    1.8532 O.3       1 <0>        -0.2771
      9 C8          0.5364   -0.0439    3.1078 C.3       1 <0>        -0.0072
     10 C9          0.5930    0.9770    4.2149 C.2       1 <0>         0.5012
     11 O2          0.5079    2.1649    3.9536 O.co2     1 <0>        -0.6704
     12 O3          0.7240    0.6152    5.3718 O.co2     1 <0>        -0.6882
     13 O4          0.1141   -2.5355   -2.6275 O.3       1 <0>        -0.3118
     14 C10         0.2044   -3.9481   -2.4319 C.3       1 <0>         0.1589
     15 C11         0.1157   -4.6464   -3.7644 C.2       1 <0>         0.2076
     16 N1          1.1295   -4.9451   -4.5238 N.2       1 <0>        -0.4432
     17 C12         0.6767   -5.5636   -5.6348 C.2       1 <0>         0.0692
     18 C13        -0.6969   -5.6356   -5.5255 C.2       1 <0>         0.0115
     19 O5         -1.0185   -5.0598   -4.3459 O.3       1 <0>        -0.1770
     20 C14        -1.6304   -6.2292   -6.5019 C.ar      1 <0>        -0.0373
     21 C15        -1.3698   -7.4908   -7.0430 C.ar      1 <0>        -0.0491
     22 C16        -2.2446   -8.0413   -7.9547 C.ar      1 <0>        -0.1178
     23 C17        -3.3836   -7.3442   -8.3357 C.ar      1 <0>         0.1221
     24 C18        -3.6465   -6.0898   -7.8009 C.ar      1 <0>        -0.1878
     25 C19        -2.7806   -5.5340   -6.8838 C.ar      1 <0>        -0.0463
     26 O6         -4.2433   -7.8909   -9.2349 O.3       1 <0>        -0.3083
     27 C20        -5.3952   -7.1200   -9.5827 C.3       1 <0>         0.6039
     28 F1         -4.9906   -5.9029  -10.1414 F         1 <0>        -0.1624
     29 F2         -6.1659   -7.8266  -10.5122 F         1 <0>        -0.1291
     30 F3         -6.1569   -6.8759   -8.4349 F         1 <0>        -0.1625
     31 C21         1.4989   -6.0687   -6.7592 C.ar      1 <0>        -0.1860
     32 C22         1.0967   -5.8765   -8.0845 C.ar      1 <0>         0.2225
     33 N2          1.8574   -6.3420   -9.0594 N.ar      1 <0>        -0.5632
     34 C23         2.9866   -6.9828   -8.7940 C.ar      1 <0>         0.5712
     35 N3          3.4015   -7.1848   -7.5517 N.ar      1 <0>        -0.5662
     36 C24         2.6997   -6.7447   -6.5224 C.ar      1 <0>         0.2313
     37 N4          3.7545   -7.4552   -9.8445 N.pl3     1 <0>        -0.5844
     38 C25         3.3368   -7.2496  -11.2405 C.3       1 <0>         0.0916
     39 C26         4.5182   -6.6556  -12.0161 C.3       1 <0>         0.0464
     40 O7          5.6733   -7.4730  -11.8129 O.3       1 <0>        -0.3801
     41 C27         6.1125   -7.5382  -10.4539 C.3       1 <0>         0.0464
     42 C28         5.0156   -8.1724   -9.5984 C.3       1 <0>         0.0913
     43 H1          1.0732    2.3326   -0.7655 H         1 <0>         0.0698
     44 H2         -0.5411    2.1753   -1.4986 H         1 <0>         0.0614
     45 H3         -0.3771    2.3359    0.2665 H         1 <0>         0.0811
     46 H4         -0.0174    0.0791   -2.6088 H         1 <0>         0.1330
     47 H5          0.3866   -3.4092   -0.1743 H         1 <0>         0.1259
     48 H6          0.5006   -1.9935    1.8356 H         1 <0>         0.1330
     49 H7         -0.3093   -0.7116    3.2722 H         1 <0>         0.0581
     50 H8          1.4600   -0.6227    3.0998 H         1 <0>         0.0584
     51 H9          1.1558   -4.1893   -1.9580 H         1 <0>         0.1093
     52 H10        -0.6142   -4.2795   -1.7929 H         1 <0>         0.0940
     53 H11        -0.4840   -8.0335   -6.7476 H         1 <0>         0.1407
     54 H12        -2.0438   -9.0162   -8.3738 H         1 <0>         0.1469
     55 H13        -4.5332   -5.5510   -8.1006 H         1 <0>         0.1420
     56 H14        -2.9883   -4.5605   -6.4648 H         1 <0>         0.1428
     57 H15         0.1775   -5.3554   -8.3081 H         1 <0>         0.1660
     58 H16         3.0463   -6.9085   -5.5127 H         1 <0>         0.1737
     59 H17         3.0502   -8.2039  -11.6823 H         1 <0>         0.0757
     60 H18         2.4926   -6.5609  -11.2734 H         1 <0>         0.1087
     61 H19         4.2770   -6.6238  -13.0786 H         1 <0>         0.1087
     62 H20         4.7187   -5.6461  -11.6571 H         1 <0>         0.0561
     63 H21         7.0183   -8.1413  -10.3925 H         1 <0>         0.1094
     64 H22         6.3188   -6.5319  -10.0893 H         1 <0>         0.0560
     65 H23         5.2826   -8.0946   -8.5445 H         1 <0>         0.1094
     66 H24         4.9009   -9.2212   -9.8721 H         1 <0>         0.0754
@<TRIPOS>BOND
     1    1    2 1
     2    1   43 1
     3    1   44 1
     4    1   45 1
     5    2    7 ar
     6    2    3 ar
     7    3    4 ar
     8    3   46 1
     9    4    5 ar
    10    4   13 1
    11    5    6 ar
    12    5   47 1
    13    6    7 ar
    14    6   48 1
    15    7    8 1
    16    8    9 1
    17    9   10 1
    18    9   49 1
    19    9   50 1
    20   10   11 2
    21   10   12 1
    22   13   14 1
    23   14   15 1
    24   14   51 1
    25   14   52 1
    26   15   19 1
    27   15   16 2
    28   16   17 1
    29   17   18 2
    30   17   31 1
    31   18   19 1
    32   18   20 1
    33   20   25 ar
    34   20   21 ar
    35   21   22 ar
    36   21   53 1
    37   22   23 ar
    38   22   54 1
    39   23   24 ar
    40   23   26 1
    41   24   25 ar
    42   24   55 1
    43   25   56 1
    44   26   27 1
    45   27   28 1
    46   27   29 1
    47   27   30 1
    48   31   36 ar
    49   31   32 ar
    50   32   33 ar
    51   32   57 1
    52   33   34 ar
    53   34   35 ar
    54   34   37 1
    55   35   36 ar
    56   36   58 1
    57   37   42 1
    58   37   38 1
    59   38   39 1
    60   38   59 1
    61   38   60 1
    62   39   40 1
    63   39   61 1
    64   39   62 1
    65   40   41 1
    66   41   42 1
    67   41   63 1
    68   41   64 1
    69   42   65 1
    70   42   66 1
@<TRIPOS>MOLECULE
CHEMBL1080699
   64    67     0     0     0
SMALL
USER_CHARGES

@<TRIPOS>ATOM
      1 C1          0.2300    1.8783   -0.5686 C.3       1 <0>        -0.1056
      2 C2          0.3072    0.3775   -0.4569 C.ar      1 <0>        -0.0849
      3 C3          0.2103   -0.4055   -1.5910 C.ar      1 <0>        -0.1069
      4 C4          0.2819   -1.7866   -1.4882 C.ar      1 <0>         0.0748
      5 C5          0.4509   -2.3819   -0.2467 C.ar      1 <0>        -0.1690
      6 C6          0.5477   -1.5992    0.8870 C.ar      1 <0>        -0.1754
      7 C7          0.4814   -0.2174    0.7836 C.ar      1 <0>         0.1116
      8 O1          0.5824    0.5535    1.8992 O.3       1 <0>        -0.2771
      9 C8          0.7606   -0.1262    3.1435 C.3       1 <0>        -0.0073
     10 C9          0.8515    0.8833    4.2588 C.2       1 <0>         0.5013
     11 O2          0.7711    2.0743    4.0110 O.co2     1 <0>        -0.6703
     12 O3          1.0054    0.5089    5.4089 O.co2     1 <0>        -0.6883
     13 O4          0.1861   -2.5573   -2.6044 O.3       1 <0>        -0.3118
     14 C10         0.2681   -3.9726   -2.4246 C.3       1 <0>         0.1591
     15 C11         0.1430   -4.6569   -3.7615 C.2       1 <0>         0.2067
     16 N1          1.1365   -4.9569   -4.5465 N.2       1 <0>        -0.4418
     17 C12         0.6531   -5.5598   -5.6533 C.2       1 <0>         0.0598
     18 C13        -0.7184   -5.6203   -5.5135 C.2       1 <0>         0.0133
     19 O5         -1.0079   -5.0547   -4.3210 O.3       1 <0>        -0.1776
     20 C14        -1.6792   -6.1953   -6.4745 C.ar      1 <0>        -0.0368
     21 C15        -1.4488   -7.4587   -7.0250 C.ar      1 <0>        -0.0471
     22 C16        -2.3490   -7.9917   -7.9222 C.ar      1 <0>        -0.1190
     23 C17        -3.4838   -7.2752   -8.2793 C.ar      1 <0>         0.1212
     24 C18        -3.7170   -6.0191   -7.7347 C.ar      1 <0>        -0.1887
     25 C19        -2.8252   -5.4805   -6.8323 C.ar      1 <0>        -0.0469
     26 O6         -4.3684   -7.8045   -9.1646 O.3       1 <0>        -0.3082
     27 C20        -5.5142   -7.0141   -9.4880 C.3       1 <0>         0.6038
     28 F1         -5.1008   -5.8012  -10.0492 F         1 <0>        -0.1627
     29 F2         -6.3130   -7.7045  -10.4059 F         1 <0>        -0.1291
     30 F3         -6.2506   -6.7630   -8.3253 F         1 <0>        -0.1626
     31 C21         1.4448   -6.0609   -6.8009 C.ar      1 <0>        -0.1066
     32 C22         1.0036   -5.8526   -8.1133 C.ar      1 <0>        -0.0171
     33 C23         1.7763   -6.3381   -9.1503 C.ar      1 <0>        -0.1884
     34 C24         2.9570   -7.0120   -8.8599 C.ar      1 <0>         0.3331
     35 N2          3.3465   -7.1925   -7.6087 N.ar      1 <0>        -0.5371
     36 C25         2.6420   -6.7411   -6.5902 C.ar      1 <0>         0.1782
     37 O7          3.7202   -7.4917   -9.8739 O.3       1 <0>        -0.2999
     38 C26         4.9223   -8.1755   -9.5138 C.3       1 <0>         0.0801
     39 C27         4.6281   -9.6668   -9.3396 C.3       1 <0>        -0.1682
     40 C28         5.9661   -7.9870  -10.6164 C.3       1 <0>        -0.1516
     41 H1          1.2308    2.2836   -0.7179 H         1 <0>         0.0699
     42 H2         -0.4011    2.1476   -1.4156 H         1 <0>         0.0614
     43 H3         -0.1957    2.2894    0.3468 H         1 <0>         0.0811
     44 H4          0.0785    0.0579   -2.5575 H         1 <0>         0.1329
     45 H5          0.5063   -3.4575   -0.1667 H         1 <0>         0.1259
     46 H6          0.6785   -2.0627    1.8537 H         1 <0>         0.1330
     47 H7         -0.0871   -0.7880    3.3207 H         1 <0>         0.0581
     48 H8          1.6786   -0.7129    3.1089 H         1 <0>         0.0584
     49 H9          1.2279   -4.2267   -1.9748 H         1 <0>         0.1095
     50 H10        -0.5387   -4.3031   -1.7704 H         1 <0>         0.0940
     51 H11        -0.5664   -8.0165   -6.7481 H         1 <0>         0.1429
     52 H12        -2.1716   -8.9680   -8.3485 H         1 <0>         0.1482
     53 H13        -4.6008   -5.4654   -8.0153 H         1 <0>         0.1417
     54 H14        -3.0096   -4.5055   -6.4059 H         1 <0>         0.1420
     55 H15         0.0816   -5.3257   -8.3101 H         1 <0>         0.1411
     56 H16         1.4665   -6.1960  -10.1752 H         1 <0>         0.1460
     57 H17         2.9945   -6.9036   -5.5823 H         1 <0>         0.1653
     58 H18         5.3050   -7.7689   -8.5777 H         1 <0>         0.0914
     59 H19         4.2453  -10.0734  -10.2756 H         1 <0>         0.0612
     60 H20         5.5449  -10.1883   -9.0648 H         1 <0>         0.0715
     61 H21         3.8844   -9.8011   -8.5541 H         1 <0>         0.0612
     62 H22         6.1757   -6.9246  -10.7405 H         1 <0>         0.0635
     63 H23         6.8830   -8.5085  -10.3417 H         1 <0>         0.0777
     64 H24         5.5834   -8.3936  -11.5525 H         1 <0>         0.0650
@<TRIPOS>BOND
     1    1    2 1
     2    1   41 1
     3    1   42 1
     4    1   43 1
     5    2    7 ar
     6    2    3 ar
     7    3    4 ar
     8    3   44 1
     9    4    5 ar
    10    4   13 1
    11    5    6 ar
    12    5   45 1
    13    6    7 ar
    14    6   46 1
    15    7    8 1
    16    8    9 1
    17    9   10 1
    18    9   47 1
    19    9   48 1
    20   10   11 2
    21   10   12 1
    22   13   14 1
    23   14   15 1
    24   14   49 1
    25   14   50 1
    26   15   19 1
    27   15   16 2
    28   16   17 1
    29   17   18 2
    30   17   31 1
    31   18   19 1
    32   18   20 1
    33   20   25 ar
    34   20   21 ar
    35   21   22 ar
    36   21   51 1
    37   22   23 ar
    38   22   52 1
    39   23   24 ar
    40   23   26 1
    41   24   25 ar
    42   24   53 1
    43   25   54 1
    44   26   27 1
    45   27   28 1
    46   27   29 1
    47   27   30 1
    48   31   36 ar
    49   31   32 ar
    50   32   33 ar
    51   32   55 1
    52   33   34 ar
    53   33   56 1
    54   34   35 ar
    55   34   37 1
    56   35   36 ar
    57   36   57 1
    58   37   38 1
    59   38   39 1
    60   38   40 1
    61   38   58 1
    62   39   59 1
    63   39   60 1
    64   39   61 1
    65   40   62 1
    66   40   63 1
    67   40   64 1
@<TRIPOS>MOLECULE
CHEMBL1080365
   63    66     0     0     0
SMALL
USER_CHARGES

@<TRIPOS>ATOM
      1 C1          0.0777    1.9194   -0.6342 C.3       1 <0>        -0.1058
      2 C2          0.1652    0.4204   -0.5062 C.ar      1 <0>        -0.0848
      3 C3          0.1000   -0.3742   -1.6344 C.ar      1 <0>        -0.1066
      4 C4          0.1810   -1.7536   -1.5167 C.ar      1 <0>         0.0745
      5 C5          0.3275   -2.3356   -0.2661 C.ar      1 <0>        -0.1689
      6 C6          0.3927   -1.5412    0.8619 C.ar      1 <0>        -0.1756
      7 C7          0.3170   -0.1612    0.7436 C.ar      1 <0>         0.1119
      8 O1          0.3869    0.6212    1.8536 O.3       1 <0>        -0.2771
      9 C8          0.5433   -0.0450    3.1081 C.3       1 <0>        -0.0072
     10 C9          0.6010    0.9758    4.2152 C.2       1 <0>         0.5012
     11 O2          0.5160    2.1637    3.9541 O.co2     1 <0>        -0.6703
     12 O3          0.7326    0.6138    5.3720 O.co2     1 <0>        -0.6882
     13 O4          0.1164   -2.5357   -2.6272 O.3       1 <0>        -0.3117
     14 C10         0.2063   -3.9485   -2.4319 C.3       1 <0>         0.1585
     15 C11         0.1166   -4.6466   -3.7644 C.2       1 <0>         0.2097
     16 N1          1.1297   -4.9455   -4.5245 N.2       1 <0>        -0.4412
     17 C12         0.6760   -5.5637   -5.6353 C.2       1 <0>         0.0591
     18 C13        -0.6975   -5.6353   -5.5250 C.2       1 <0>         0.0212
     19 O5         -1.0182   -5.0596   -4.3452 O.3       1 <0>        -0.1753
     20 C14        -1.6320   -6.2282   -6.5010 C.ar      1 <0>        -0.0423
     21 C15        -1.3722   -7.4896   -7.0427 C.ar      1 <0>        -0.0502
     22 C16        -2.2479   -8.0395   -7.9541 C.ar      1 <0>        -0.1173
     23 C17        -3.3867   -7.3415   -8.3344 C.ar      1 <0>         0.1244
     24 C18        -3.6489   -6.0875   -7.7986 C.ar      1 <0>        -0.1876
     25 C19        -2.7822   -5.5324   -6.8819 C.ar      1 <0>        -0.0443
     26 O6         -4.2467   -7.8872   -9.2339 O.3       1 <0>        -0.3078
     27 C20        -5.3983   -7.1156   -9.5809 C.3       1 <0>         0.6039
     28 F1         -4.9932   -5.8982  -10.1388 F         1 <0>        -0.1620
     29 F2         -6.1694   -7.8211  -10.5109 F         1 <0>        -0.1287
     30 F3         -6.1597   -6.8720   -8.4328 F         1 <0>        -0.1625
     31 C21         1.4972   -6.0692   -6.7602 C.ar      1 <0>        -0.1618
     32 C22         1.0946   -5.8773   -8.0853 C.ar      1 <0>         0.2149
     33 N2          1.8552   -6.3435   -9.0602 N.ar      1 <0>        -0.5172
     34 C23         2.9829   -6.9838   -8.7953 C.ar      1 <0>         0.5077
     35 N3          3.3985   -7.1856   -7.5551 N.ar      1 <0>        -0.5636
     36 C24         2.6980   -6.7455   -6.5246 C.ar      1 <0>         0.2234
     37 O7          3.7335   -7.4464   -9.8239 O.3       1 <0>        -0.2813
     38 C25         4.9421   -8.1310   -9.4884 C.3       1 <0>         0.0841
     39 C26         5.2526   -9.1743  -10.5636 C.3       1 <0>        -0.1508
     40 C27         6.0921   -7.1252   -9.4065 C.3       1 <0>        -0.1707
     41 H1          1.0781    2.3318   -0.7653 H         1 <0>         0.0699
     42 H2         -0.5367    2.1751   -1.4974 H         1 <0>         0.0615
     43 H3         -0.3715    2.3354    0.2676 H         1 <0>         0.0811
     44 H4         -0.0144    0.0788   -2.6081 H         1 <0>         0.1331
     45 H5          0.3903   -3.4098   -0.1743 H         1 <0>         0.1259
     46 H6          0.5061   -1.9944    1.8356 H         1 <0>         0.1330
     47 H7         -0.3025   -0.7124    3.2730 H         1 <0>         0.0582
     48 H8          1.4668   -0.6240    3.0993 H         1 <0>         0.0584
     49 H9          1.1581   -4.1899   -1.9586 H         1 <0>         0.1099
     50 H10        -0.6118   -4.2797   -1.7924 H         1 <0>         0.0947
     51 H11        -0.4865   -8.0328   -6.7481 H         1 <0>         0.1406
     52 H12        -2.0479   -9.0145   -8.3734 H         1 <0>         0.1483
     53 H13        -4.5358   -5.5483   -8.0972 H         1 <0>         0.1429
     54 H14        -2.9894   -4.5591   -6.4620 H         1 <0>         0.1437
     55 H15         0.1754   -5.3561   -8.3088 H         1 <0>         0.1750
     56 H16         3.0457   -6.9095   -5.5153 H         1 <0>         0.1786
     57 H17         4.8235   -8.6266   -8.5248 H         1 <0>         0.0946
     58 H18         5.3712   -8.6787  -11.5272 H         1 <0>         0.0679
     59 H19         6.1745   -9.6965  -10.3077 H         1 <0>         0.0818
     60 H20         4.4333   -9.8908  -10.6220 H         1 <0>         0.0648
     61 H21         6.2107   -6.6296  -10.3701 H         1 <0>         0.0643
     62 H22         5.8709   -6.3820   -8.6405 H         1 <0>         0.0621
     63 H23         7.0140   -7.6474   -9.1506 H         1 <0>         0.0761
@<TRIPOS>BOND
     1    1    2 1
     2    1   41 1
     3    1   42 1
     4    1   43 1
     5    2    7 ar
     6    2    3 ar
     7    3    4 ar
     8    3   44 1
     9    4    5 ar
    10    4   13 1
    11    5    6 ar
    12    5   45 1
    13    6    7 ar
    14    6   46 1
    15    7    8 1
    16    8    9 1
    17    9   10 1
    18    9   47 1
    19    9   48 1
    20   10   11 2
    21   10   12 1
    22   13   14 1
    23   14   15 1
    24   14   49 1
    25   14   50 1
    26   15   19 1
    27   15   16 2
    28   16   17 1
    29   17   18 2
    30   17   31 1
    31   18   19 1
    32   18   20 1
    33   20   25 ar
    34   20   21 ar
    35   21   22 ar
    36   21   51 1
    37   22   23 ar
    38   22   52 1
    39   23   24 ar
    40   23   26 1
    41   24   25 ar
    42   24   53 1
    43   25   54 1
    44   26   27 1
    45   27   28 1
    46   27   29 1
    47   27   30 1
    48   31   36 ar
    49   31   32 ar
    50   32   33 ar
    51   32   55 1
    52   33   34 ar
    53   34   35 ar
    54   34   37 1
    55   35   36 ar
    56   36   56 1
    57   37   38 1
    58   38   39 1
    59   38   40 1
    60   38   57 1
    61   39   58 1
    62   39   59 1
    63   39   60 1
    64   40   61 1
    65   40   62 1
    66   40   63 1
@<TRIPOS>MOLECULE
CHEMBL255309
   69    73     0     0     0
SMALL
USER_CHARGES

@<TRIPOS>ATOM
      1 C1         -0.1453    1.5711    0.3511 C.3       1 <0>        -0.0706
      2 C2         -0.1099    0.0647    0.3306 C.2       1 <0>        -0.0350
      3 C3         -1.1739   -0.7578    0.2900 C.2       1 <0>        -0.0030
      4 N1         -0.7181   -2.0195    0.2844 N.2       1 <0>        -0.4564
      5 C4          0.5933   -1.9920    0.3204 C.2       1 <0>         0.2272
      6 O1          0.9936   -0.7089    0.3436 O.3       1 <0>        -0.1942
      7 C5          1.4816   -3.1736    0.3277 C.ar      1 <0>        -0.0160
      8 C6          0.9387   -4.4588    0.2888 C.ar      1 <0>        -0.0701
      9 C7          1.7733   -5.5573    0.2954 C.ar      1 <0>        -0.1200
     10 C8          3.1456   -5.3871    0.3404 C.ar      1 <0>        -0.1020
     11 C9          3.6902   -4.1158    0.3795 C.ar      1 <0>        -0.1221
     12 C10         2.8669   -3.0088    0.3676 C.ar      1 <0>        -0.0915
     13 C11        -2.6205   -0.3366    0.2571 C.3       1 <0>        -0.0362
     14 C12        -3.0712   -0.1731   -1.1958 C.3       1 <0>         0.0689
     15 O2         -4.4429    0.2264   -1.2269 O.3       1 <0>        -0.3129
     16 C13        -5.0026    0.4164   -2.4507 C.ar      1 <0>         0.1304
     17 C14        -4.2467    0.2163   -3.5981 C.ar      1 <0>        -0.2150
     18 C15        -4.8109    0.4077   -4.8454 C.ar      1 <0>        -0.0834
     19 C16        -6.1297    0.7990   -4.9583 C.ar      1 <0>        -0.1441
     20 C17        -6.8970    1.0025   -3.8107 C.ar      1 <0>         0.0269
     21 C18        -6.3279    0.8039   -2.5529 C.ar      1 <0>        -0.1290
     22 C19        -8.3096    1.4217   -3.9278 C.2       1 <0>        -0.1611
     23 C20        -9.1607    0.5904   -4.4786 C.2       1 <0>        -0.0127
     24 C21       -10.6180    0.8811   -4.6819 C.3       1 <0>        -0.0951
     25 C22       -11.0662    2.0259   -3.7696 C.3       1 <0>         0.1116
     26 N2        -10.0588    3.0971   -3.8568 N.am      1 <0>        -0.5849
     27 C23        -8.6965    2.7766   -3.4036 C.3       1 <0>         0.1895
     28 C24       -10.3744    4.3195   -4.3286 C.2       1 <0>         0.6531
     29 O3         -9.5240    5.1853   -4.3898 O.2       1 <0>        -0.5616
     30 O4        -11.6323    4.5814   -4.7321 O.3       1 <0>        -0.3085
     31 C25       -11.9311    5.8541   -5.1046 C.ar      1 <0>         0.1095
     32 C26       -12.6355    6.6828   -4.2434 C.ar      1 <0>        -0.1187
     33 C27       -12.9380    7.9758   -4.6242 C.ar      1 <0>        -0.1081
     34 C28       -12.5393    8.4442   -5.8625 C.ar      1 <0>        -0.1198
     35 C29       -11.8375    7.6201   -6.7228 C.ar      1 <0>        -0.1071
     36 C30       -11.5272    6.3282   -6.3441 C.ar      1 <0>        -0.1154
     37 C31        -8.6398   -0.7468   -4.9388 C.3       1 <0>        -0.1809
     38 C32        -8.8663   -1.7729   -3.8586 C.2       1 <0>         0.5030
     39 O5         -9.4011   -1.4485   -2.8121 O.co2     1 <0>        -0.6884
     40 O6         -8.5146   -2.9275   -4.0312 O.co2     1 <0>        -0.7027
     41 H1          0.8733    1.9582    0.3791 H         1 <0>         0.0795
     42 H2         -0.6477    1.9350   -0.5452 H         1 <0>         0.0919
     43 H3         -0.6871    1.9099    1.2341 H         1 <0>         0.0929
     44 H4         -0.1324   -4.5931    0.2540 H         1 <0>         0.1403
     45 H5          1.3545   -6.5524    0.2657 H         1 <0>         0.1331
     46 H6          3.7945   -6.2504    0.3453 H         1 <0>         0.1280
     47 H7          4.7622   -3.9898    0.4153 H         1 <0>         0.1299
     48 H8          3.2934   -2.0169    0.3934 H         1 <0>         0.1295
     49 H9         -3.2314   -1.0969    0.7437 H         1 <0>         0.0966
     50 H10        -2.7347    0.6120    0.7819 H         1 <0>         0.0928
     51 H11        -2.4603    0.5873   -1.6824 H         1 <0>         0.0590
     52 H12        -2.9570   -1.1216   -1.7206 H         1 <0>         0.0655
     53 H13        -3.2142   -0.0896   -3.5158 H         1 <0>         0.1201
     54 H14        -4.2179    0.2508   -5.7344 H         1 <0>         0.1209
     55 H15        -6.5674    0.9480   -5.9343 H         1 <0>         0.1217
     56 H16        -6.9181    0.9559   -1.6613 H         1 <0>         0.1306
     57 H17       -10.7882    1.1609   -5.7215 H         1 <0>         0.0741
     58 H18       -11.1993   -0.0118   -4.4520 H         1 <0>         0.0961
     59 H19       -12.0344    2.4027   -4.0996 H         1 <0>         0.0919
     60 H20       -11.1390    1.6710   -2.7416 H         1 <0>         0.0860
     61 H21        -8.6637    2.7687   -2.3141 H         1 <0>         0.0797
     62 H22        -8.0027    3.5262   -3.7843 H         1 <0>         0.0957
     63 H23       -12.9474    6.3172   -3.2762 H         1 <0>         0.1309
     64 H24       -13.4867    8.6212   -3.9543 H         1 <0>         0.1301
     65 H25       -12.7767    9.4554   -6.1584 H         1 <0>         0.1266
     66 H26       -11.5275    7.9881   -7.6896 H         1 <0>         0.1290
     67 H27       -10.9749    5.6864   -7.0145 H         1 <0>         0.1283
     68 H28        -9.1661   -1.0498   -5.8439 H         1 <0>         0.0623
     69 H29        -7.5729   -0.6687   -5.1478 H         1 <0>         0.0833
@<TRIPOS>BOND
     1    1    2 1
     2    1   41 1
     3    1   42 1
     4    1   43 1
     5    2    6 1
     6    2    3 2
     7    3    4 1
     8    3   13 1
     9    4    5 2
    10    5    6 1
    11    5    7 1
    12    7   12 ar
    13    7    8 ar
    14    8    9 ar
    15    8   44 1
    16    9   10 ar
    17    9   45 1
    18   10   11 ar
    19   10   46 1
    20   11   12 ar
    21   11   47 1
    22   12   48 1
    23   13   14 1
    24   13   49 1
    25   13   50 1
    26   14   15 1
    27   14   51 1
    28   14   52 1
    29   15   16 1
    30   16   21 ar
    31   16   17 ar
    32   17   18 ar
    33   17   53 1
    34   18   19 ar
    35   18   54 1
    36   19   20 ar
    37   19   55 1
    38   20   21 ar
    39   20   22 1
    40   21   56 1
    41   22   27 1
    42   22   23 2
    43   23   24 1
    44   23   37 1
    45   24   25 1
    46   24   57 1
    47   24   58 1
    48   25   26 1
    49   25   59 1
    50   25   60 1
    51   26   27 1
    52   26   28 am
    53   27   61 1
    54   27   62 1
    55   28   29 2
    56   28   30 1
    57   30   31 1
    58   31   36 ar
    59   31   32 ar
    60   32   33 ar
    61   32   63 1
    62   33   34 ar
    63   33   64 1
    64   34   35 ar
    65   34   65 1
    66   35   36 ar
    67   35   66 1
    68   36   67 1
    69   37   38 1
    70   37   68 1
    71   37   69 1
    72   38   39 2
    73   38   40 1
@<TRIPOS>MOLECULE
CHEMBL248326
   61    64     0     0     0
SMALL
USER_CHARGES

@<TRIPOS>ATOM
      1 C1          2.3312   -2.2210   -1.1857 C.3       1 <0>        -0.1559
      2 C2          2.0720   -0.7173   -1.2979 C.3       1 <0>         0.0128
      3 C3          2.8114    0.0032   -0.2001 C.2       1 <0>         0.5053
      4 O1          4.0304   -0.0064   -0.1781 O.co2     1 <0>        -0.6850
      5 O2          2.1907    0.5956    0.6661 O.co2     1 <0>        -0.6711
      6 O3          0.6709   -0.4649   -1.1737 O.3       1 <0>        -0.2785
      7 C4         -0.0780   -0.5738   -2.3025 C.ar      1 <0>         0.1482
      8 C5         -1.4219   -0.2294   -2.2806 C.ar      1 <0>        -0.1623
      9 C6         -2.1809   -0.3405   -3.4293 C.ar      1 <0>        -0.0795
     10 C7         -1.6024   -0.7945   -4.6004 C.ar      1 <0>        -0.1707
     11 C8         -0.2637   -1.1387   -4.6247 C.ar      1 <0>        -0.0492
     12 C9          0.5012   -1.0239   -3.4798 C.ar      1 <0>        -0.2114
     13 C10         0.3634   -1.6336   -5.9025 C.3       1 <0>        -0.0946
     14 C11         0.9176   -0.4459   -6.6920 C.3       1 <0>         0.1248
     15 N1          1.5272   -0.9270   -7.9342 N.pl3     1 <0>        -0.5652
     16 C12         0.7183   -1.0432   -9.1501 C.3       1 <0>         0.1444
     17 C13         0.7786    0.2715   -9.9303 C.3       1 <0>        -0.1401
     18 C14        -0.0663    0.1502  -11.2001 C.3       1 <0>         0.0655
     19 O4         -0.0099    1.3781  -11.9289 O.3       1 <0>        -0.3132
     20 C15        -0.7116    1.4386  -13.0911 C.ar      1 <0>         0.1325
     21 C16        -1.4441    0.3406  -13.5184 C.ar      1 <0>        -0.2099
     22 C17        -2.1570    0.4047  -14.7000 C.ar      1 <0>        -0.0805
     23 C18        -2.1406    1.5618  -15.4568 C.ar      1 <0>        -0.1616
     24 C19        -1.4109    2.6573  -15.0333 C.ar      1 <0>        -0.0810
     25 C20        -0.7014    2.6003  -13.8494 C.ar      1 <0>        -0.1540
     26 C21         2.8601   -1.2698   -7.9590 C.2       1 <0>         0.5079
     27 N2          3.5032   -1.7037   -9.0128 N.2       1 <0>        -0.5428
     28 C22         4.7983   -1.9414   -8.6664 C.ar      1 <0>         0.0628
     29 C23         5.9135   -2.4040   -9.3662 C.ar      1 <0>        -0.0860
     30 C24         7.1199   -2.5415   -8.7152 C.ar      1 <0>        -0.1102
     31 C25         7.2314   -2.2236   -7.3704 C.ar      1 <0>        -0.1150
     32 C26         6.1361   -1.7651   -6.6666 C.ar      1 <0>        -0.0769
     33 C27         4.9156   -1.6205   -7.3059 C.ar      1 <0>        -0.0080
     34 O5          3.6927   -1.2024   -6.9054 O.3       1 <0>        -0.2267
     35 H1          1.9820   -2.5786   -0.2170 H         1 <0>         0.0601
     36 H2          1.7964   -2.7421   -1.9797 H         1 <0>         0.0467
     37 H3          3.3999   -2.4135   -1.2804 H         1 <0>         0.0732
     38 H4          2.4211   -0.3597   -2.2665 H         1 <0>         0.0662
     39 H5         -1.8743    0.1249   -1.3662 H         1 <0>         0.1286
     40 H6         -3.2271   -0.0729   -3.4128 H         1 <0>         0.1236
     41 H7         -2.1975   -0.8807   -5.4976 H         1 <0>         0.1165
     42 H8          1.5480   -1.2887   -3.5003 H         1 <0>         0.1286
     43 H9          1.1741   -2.3228   -5.6663 H         1 <0>         0.0740
     44 H10        -0.3885   -2.1484   -6.5006 H         1 <0>         0.0777
     45 H11         0.1069    0.2434   -6.9283 H         1 <0>         0.0946
     46 H12         1.6695    0.0689   -6.0939 H         1 <0>         0.0864
     47 H13         1.1072   -1.8514   -9.7694 H         1 <0>         0.0945
     48 H14        -0.3155   -1.2580   -8.8795 H         1 <0>         0.0908
     49 H15         0.3897    1.0798   -9.3110 H         1 <0>         0.0785
     50 H16         1.8124    0.4864  -10.2009 H         1 <0>         0.0826
     51 H17         0.3227   -0.6580  -11.8195 H         1 <0>         0.0667
     52 H18        -1.1001   -0.0646  -10.9296 H         1 <0>         0.0648
     53 H19        -1.4567   -0.5636  -12.9280 H         1 <0>         0.1281
     54 H20        -2.7274   -0.4498  -15.0330 H         1 <0>         0.1241
     55 H21        -2.6983    1.6098  -16.3804 H         1 <0>         0.1227
     56 H22        -1.3994    3.5598  -15.6264 H         1 <0>         0.1284
     57 H23        -0.1352    3.4578  -13.5168 H         1 <0>         0.1301
     58 H24         5.8311   -2.6535  -10.4138 H         1 <0>         0.1309
     59 H25         7.9837   -2.8994   -9.2557 H         1 <0>         0.1329
     60 H26         8.1818   -2.3359   -6.8698 H         1 <0>         0.1378
     61 H27         6.2303   -1.5198   -5.6190 H         1 <0>         0.1358
@<TRIPOS>BOND
     1    1    2 1
     2    1   35 1
     3    1   36 1
     4    1   37 1
     5    2    3 1
     6    2    6 1
     7    2   38 1
     8    3    4 2
     9    3    5 1
    10    6    7 1
    11    7   12 ar
    12    7    8 ar
    13    8    9 ar
    14    8   39 1
    15    9   10 ar
    16    9   40 1
    17   10   11 ar
    18   10   41 1
    19   11   12 ar
    20   11   13 1
    21   12   42 1
    22   13   14 1
    23   13   43 1
    24   13   44 1
    25   14   15 1
    26   14   45 1
    27   14   46 1
    28   15   16 1
    29   15   26 1
    30   16   17 1
    31   16   47 1
    32   16   48 1
    33   17   18 1
    34   17   49 1
    35   17   50 1
    36   18   19 1
    37   18   51 1
    38   18   52 1
    39   19   20 1
    40   20   25 ar
    41   20   21 ar
    42   21   22 ar
    43   21   53 1
    44   22   23 ar
    45   22   54 1
    46   23   24 ar
    47   23   55 1
    48   24   25 ar
    49   24   56 1
    50   25   57 1
    51   26   34 1
    52   26   27 2
    53   27   28 1
    54   28   33 ar
    55   28   29 ar
    56   29   30 ar
    57   29   58 1
    58   30   31 ar
    59   30   59 1
    60   31   32 ar
    61   31   60 1
    62   32   33 ar
    63   32   61 1
    64   33   34 1
@<TRIPOS>MOLECULE
CHEMBL248326__1
   61    64     0     0     0
SMALL
USER_CHARGES

@<TRIPOS>ATOM
      1 C1         -0.2919    1.2729   -0.1842 C.3       1 <0>        -0.1564
      2 C2         -0.0341   -0.2288   -0.0449 C.3       1 <0>         0.0117
      3 C3          0.7685   -0.7123   -1.2252 C.2       1 <0>         0.5051
      4 O1          1.8987   -1.1386   -1.0603 O.co2     1 <0>        -0.6707
      5 O2          0.2875   -0.6771   -2.3450 O.co2     1 <0>        -0.6856
      6 O3          0.6932   -0.4774    1.1597 O.3       1 <0>        -0.2786
      7 C4         -0.0306   -0.5997    2.3034 C.ar      1 <0>         0.1486
      8 C5         -1.3999   -0.3764    2.2864 C.ar      1 <0>        -0.2178
      9 C6         -2.1334   -0.5018    3.4500 C.ar      1 <0>        -0.0775
     10 C7         -1.5042   -0.8496    4.6313 C.ar      1 <0>        -0.1704
     11 C8         -0.1400   -1.0721    4.6510 C.ar      1 <0>        -0.0510
     12 C9          0.5974   -0.9536    3.4885 C.ar      1 <0>        -0.1561
     13 C10         0.5426   -1.4505    5.9402 C.3       1 <0>        -0.0925
     14 C11         0.5502   -2.9736    6.0853 C.3       1 <0>         0.1241
     15 N1          1.2138   -3.3414    7.3386 N.pl3     1 <0>        -0.5649
     16 C12         0.4316   -3.4732    8.5703 C.3       1 <0>         0.1441
     17 C13        -0.0641   -4.9141    8.7079 C.3       1 <0>        -0.1401
     18 C14        -0.8809   -5.0518    9.9943 C.3       1 <0>         0.0653
     19 O4         -1.3439   -6.3976   10.1228 O.3       1 <0>        -0.3132
     20 C15        -2.0908   -6.6910   11.2196 C.ar      1 <0>         0.1324
     21 C16        -2.3771   -5.7025   12.1500 C.ar      1 <0>        -0.2099
     22 C17        -3.1369   -6.0032   13.2639 C.ar      1 <0>        -0.0806
     23 C18        -3.6116   -7.2881   13.4521 C.ar      1 <0>        -0.1615
     24 C19        -3.3273   -8.2751   12.5265 C.ar      1 <0>        -0.0810
     25 C20        -2.5730   -7.9781   11.4079 C.ar      1 <0>        -0.1540
     26 C21         2.5721   -3.5632    7.3588 C.2       1 <0>         0.5090
     27 N2          3.2610   -3.9006    8.4189 N.2       1 <0>        -0.5433
     28 C22         4.5689   -4.0341    8.0652 C.ar      1 <0>         0.0635
     29 C23         5.7276   -4.3693    8.7670 C.ar      1 <0>        -0.0856
     30 C24         6.9357   -4.4204    8.1067 C.ar      1 <0>        -0.1104
     31 C25         7.0062   -4.1407    6.7506 C.ar      1 <0>        -0.1157
     32 C26         5.8677   -3.8079    6.0447 C.ar      1 <0>        -0.0773
     33 C27         4.6447   -3.7522    6.6931 C.ar      1 <0>        -0.0086
     34 O5          3.3839   -3.4703    6.2910 O.3       1 <0>        -0.2264
     35 H1          0.6597    1.8033   -0.2183 H         1 <0>         0.0598
     36 H2         -0.8467    1.4626   -1.1031 H         1 <0>         0.0737
     37 H3         -0.8725    1.6226    0.6695 H         1 <0>         0.0477
     38 H4         -0.9858   -0.7592   -0.0108 H         1 <0>         0.0675
     39 H5         -1.8918   -0.1044    1.3642 H         1 <0>         0.1296
     40 H6         -3.1993   -0.3277    3.4374 H         1 <0>         0.1195
     41 H7         -2.0795   -0.9471    5.5401 H         1 <0>         0.1166
     42 H8          1.6624   -1.1320    3.5035 H         1 <0>         0.1274
     43 H9          1.5682   -1.0814    5.9303 H         1 <0>         0.0756
     44 H10         0.0054   -1.0083    6.7791 H         1 <0>         0.0778
     45 H11        -0.4753   -3.3427    6.0952 H         1 <0>         0.0945
     46 H12         1.0875   -3.4158    5.2463 H         1 <0>         0.0879
     47 H13         1.0570   -3.2208    9.4266 H         1 <0>         0.0945
     48 H14        -0.4226   -2.7972    8.5323 H         1 <0>         0.0911
     49 H15        -0.6895   -5.1666    7.8516 H         1 <0>         0.0787
     50 H16         0.7901   -5.5901    8.7459 H         1 <0>         0.0825
     51 H17        -0.2555   -4.7993   10.8506 H         1 <0>         0.0667
     52 H18        -1.7351   -4.3757    9.9563 H         1 <0>         0.0648
     53 H19        -2.0060   -4.6989   12.0038 H         1 <0>         0.1281
     54 H20        -3.3601   -5.2340   13.9884 H         1 <0>         0.1242
     55 H21        -4.2052   -7.5213   14.3237 H         1 <0>         0.1227
     56 H22        -3.6989   -9.2781   12.6759 H         1 <0>         0.1284
     57 H23        -2.3549   -8.7484   10.6829 H         1 <0>         0.1301
     58 H24         5.6775   -4.5873    9.8236 H         1 <0>         0.1310
     59 H25         7.8331   -4.6797    8.6487 H         1 <0>         0.1328
     60 H26         7.9586   -4.1831    6.2432 H         1 <0>         0.1373
     61 H27         5.9303   -3.5908    4.9886 H         1 <0>         0.1347
@<TRIPOS>BOND
     1    1    2 1
     2    1   35 1
     3    1   36 1
     4    1   37 1
     5    2    3 1
     6    2    6 1
     7    2   38 1
     8    3    4 2
     9    3    5 1
    10    6    7 1
    11    7   12 ar
    12    7    8 ar
    13    8    9 ar
    14    8   39 1
    15    9   10 ar
    16    9   40 1
    17   10   11 ar
    18   10   41 1
    19   11   12 ar
    20   11   13 1
    21   12   42 1
    22   13   14 1
    23   13   43 1
    24   13   44 1
    25   14   15 1
    26   14   45 1
    27   14   46 1
    28   15   16 1
    29   15   26 1
    30   16   17 1
    31   16   47 1
    32   16   48 1
    33   17   18 1
    34   17   49 1
    35   17   50 1
    36   18   19 1
    37   18   51 1
    38   18   52 1
    39   19   20 1
    40   20   25 ar
    41   20   21 ar
    42   21   22 ar
    43   21   53 1
    44   22   23 ar
    45   22   54 1
    46   23   24 ar
    47   23   55 1
    48   24   25 ar
    49   24   56 1
    50   25   57 1
    51   26   34 1
    52   26   27 2
    53   27   28 1
    54   28   33 ar
    55   28   29 ar
    56   29   30 ar
    57   29   58 1
    58   30   31 ar
    59   30   59 1
    60   31   32 ar
    61   31   60 1
    62   32   33 ar
    63   32   61 1
    64   33   34 1
@<TRIPOS>MOLECULE
CHEMBL363006
   50    52     0     0     0
SMALL
USER_CHARGES

@<TRIPOS>ATOM
      1 C1         -0.0187    1.5258    0.0104 C.3       1 <0>        -0.1362
      2 C2          0.0021   -0.0041    0.0020 C.3       1 <0>        -0.0921
      3 C3          0.7421   -0.5109    1.2415 C.3       1 <0>        -0.1487
      4 C4         -1.4333   -0.5336    0.0129 C.3       1 <0>         0.0479
      5 C5         -1.4476   -2.0757    0.1354 C.3       1 <0>        -0.0834
      6 C6         -1.5609   -2.2702    1.6351 C.ar      1 <0>        -0.1322
      7 C7         -1.3523   -3.3665    2.4426 C.ar      1 <0>        -0.0985
      8 C8         -1.5251   -3.2584    3.8153 C.ar      1 <0>         0.0818
      9 C9         -1.9077   -2.0436    4.3652 C.ar      1 <0>        -0.1737
     10 C10        -2.1192   -0.9486    3.5540 C.ar      1 <0>        -0.1191
     11 C11        -1.9508   -1.0520    2.1755 C.ar      1 <0>         0.0959
     12 O1         -2.1222   -0.1135    1.2028 O.3       1 <0>        -0.2668
     13 O2         -1.3210   -4.3376    4.6170 O.3       1 <0>        -0.3091
     14 C12        -1.5181   -4.1502    6.0199 C.3       1 <0>         0.0626
     15 C13        -1.2440   -5.4646    6.7535 C.3       1 <0>         0.0585
     16 O3          0.1344   -5.8124    6.6085 O.3       1 <0>        -0.2880
     17 C14         0.5471   -6.9627    7.2056 C.ar      1 <0>         0.1324
     18 C15        -0.3583   -7.7414    7.9106 C.ar      1 <0>        -0.1644
     19 C16         0.0605   -8.9099    8.5167 C.ar      1 <0>        -0.0747
     20 C17         1.3868   -9.3047    8.4210 C.ar      1 <0>         0.0747
     21 C18         2.2929   -8.5266    7.7162 C.ar      1 <0>        -0.1443
     22 C19         1.8729   -7.3601    7.1047 C.ar      1 <0>        -0.0329
     23 Cl1         3.0051   -6.3893    6.2162 Cl        1 <0>        -0.0332
     24 O4          1.7987  -10.4546    9.0186 O.3       1 <0>        -0.3058
     25 C20         3.1783  -10.8001    8.8792 C.3       1 <0>         0.6025
     26 F1          3.9707   -9.7863    9.4284 F         1 <0>        -0.1639
     27 F2          3.4280  -12.0022    9.5499 F         1 <0>        -0.1300
     28 F3          3.4867  -10.9500    7.5229 F         1 <0>        -0.1631
     29 C21        -2.1750   -0.0852   -1.2199 C.2       1 <0>         0.5159
     30 O5         -1.7690   -0.4027   -2.3249 O.co2     1 <0>        -0.6809
     31 O6         -3.1810    0.5951   -1.1124 O.co2     1 <0>        -0.6701
     32 H1          1.0039    1.9031    0.0027 H         1 <0>         0.0458
     33 H2         -0.5459    1.8868   -0.8726 H         1 <0>         0.0604
     34 H3         -0.5289    1.8773    0.9072 H         1 <0>         0.0544
     35 H4          0.5123   -0.3556   -0.8948 H         1 <0>         0.0861
     36 H5          0.7568   -1.6008    1.2356 H         1 <0>         0.0547
     37 H6          1.7647   -0.1336    1.2338 H         1 <0>         0.0496
     38 H7          0.2319   -0.1594    2.1383 H         1 <0>         0.0537
     39 H8         -2.3105   -2.4993   -0.3786 H         1 <0>         0.0878
     40 H9         -0.5205   -2.5052   -0.2442 H         1 <0>         0.0877
     41 H10        -1.0543   -4.3091    2.0079 H         1 <0>         0.1275
     42 H11        -2.0408   -1.9552    5.4333 H         1 <0>         0.1273
     43 H12        -2.4169   -0.0064    3.9899 H         1 <0>         0.1262
     44 H13        -0.8354   -3.3820    6.3833 H         1 <0>         0.0739
     45 H14        -2.5464   -3.8390    6.2039 H         1 <0>         0.0855
     46 H15        -1.4796   -5.3463    7.8111 H         1 <0>         0.0873
     47 H16        -1.8645   -6.2538    6.3290 H         1 <0>         0.0794
     48 H17        -1.3909   -7.4341    7.9860 H         1 <0>         0.1532
     49 H18        -0.6449   -9.5162    9.0657 H         1 <0>         0.1492
     50 H19         3.3255   -8.8340    7.6417 H         1 <0>         0.1493
@<TRIPOS>BOND
     1    1    2 1
     2    1   32 1
     3    1   33 1
     4    1   34 1
     5    2    3 1
     6    2    4 1
     7    2   35 1
     8    3   36 1
     9    3   37 1
    10    3   38 1
    11    4   12 1
    12    4    5 1
    13    4   29 1
    14    5    6 1
    15    5   39 1
    16    5   40 1
    17    6   11 ar
    18    6    7 ar
    19    7    8 ar
    20    7   41 1
    21    8    9 ar
    22    8   13 1
    23    9   10 ar
    24    9   42 1
    25   10   11 ar
    26   10   43 1
    27   11   12 1
    28   13   14 1
    29   14   15 1
    30   14   44 1
    31   14   45 1
    32   15   16 1
    33   15   46 1
    34   15   47 1
    35   16   17 1
    36   17   22 ar
    37   17   18 ar
    38   18   19 ar
    39   18   48 1
    40   19   20 ar
    41   19   49 1
    42   20   21 ar
    43   20   24 1
    44   21   22 ar
    45   21   50 1
    46   22   23 1
    47   24   25 1
    48   25   26 1
    49   25   27 1
    50   25   28 1
    51   29   30 2
    52   29   31 1
@<TRIPOS>MOLECULE
CHEMBL395924
   64    67     0     0     0
SMALL
USER_CHARGES

@<TRIPOS>ATOM
      1 C1         -1.4789   -0.2562   -0.3699 C.3       1 <0>        -0.1147
      2 C2         -0.0199    0.1619   -0.1767 C.3       1 <0>         0.0303
      3 C3          0.1469    1.6298   -0.5745 C.3       1 <0>        -0.1737
      4 C4          0.3656   -0.0135    1.2696 C.2       1 <0>         0.4818
      5 O1          1.2764   -0.7660    1.5707 O.co2     1 <0>        -0.6692
      6 O2         -0.2333    0.5971    2.1385 O.co2     1 <0>        -0.6868
      7 O3          0.8214   -0.6522   -0.9960 O.3       1 <0>        -0.3046
      8 C5          2.1554   -0.3953   -0.9577 C.ar      1 <0>         0.1675
      9 C6          2.6591    0.5304   -0.0551 C.ar      1 <0>        -0.1570
     10 C7          4.0153    0.7894   -0.0178 C.ar      1 <0>        -0.0967
     11 C8          4.8709    0.1270   -0.8789 C.ar      1 <0>        -0.1653
     12 C9          4.3715   -0.7954   -1.7794 C.ar      1 <0>        -0.0650
     13 C10         3.0163   -1.0623   -1.8168 C.ar      1 <0>        -0.1673
     14 C11         5.3066   -1.5151   -2.7167 C.3       1 <0>        -0.0653
     15 C12         5.7962   -2.8059   -2.0571 C.3       1 <0>        -0.1327
     16 C13         6.7457   -3.5366   -3.0087 C.3       1 <0>         0.1377
     17 N1          7.2145   -4.7725   -2.3772 N.pl3     1 <0>        -0.5645
     18 C14         6.4657   -6.0183   -2.5603 C.3       1 <0>         0.1225
     19 C15         6.9913   -6.7524   -3.7955 C.3       1 <0>         0.0363
     20 O4          8.3442   -7.1540   -3.5711 O.3       1 <0>        -0.3051
     21 C16         8.9642   -7.8233   -4.5784 C.ar      1 <0>         0.1336
     22 C17         8.2863   -8.0830   -5.7606 C.ar      1 <0>        -0.2105
     23 C18         8.9189   -8.7632   -6.7831 C.ar      1 <0>        -0.0805
     24 C19        10.2265   -9.1853   -6.6289 C.ar      1 <0>        -0.1617
     25 C20        10.9042   -8.9281   -5.4515 C.ar      1 <0>        -0.0805
     26 C21        10.2780   -8.2429   -4.4283 C.ar      1 <0>        -0.1519
     27 C22         8.3585   -4.7633   -1.6117 C.2       1 <0>         0.5200
     28 N2          9.0969   -3.7082   -1.3797 N.2       1 <0>        -0.5411
     29 C23        10.1421   -4.0727   -0.5872 C.ar      1 <0>         0.0670
     30 C24        11.2214   -3.3802   -0.0367 C.ar      1 <0>        -0.0835
     31 C25        12.1368   -4.0509    0.7444 C.ar      1 <0>        -0.1120
     32 C26        11.9919   -5.4085    0.9856 C.ar      1 <0>        -0.1191
     33 C27        10.9290   -6.1053    0.4472 C.ar      1 <0>        -0.0808
     34 C28         9.9990   -5.4462   -0.3402 C.ar      1 <0>        -0.0102
     35 O5          8.8772   -5.8359   -0.9885 O.3       1 <0>        -0.2225
     36 H1         -1.7830   -0.0506   -1.3962 H         1 <0>         0.0501
     37 H2         -1.5812   -1.3223   -0.1673 H         1 <0>         0.0562
     38 H3         -2.1120    0.3064    0.3163 H         1 <0>         0.0780
     39 H4         -0.3260    2.2652    0.1743 H         1 <0>         0.0745
     40 H5          1.2081    1.8708   -0.6377 H         1 <0>         0.0678
     41 H6         -0.3225    1.7992   -1.5436 H         1 <0>         0.0501
     42 H7          1.9912    1.0482    0.6173 H         1 <0>         0.1373
     43 H8          4.4078    1.5101    0.6843 H         1 <0>         0.1131
     44 H9          5.9310    0.3309   -0.8482 H         1 <0>         0.1112
     45 H10         2.6272   -1.7863   -2.5173 H         1 <0>         0.1169
     46 H11         4.7808   -1.7560   -3.6406 H         1 <0>         0.0687
     47 H12         6.1601   -0.8752   -2.9406 H         1 <0>         0.0718
     48 H13         6.3221   -2.5650   -1.1332 H         1 <0>         0.0735
     49 H14         4.9427   -3.4458   -1.8331 H         1 <0>         0.0679
     50 H15         6.2198   -3.7774   -3.9326 H         1 <0>         0.0843
     51 H16         7.5992   -2.8966   -3.2327 H         1 <0>         0.0921
     52 H17         6.5914   -6.6503   -1.6811 H         1 <0>         0.0931
     53 H18         5.4084   -5.7903   -2.6956 H         1 <0>         0.1167
     54 H19         6.3772   -7.6332   -3.9834 H         1 <0>         0.0774
     55 H20         6.9478   -6.0883   -4.6587 H         1 <0>         0.0695
     56 H21         7.2647   -7.7541   -5.8812 H         1 <0>         0.1270
     57 H22         8.3916   -8.9656   -7.7036 H         1 <0>         0.1238
     58 H23        10.7192   -9.7172   -7.4294 H         1 <0>         0.1225
     59 H24        11.9254   -9.2591   -5.3334 H         1 <0>         0.1278
     60 H25        10.8092   -8.0383   -3.5105 H         1 <0>         0.1276
     61 H26        11.3387   -2.3228   -0.2225 H         1 <0>         0.1318
     62 H27        12.9725   -3.5161    1.1710 H         1 <0>         0.1320
     63 H28        12.7159   -5.9244    1.5988 H         1 <0>         0.1346
     64 H29        10.8227   -7.1628    0.6391 H         1 <0>         0.1287
@<TRIPOS>BOND
     1    1    2 1
     2    1   36 1
     3    1   37 1
     4    1   38 1
     5    2    3 1
     6    2    4 1
     7    2    7 1
     8    3   39 1
     9    3   40 1
    10    3   41 1
    11    4    5 2
    12    4    6 1
    13    7    8 1
    14    8   13 ar
    15    8    9 ar
    16    9   10 ar
    17    9   42 1
    18   10   11 ar
    19   10   43 1
    20   11   12 ar
    21   11   44 1
    22   12   13 ar
    23   12   14 1
    24   13   45 1
    25   14   15 1
    26   14   46 1
    27   14   47 1
    28   15   16 1
    29   15   48 1
    30   15   49 1
    31   16   17 1
    32   16   50 1
    33   16   51 1
    34   17   18 1
    35   17   27 1
    36   18   19 1
    37   18   52 1
    38   18   53 1
    39   19   20 1
    40   19   54 1
    41   19   55 1
    42   20   21 1
    43   21   26 ar
    44   21   22 ar
    45   22   23 ar
    46   22   56 1
    47   23   24 ar
    48   23   57 1
    49   24   25 ar
    50   24   58 1
    51   25   26 ar
    52   25   59 1
    53   26   60 1
    54   27   35 1
    55   27   28 2
    56   28   29 1
    57   29   34 ar
    58   29   30 ar
    59   30   31 ar
    60   30   61 1
    61   31   32 ar
    62   31   62 1
    63   32   33 ar
    64   32   63 1
    65   33   34 ar
    66   33   64 1
    67   34   35 1
@<TRIPOS>MOLECULE
CHEMBL248117
   61    64     0     0     0
SMALL
USER_CHARGES

@<TRIPOS>ATOM
      1 C1         -1.4789   -0.2562   -0.3699 C.3       1 <0>        -0.1152
      2 C2         -0.0199    0.1619   -0.1767 C.3       1 <0>         0.0301
      3 C3          0.1469    1.6298   -0.5745 C.3       1 <0>        -0.1736
      4 C4          0.3656   -0.0135    1.2696 C.2       1 <0>         0.4822
      5 O1          1.2764   -0.7660    1.5707 O.co2     1 <0>        -0.6691
      6 O2         -0.2333    0.5971    2.1385 O.co2     1 <0>        -0.6868
      7 O3          0.8214   -0.6522   -0.9960 O.3       1 <0>        -0.3026
      8 C5          2.1554   -0.3953   -0.9577 C.ar      1 <0>         0.1694
      9 C6          2.6591    0.5304   -0.0551 C.ar      1 <0>        -0.1546
     10 C7          4.0153    0.7894   -0.0178 C.ar      1 <0>        -0.0978
     11 C8          4.8709    0.1270   -0.8789 C.ar      1 <0>        -0.1673
     12 C9          4.3715   -0.7954   -1.7794 C.ar      1 <0>        -0.0665
     13 C10         3.0163   -1.0623   -1.8168 C.ar      1 <0>        -0.1596
     14 C11         5.3066   -1.5151   -2.7167 C.3       1 <0>        -0.0848
     15 C12         5.7962   -2.8059   -2.0571 C.3       1 <0>         0.1407
     16 N1          6.7053   -3.5055   -2.9683 N.pl3     1 <0>        -0.5650
     17 C13         8.1431   -3.2275   -2.9250 C.3       1 <0>         0.1244
     18 C14         8.8167   -4.1780   -1.9331 C.3       1 <0>         0.0342
     19 O4          8.7054   -5.5206   -2.4095 O.3       1 <0>        -0.3053
     20 C15         9.2562   -6.4960   -1.6398 C.ar      1 <0>         0.1335
     21 C16         9.8856   -6.1680   -0.4478 C.ar      1 <0>        -0.2097
     22 C17        10.4442   -7.1613    0.3330 C.ar      1 <0>        -0.0802
     23 C18        10.3769   -8.4814   -0.0728 C.ar      1 <0>        -0.1613
     24 C19         9.7505   -8.8107   -1.2607 C.ar      1 <0>        -0.0808
     25 C20         9.1849   -7.8218   -2.0420 C.ar      1 <0>        -0.1518
     26 C21         6.2087   -4.4241   -3.8651 C.2       1 <0>         0.5178
     27 N2          4.9456   -4.7422   -3.9906 N.2       1 <0>        -0.5367
     28 C22         4.8269   -5.6792   -4.9712 C.ar      1 <0>         0.0676
     29 C23         3.7441   -6.3668   -5.5209 C.ar      1 <0>        -0.0822
     30 C24         3.9560   -7.2796   -6.5308 C.ar      1 <0>        -0.1126
     31 C25         5.2375   -7.5187   -7.0027 C.ar      1 <0>        -0.1197
     32 C26         6.3171   -6.8454   -6.4677 C.ar      1 <0>        -0.0820
     33 C27         6.1219   -5.9237   -5.4519 C.ar      1 <0>        -0.0114
     34 O5          6.9499   -5.1213   -4.7440 O.3       1 <0>        -0.2237
     35 H1         -1.7830   -0.0506   -1.3962 H         1 <0>         0.0504
     36 H2         -1.5812   -1.3223   -0.1673 H         1 <0>         0.0569
     37 H3         -2.1120    0.3064    0.3163 H         1 <0>         0.0780
     38 H4         -0.3260    2.2652    0.1743 H         1 <0>         0.0746
     39 H5          1.2081    1.8708   -0.6377 H         1 <0>         0.0673
     40 H6         -0.3225    1.7992   -1.5436 H         1 <0>         0.0504
     41 H7          1.9912    1.0482    0.6173 H         1 <0>         0.1380
     42 H8          4.4078    1.5101    0.6843 H         1 <0>         0.1135
     43 H9          5.9310    0.3309   -0.8482 H         1 <0>         0.1100
     44 H10         2.6272   -1.7863   -2.5173 H         1 <0>         0.1212
     45 H11         4.7808   -1.7560   -3.6406 H         1 <0>         0.0757
     46 H12         6.1601   -0.8752   -2.9406 H         1 <0>         0.0693
     47 H13         6.3221   -2.5650   -1.1332 H         1 <0>         0.0882
     48 H14         4.9427   -3.4458   -1.8331 H         1 <0>         0.0972
     49 H15         8.5714   -3.3738   -3.9166 H         1 <0>         0.0917
     50 H16         8.3045   -2.1972   -2.6078 H         1 <0>         0.1148
     51 H17         9.8695   -3.9136   -1.8343 H         1 <0>         0.0765
     52 H18         8.3286   -4.0954   -0.9620 H         1 <0>         0.0714
     53 H19         9.9391   -5.1370   -0.1307 H         1 <0>         0.1271
     54 H20        10.9343   -6.9066    1.2611 H         1 <0>         0.1240
     55 H21        10.8145   -9.2564    0.5388 H         1 <0>         0.1225
     56 H22         9.6995   -9.8425   -1.5757 H         1 <0>         0.1277
     57 H23         8.6919   -8.0800   -2.9676 H         1 <0>         0.1272
     58 H24         2.7442   -6.1843   -5.1560 H         1 <0>         0.1332
     59 H25         3.1188   -7.8124   -6.9571 H         1 <0>         0.1319
     60 H26         5.3922   -8.2370   -7.7942 H         1 <0>         0.1339
     61 H27         7.3126   -7.0370   -6.8400 H         1 <0>         0.1278
@<TRIPOS>BOND
     1    1    2 1
     2    1   35 1
     3    1   36 1
     4    1   37 1
     5    2    3 1
     6    2    4 1
     7    2    7 1
     8    3   38 1
     9    3   39 1
    10    3   40 1
    11    4    5 2
    12    4    6 1
    13    7    8 1
    14    8   13 ar
    15    8    9 ar
    16    9   10 ar
    17    9   41 1
    18   10   11 ar
    19   10   42 1
    20   11   12 ar
    21   11   43 1
    22   12   13 ar
    23   12   14 1
    24   13   44 1
    25   14   15 1
    26   14   45 1
    27   14   46 1
    28   15   16 1
    29   15   47 1
    30   15   48 1
    31   16   17 1
    32   16   26 1
    33   17   18 1
    34   17   49 1
    35   17   50 1
    36   18   19 1
    37   18   51 1
    38   18   52 1
    39   19   20 1
    40   20   25 ar
    41   20   21 ar
    42   21   22 ar
    43   21   53 1
    44   22   23 ar
    45   22   54 1
    46   23   24 ar
    47   23   55 1
    48   24   25 ar
    49   24   56 1
    50   25   57 1
    51   26   34 1
    52   26   27 2
    53   27   28 1
    54   28   33 ar
    55   28   29 ar
    56   29   30 ar
    57   29   58 1
    58   30   31 ar
    59   30   59 1
    60   31   32 ar
    61   31   60 1
    62   32   33 ar
    63   32   61 1
    64   33   34 1
@<TRIPOS>MOLECULE
CHEMBL247919
   58    61     0     0     0
SMALL
USER_CHARGES

@<TRIPOS>ATOM
      1 C1         -1.4789   -0.2562   -0.3699 C.3       1 <0>        -0.1147
      2 C2         -0.0199    0.1619   -0.1767 C.3       1 <0>         0.0307
      3 C3          0.1469    1.6298   -0.5745 C.3       1 <0>        -0.1736
      4 C4          0.3656   -0.0135    1.2696 C.2       1 <0>         0.4814
      5 O1          1.2764   -0.7660    1.5707 O.co2     1 <0>        -0.6694
      6 O2         -0.2333    0.5971    2.1385 O.co2     1 <0>        -0.6861
      7 O3          0.8214   -0.6522   -0.9960 O.3       1 <0>        -0.3045
      8 C5          2.1554   -0.3953   -0.9577 C.ar      1 <0>         0.1618
      9 C6          2.6591    0.5304   -0.0551 C.ar      1 <0>        -0.1436
     10 C7          4.0153    0.7894   -0.0178 C.ar      1 <0>        -0.1030
     11 C8          4.8709    0.1270   -0.8789 C.ar      1 <0>        -0.1362
     12 C9          4.3715   -0.7954   -1.7794 C.ar      1 <0>        -0.1022
     13 C10         3.0163   -1.0623   -1.8168 C.ar      1 <0>        -0.1557
     14 C11         5.3066   -1.5151   -2.7167 C.3       1 <0>         0.1867
     15 N1          5.7754   -2.7511   -2.0851 N.pl3     1 <0>        -0.5572
     16 C12         5.0266   -3.9969   -2.2682 C.3       1 <0>         0.1221
     17 C13         5.5522   -4.7310   -3.5034 C.3       1 <0>         0.0375
     18 O4          6.9052   -5.1325   -3.2791 O.3       1 <0>        -0.3041
     19 C14         7.5252   -5.8018   -4.2863 C.ar      1 <0>         0.1352
     20 C15         6.8473   -6.0616   -5.4685 C.ar      1 <0>        -0.2109
     21 C16         7.4799   -6.7417   -6.4911 C.ar      1 <0>        -0.0807
     22 C17         8.7875   -7.1638   -6.3369 C.ar      1 <0>        -0.1631
     23 C18         9.4652   -6.9066   -5.1595 C.ar      1 <0>        -0.0808
     24 C19         8.8390   -6.2214   -4.1363 C.ar      1 <0>        -0.1523
     25 C20         6.9194   -2.7418   -1.3197 C.2       1 <0>         0.5264
     26 N2          7.6578   -1.6867   -1.0876 N.2       1 <0>        -0.5420
     27 C21         8.7031   -2.0513   -0.2951 C.ar      1 <0>         0.0700
     28 C22         9.7823   -1.3587    0.2553 C.ar      1 <0>        -0.0854
     29 C23        10.6978   -2.0294    1.0364 C.ar      1 <0>        -0.1129
     30 C24        10.5528   -3.3870    1.2777 C.ar      1 <0>        -0.1221
     31 C25         9.4900   -4.0838    0.7392 C.ar      1 <0>        -0.0800
     32 C26         8.5599   -3.4247   -0.0481 C.ar      1 <0>        -0.0108
     33 O5          7.4382   -3.8144   -0.6965 O.3       1 <0>        -0.2225
     34 H1         -1.7830   -0.0506   -1.3962 H         1 <0>         0.0503
     35 H2         -1.5812   -1.3223   -0.1673 H         1 <0>         0.0562
     36 H3         -2.1120    0.3064    0.3163 H         1 <0>         0.0781
     37 H4         -0.3260    2.2652    0.1743 H         1 <0>         0.0748
     38 H5          1.2081    1.8708   -0.6377 H         1 <0>         0.0672
     39 H6         -0.3225    1.7992   -1.5436 H         1 <0>         0.0506
     40 H7          1.9912    1.0482    0.6173 H         1 <0>         0.1381
     41 H8          4.4078    1.5101    0.6843 H         1 <0>         0.1140
     42 H9          5.9310    0.3309   -0.8482 H         1 <0>         0.1223
     43 H10         2.6272   -1.7863   -2.5173 H         1 <0>         0.1166
     44 H11         4.7808   -1.7560   -3.6406 H         1 <0>         0.0901
     45 H12         6.1601   -0.8752   -2.9406 H         1 <0>         0.0981
     46 H13         5.1523   -4.6289   -1.3891 H         1 <0>         0.0930
     47 H14         3.9694   -3.7688   -2.4036 H         1 <0>         0.1171
     48 H15         4.9382   -5.6117   -3.6913 H         1 <0>         0.0774
     49 H16         5.5087   -4.0669   -4.3667 H         1 <0>         0.0696
     50 H17         5.8257   -5.7327   -5.5892 H         1 <0>         0.1272
     51 H18         6.9525   -6.9441   -7.4116 H         1 <0>         0.1232
     52 H19         9.2802   -7.6957   -7.1374 H         1 <0>         0.1217
     53 H20        10.4863   -7.2377   -5.0413 H         1 <0>         0.1272
     54 H21         9.3702   -6.0169   -3.2185 H         1 <0>         0.1276
     55 H22         9.8996   -0.3013    0.0695 H         1 <0>         0.1306
     56 H23        11.5335   -1.4946    1.4630 H         1 <0>         0.1304
     57 H24        11.2768   -3.9030    1.8909 H         1 <0>         0.1331
     58 H25         9.3837   -5.1413    0.9311 H         1 <0>         0.1277
@<TRIPOS>BOND
     1    1    2 1
     2    1   34 1
     3    1   35 1
     4    1   36 1
     5    2    3 1
     6    2    4 1
     7    2    7 1
     8    3   37 1
     9    3   38 1
    10    3   39 1
    11    4    5 2
    12    4    6 1
    13    7    8 1
    14    8   13 ar
    15    8    9 ar
    16    9   10 ar
    17    9   40 1
    18   10   11 ar
    19   10   41 1
    20   11   12 ar
    21   11   42 1
    22   12   13 ar
    23   12   14 1
    24   13   43 1
    25   14   15 1
    26   14   44 1
    27   14   45 1
    28   15   16 1
    29   15   25 1
    30   16   17 1
    31   16   46 1
    32   16   47 1
    33   17   18 1
    34   17   48 1
    35   17   49 1
    36   18   19 1
    37   19   24 ar
    38   19   20 ar
    39   20   21 ar
    40   20   50 1
    41   21   22 ar
    42   21   51 1
    43   22   23 ar
    44   22   52 1
    45   23   24 ar
    46   23   53 1
    47   24   54 1
    48   25   33 1
    49   25   26 2
    50   26   27 1
    51   27   32 ar
    52   27   28 ar
    53   28   29 ar
    54   28   55 1
    55   29   30 ar
    56   29   56 1
    57   30   31 ar
    58   30   57 1
    59   31   32 ar
    60   31   58 1
    61   32   33 1
@<TRIPOS>MOLECULE
CHEMBL255097
   73    76     0     0     0
SMALL
USER_CHARGES

@<TRIPOS>ATOM
      1 C1         -0.5555    1.0113    0.8822 C.3       1 <0>        -0.0708
      2 C2         -0.4106   -0.4424    0.5120 C.2       1 <0>        -0.0345
      3 C3         -1.4077   -1.2877    0.1935 C.2       1 <0>        -0.0037
      4 N1         -0.8630   -2.4849   -0.0707 N.2       1 <0>        -0.4568
      5 C4          0.4378   -2.3957    0.0771 C.2       1 <0>         0.2279
      6 O1          0.7424   -1.1357    0.4329 O.3       1 <0>        -0.1940
      7 C5          1.4064   -3.4949   -0.1208 C.ar      1 <0>        -0.0165
      8 C6          0.9611   -4.7610   -0.5038 C.ar      1 <0>        -0.0701
      9 C7          1.8702   -5.7823   -0.6872 C.ar      1 <0>        -0.1200
     10 C8          3.2208   -5.5536   -0.4923 C.ar      1 <0>        -0.1016
     11 C9          3.6688   -4.3010   -0.1122 C.ar      1 <0>        -0.1220
     12 C10         2.7706   -3.2695    0.0690 C.ar      1 <0>        -0.0913
     13 C11        -2.8755   -0.9499    0.1431 C.3       1 <0>        -0.0370
     14 C12        -3.2400   -0.4684   -1.2627 C.3       1 <0>         0.0692
     15 O2         -4.6318   -0.1481   -1.3105 O.3       1 <0>        -0.3111
     16 C13        -5.1217    0.2985   -2.4969 C.ar      1 <0>         0.1316
     17 C14        -4.2813    0.4203   -3.5942 C.ar      1 <0>        -0.2148
     18 C15        -4.7817    0.8739   -4.7990 C.ar      1 <0>        -0.0810
     19 C16        -6.1192    1.2066   -4.9122 C.ar      1 <0>        -0.1496
     20 C17        -6.9586    1.0865   -3.8203 C.ar      1 <0>        -0.0231
     21 C18        -6.4641    0.6278   -2.6144 C.ar      1 <0>        -0.1401
     22 C19        -8.4155    1.4503   -3.9470 C.3       1 <0>        -0.0634
     23 C20        -8.8769    2.1646   -2.6728 C.3       1 <0>         0.1347
     24 N2        -10.3253    2.3957   -2.7582 N.am      1 <0>        -0.5850
     25 C21       -11.2078    1.2539   -3.0343 C.3       1 <0>         0.1080
     26 C22       -10.7203    0.5498   -4.3046 C.3       1 <0>        -0.1264
     27 C23        -9.2443    0.1788   -4.1429 C.3       1 <0>        -0.0522
     28 C24        -9.0780   -0.7309   -2.9240 C.3       1 <0>        -0.1900
     29 C25        -9.7701   -2.0449   -3.1797 C.2       1 <0>         0.4926
     30 O3        -10.3433   -2.2361   -4.2387 O.co2     1 <0>        -0.6960
     31 O4         -9.7569   -2.9168   -2.3276 O.co2     1 <0>        -0.7065
     32 C26       -10.8349    3.6315   -2.5861 C.2       1 <0>         0.6498
     33 O5        -10.0945    4.5676   -2.3579 O.2       1 <0>        -0.5832
     34 O6        -12.1642    3.8288   -2.6671 O.3       1 <0>        -0.3600
     35 C27       -12.6348    5.1642   -2.4742 C.3       1 <0>         0.0893
     36 C28       -14.1592    5.1913   -2.6020 C.3       1 <0>        -0.0964
     37 C29       -14.6738    6.5941   -2.2730 C.3       1 <0>        -0.1444
     38 C30       -14.5576    4.8245   -4.0330 C.3       1 <0>        -0.1476
     39 H1          0.4285    1.4350    1.0827 H         1 <0>         0.0797
     40 H2         -1.0225    1.5511    0.0584 H         1 <0>         0.0916
     41 H3         -1.1773    1.0991    1.7731 H         1 <0>         0.0933
     42 H4         -0.0929   -4.9409   -0.6559 H         1 <0>         0.1401
     43 H5          1.5270   -6.7626   -0.9832 H         1 <0>         0.1332
     44 H6          3.9284   -6.3565   -0.6372 H         1 <0>         0.1281
     45 H7          4.7242   -4.1292    0.0390 H         1 <0>         0.1300
     46 H8          3.1220   -2.2910    0.3611 H         1 <0>         0.1296
     47 H9         -3.4610   -1.8365    0.3866 H         1 <0>         0.0977
     48 H10        -3.0920   -0.1621    0.8645 H         1 <0>         0.0934
     49 H11        -2.6545    0.4182   -1.5062 H         1 <0>         0.0595
     50 H12        -3.0235   -1.2562   -1.9841 H         1 <0>         0.0657
     51 H13        -3.2365    0.1610   -3.5062 H         1 <0>         0.1214
     52 H14        -4.1278    0.9693   -5.6532 H         1 <0>         0.1212
     53 H15        -6.5086    1.5611   -5.8551 H         1 <0>         0.1221
     54 H16        -7.1211    0.5299   -1.7629 H         1 <0>         0.1357
     55 H17        -8.5526    2.1096   -4.8042 H         1 <0>         0.0814
     56 H18        -8.6566    1.5427   -1.8051 H         1 <0>         0.0786
     57 H19        -8.3593    3.1195   -2.5813 H         1 <0>         0.0924
     58 H20       -11.1776    0.5577   -2.1962 H         1 <0>         0.0764
     59 H21       -12.2281    1.6078   -3.1815 H         1 <0>         0.0861
     60 H22       -11.3069   -0.3543   -4.4673 H         1 <0>         0.1104
     61 H23       -10.8361    1.2178   -5.1580 H         1 <0>         0.0516
     62 H24        -8.9015   -0.3442   -5.0356 H         1 <0>         0.0773
     63 H25        -8.0175   -0.9077   -2.7447 H         1 <0>         0.0676
     64 H26        -9.5193   -0.2518   -2.0501 H         1 <0>         0.0571
     65 H27       -12.3472    5.5110   -1.4817 H         1 <0>         0.0646
     66 H28       -12.1953    5.8169   -3.2286 H         1 <0>         0.0650
     67 H29       -14.5948    4.4724   -1.9080 H         1 <0>         0.0821
     68 H30       -14.2382    7.3129   -2.9670 H         1 <0>         0.0576
     69 H31       -15.7598    6.6133   -2.3641 H         1 <0>         0.0639
     70 H32       -14.3900    6.8554   -1.2536 H         1 <0>         0.0576
     71 H33       -14.1221    5.5433   -4.7270 H         1 <0>         0.0533
     72 H34       -14.1910    3.8251   -4.2673 H         1 <0>         0.0644
     73 H35       -15.6437    4.8437   -4.1240 H         1 <0>         0.0561
@<TRIPOS>BOND
     1    1    2 1
     2    1   39 1
     3    1   40 1
     4    1   41 1
     5    2    6 1
     6    2    3 2
     7    3    4 1
     8    3   13 1
     9    4    5 2
    10    5    6 1
    11    5    7 1
    12    7   12 ar
    13    7    8 ar
    14    8    9 ar
    15    8   42 1
    16    9   10 ar
    17    9   43 1
    18   10   11 ar
    19   10   44 1
    20   11   12 ar
    21   11   45 1
    22   12   46 1
    23   13   14 1
    24   13   47 1
    25   13   48 1
    26   14   15 1
    27   14   49 1
    28   14   50 1
    29   15   16 1
    30   16   21 ar
    31   16   17 ar
    32   17   18 ar
    33   17   51 1
    34   18   19 ar
    35   18   52 1
    36   19   20 ar
    37   19   53 1
    38   20   21 ar
    39   20   22 1
    40   21   54 1
    41   22   27 1
    42   22   23 1
    43   22   55 1
    44   23   24 1
    45   23   56 1
    46   23   57 1
    47   24   25 1
    48   24   32 am
    49   25   26 1
    50   25   58 1
    51   25   59 1
    52   26   27 1
    53   26   60 1
    54   26   61 1
    55   27   28 1
    56   27   62 1
    57   28   29 1
    58   28   63 1
    59   28   64 1
    60   29   30 2
    61   29   31 1
    62   32   33 2
    63   32   34 1
    64   34   35 1
    65   35   36 1
    66   35   65 1
    67   35   66 1
    68   36   37 1
    69   36   38 1
    70   36   67 1
    71   37   68 1
    72   37   69 1
    73   37   70 1
    74   38   71 1
    75   38   72 1
    76   38   73 1
@<TRIPOS>MOLECULE
CHEMBL255097__1
   73    76     0     0     0
SMALL
USER_CHARGES

@<TRIPOS>ATOM
      1 C1         -0.0184    1.5028    0.0103 C.3       1 <0>        -0.0736
      2 C2          0.0021   -0.0041    0.0020 C.2       1 <0>        -0.0290
      3 C3         -1.0705   -0.8164    0.0025 C.2       1 <0>        -0.0078
      4 N1         -0.6270   -2.0826   -0.0064 N.2       1 <0>        -0.4585
      5 C4          0.6851   -2.0676   -0.0123 C.2       1 <0>         0.2266
      6 O1          1.0981   -0.7883   -0.0131 O.3       1 <0>        -0.1932
      7 C5          1.5619   -3.2577   -0.0227 C.ar      1 <0>        -0.0159
      8 C6          1.0059   -4.5378   -0.0330 C.ar      1 <0>        -0.0712
      9 C7          1.8298   -5.6443   -0.0432 C.ar      1 <0>        -0.1207
     10 C8          3.2044   -5.4871   -0.0433 C.ar      1 <0>        -0.1018
     11 C9          3.7620   -4.2209   -0.0327 C.ar      1 <0>        -0.1211
     12 C10         2.9493   -3.1060   -0.0282 C.ar      1 <0>        -0.0908
     13 C11        -2.5133   -0.3814    0.0119 C.3       1 <0>        -0.0348
     14 C12        -3.0085   -0.2260   -1.4274 C.3       1 <0>         0.0685
     15 O2         -4.3766    0.1865   -1.4185 O.3       1 <0>        -0.3142
     16 C13        -4.9731    0.3716   -2.6255 C.ar      1 <0>         0.1298
     17 C14        -4.2579    0.1549   -3.7946 C.ar      1 <0>        -0.2145
     18 C15        -4.8665    0.3431   -5.0201 C.ar      1 <0>        -0.0776
     19 C16        -6.1876    0.7473   -5.0825 C.ar      1 <0>        -0.1452
     20 C17        -6.9022    0.9643   -3.9192 C.ar      1 <0>        -0.0194
     21 C18        -6.2996    0.7718   -2.6908 C.ar      1 <0>        -0.1427
     22 C19        -8.3415    1.4051   -3.9909 C.3       1 <0>        -0.0654
     23 C20        -9.1621    0.3518   -4.7418 C.3       1 <0>         0.1396
     24 N2        -10.5313    0.8552   -4.9164 N.am      1 <0>        -0.5877
     25 C21       -10.7259    2.1720   -5.5384 C.3       1 <0>         0.1122
     26 C22        -9.8878    3.2049   -4.7785 C.3       1 <0>        -0.1305
     27 C23        -8.4304    2.7402   -4.7338 C.3       1 <0>        -0.0495
     28 C24        -7.5839    3.7861   -4.0056 C.3       1 <0>        -0.1765
     29 C25        -7.5718    5.0655   -4.8019 C.2       1 <0>         0.4924
     30 O3         -8.1835    5.1343   -5.8543 O.co2     1 <0>        -0.6949
     31 O4         -6.9503    6.0317   -4.3937 O.co2     1 <0>        -0.7076
     32 C26       -11.5887    0.1228   -4.5140 C.2       1 <0>         0.6497
     33 O5        -11.4145   -0.9650   -4.0013 O.2       1 <0>        -0.5818
     34 O6        -12.8380    0.5964   -4.6802 O.3       1 <0>        -0.3600
     35 C27       -13.9114   -0.2330   -4.2306 C.3       1 <0>         0.0891
     36 C28       -15.2446    0.4671   -4.5012 C.3       1 <0>        -0.0957
     37 C29       -16.3967   -0.4709   -4.1353 C.3       1 <0>        -0.1447
     38 C30       -15.3339    1.7387   -3.6550 C.3       1 <0>        -0.1482
     39 H1          1.0042    1.8801    0.0026 H         1 <0>         0.0809
     40 H2         -0.5455    1.8639   -0.8728 H         1 <0>         0.0939
     41 H3         -0.5286    1.8543    0.9071 H         1 <0>         0.0943
     42 H4         -0.0670   -4.6619   -0.0326 H         1 <0>         0.1389
     43 H5          1.4008   -6.6354   -0.0508 H         1 <0>         0.1324
     44 H6          3.8450   -6.3565   -0.0513 H         1 <0>         0.1282
     45 H7          4.8357   -4.1050   -0.0321 H         1 <0>         0.1305
     46 H8          3.3858   -2.1181   -0.0249 H         1 <0>         0.1303
     47 H9         -3.1156   -1.1316    0.5243 H         1 <0>         0.0944
     48 H10        -2.6018    0.5726    0.5316 H         1 <0>         0.0940
     49 H11        -2.4061    0.5242   -1.9398 H         1 <0>         0.0616
     50 H12        -2.9200   -1.1800   -1.9471 H         1 <0>         0.0645
     51 H13        -3.2261   -0.1604   -3.7464 H         1 <0>         0.1213
     52 H14        -4.3102    0.1749   -5.9304 H         1 <0>         0.1226
     53 H15        -6.6617    0.8940   -6.0418 H         1 <0>         0.1250
     54 H16        -6.8596    0.9372   -1.7823 H         1 <0>         0.1285
     55 H17        -8.7365    1.5233   -2.9819 H         1 <0>         0.0806
     56 H18        -8.7135    0.1668   -5.7179 H         1 <0>         0.0741
     57 H19        -9.1835   -0.5734   -4.1659 H         1 <0>         0.0933
     58 H20       -10.4049    2.1354   -6.5794 H         1 <0>         0.0722
     59 H21       -11.7793    2.4478   -5.4881 H         1 <0>         0.0868
     60 H22        -9.9474    4.1671   -5.2873 H         1 <0>         0.1130
     61 H23       -10.2688    3.3060   -3.7623 H         1 <0>         0.0515
     62 H24        -8.0577    2.6155   -5.7505 H         1 <0>         0.0754
     63 H25        -8.0092    3.9756   -3.0200 H         1 <0>         0.0532
     64 H26        -6.5644    3.4165   -3.8964 H         1 <0>         0.0591
     65 H27       -13.8848   -1.1828   -4.7646 H         1 <0>         0.0647
     66 H28       -13.8068   -0.4145   -3.1609 H         1 <0>         0.0656
     67 H29       -15.3101    0.7282   -5.5574 H         1 <0>         0.0816
     68 H30       -16.3312   -0.7319   -3.0790 H         1 <0>         0.0580
     69 H31       -17.3465    0.0279   -4.3280 H         1 <0>         0.0640
     70 H32       -16.3331   -1.3768   -4.7381 H         1 <0>         0.0574
     71 H33       -15.2684    1.4776   -2.5988 H         1 <0>         0.0538
     72 H34       -14.5132    2.4070   -3.9157 H         1 <0>         0.0646
     73 H35       -16.2837    2.2375   -3.8478 H         1 <0>         0.0563
@<TRIPOS>BOND
     1    1    2 1
     2    1   39 1
     3    1   40 1
     4    1   41 1
     5    2    6 1
     6    2    3 2
     7    3    4 1
     8    3   13 1
     9    4    5 2
    10    5    6 1
    11    5    7 1
    12    7   12 ar
    13    7    8 ar
    14    8    9 ar
    15    8   42 1
    16    9   10 ar
    17    9   43 1
    18   10   11 ar
    19   10   44 1
    20   11   12 ar
    21   11   45 1
    22   12   46 1
    23   13   14 1
    24   13   47 1
    25   13   48 1
    26   14   15 1
    27   14   49 1
    28   14   50 1
    29   15   16 1
    30   16   21 ar
    31   16   17 ar
    32   17   18 ar
    33   17   51 1
    34   18   19 ar
    35   18   52 1
    36   19   20 ar
    37   19   53 1
    38   20   21 ar
    39   20   22 1
    40   21   54 1
    41   22   27 1
    42   22   23 1
    43   22   55 1
    44   23   24 1
    45   23   56 1
    46   23   57 1
    47   24   25 1
    48   24   32 am
    49   25   26 1
    50   25   58 1
    51   25   59 1
    52   26   27 1
    53   26   60 1
    54   26   61 1
    55   27   28 1
    56   27   62 1
    57   28   29 1
    58   28   63 1
    59   28   64 1
    60   29   30 2
    61   29   31 1
    62   32   33 2
    63   32   34 1
    64   34   35 1
    65   35   36 1
    66   35   65 1
    67   35   66 1
    68   36   37 1
    69   36   38 1
    70   36   67 1
    71   37   68 1
    72   37   69 1
    73   37   70 1
    74   38   71 1
    75   38   72 1
    76   38   73 1
@<TRIPOS>MOLECULE
CHEMBL255097__2
   73    76     0     0     0
SMALL
USER_CHARGES

@<TRIPOS>ATOM
      1 C1         -0.0184    1.5028    0.0103 C.3       1 <0>        -0.0711
      2 C2          0.0021   -0.0041    0.0020 C.2       1 <0>        -0.0339
      3 C3         -1.0705   -0.8164    0.0025 C.2       1 <0>        -0.0051
      4 N1         -0.6270   -2.0826   -0.0064 N.2       1 <0>        -0.4577
      5 C4          0.6851   -2.0676   -0.0123 C.2       1 <0>         0.2292
      6 O1          1.0981   -0.7883   -0.0131 O.3       1 <0>        -0.1937
      7 C5          1.5619   -3.2577   -0.0227 C.ar      1 <0>        -0.0174
      8 C6          1.0059   -4.5378   -0.0330 C.ar      1 <0>        -0.0700
      9 C7          1.8298   -5.6443   -0.0432 C.ar      1 <0>        -0.1200
     10 C8          3.2044   -5.4871   -0.0433 C.ar      1 <0>        -0.1011
     11 C9          3.7620   -4.2209   -0.0327 C.ar      1 <0>        -0.1218
     12 C10         2.9493   -3.1060   -0.0282 C.ar      1 <0>        -0.0910
     13 C11        -2.5133   -0.3814    0.0119 C.3       1 <0>        -0.0354
     14 C12        -3.0085   -0.2260   -1.4274 C.3       1 <0>         0.0686
     15 O2         -4.3766    0.1865   -1.4185 O.3       1 <0>        -0.3142
     16 C13        -4.9731    0.3716   -2.6255 C.ar      1 <0>         0.1295
     17 C14        -4.2579    0.1549   -3.7946 C.ar      1 <0>        -0.2144
     18 C15        -4.8665    0.3431   -5.0201 C.ar      1 <0>        -0.0777
     19 C16        -6.1876    0.7473   -5.0825 C.ar      1 <0>        -0.1450
     20 C17        -6.9022    0.9643   -3.9192 C.ar      1 <0>        -0.0196
     21 C18        -6.2996    0.7718   -2.6908 C.ar      1 <0>        -0.1424
     22 C19        -8.3415    1.4051   -3.9909 C.3       1 <0>        -0.0655
     23 C20        -8.4309    2.7395   -4.7381 C.3       1 <0>         0.1399
     24 N2         -9.8471    3.0896   -4.9129 N.am      1 <0>        -0.5876
     25 C21       -10.7451    2.1093   -5.5385 C.3       1 <0>         0.1122
     26 C22       -10.6298    0.7820   -4.7823 C.3       1 <0>        -0.1306
     27 C23        -9.1620    0.3509   -4.7375 C.3       1 <0>        -0.0495
     28 C24        -9.0470   -0.9917   -4.0130 C.3       1 <0>        -0.1770
     29 C25        -9.7526   -2.0563   -4.8129 C.2       1 <0>         0.4925
     30 O3        -10.2970   -1.7678   -5.8650 O.co2     1 <0>        -0.6954
     31 O4         -9.7790   -3.2060   -4.4080 O.co2     1 <0>        -0.7071
     32 C26       -10.3136    4.2870   -4.5067 C.2       1 <0>         0.6499
     33 O5         -9.5609    5.0890   -3.9904 O.2       1 <0>        -0.5822
     34 O6        -11.6138    4.5946   -4.6732 O.3       1 <0>        -0.3600
     35 C27       -12.0393    5.8811   -4.2194 C.3       1 <0>         0.0893
     36 C28       -13.5357    6.0484   -4.4910 C.3       1 <0>        -0.0966
     37 C29       -14.0174    7.3723   -3.8943 C.3       1 <0>        -0.1447
     38 C30       -13.7831    6.0495   -6.0009 C.3       1 <0>        -0.1472
     39 H1          1.0042    1.8801    0.0026 H         1 <0>         0.0801
     40 H2         -0.5455    1.8639   -0.8728 H         1 <0>         0.0918
     41 H3         -0.5286    1.8543    0.9071 H         1 <0>         0.0930
     42 H4         -0.0670   -4.6619   -0.0326 H         1 <0>         0.1398
     43 H5          1.4008   -6.6354   -0.0508 H         1 <0>         0.1333
     44 H6          3.8450   -6.3565   -0.0513 H         1 <0>         0.1284
     45 H7          4.8357   -4.1050   -0.0321 H         1 <0>         0.1303
     46 H8          3.3858   -2.1181   -0.0249 H         1 <0>         0.1297
     47 H9         -3.1156   -1.1316    0.5243 H         1 <0>         0.0959
     48 H10        -2.6018    0.5726    0.5316 H         1 <0>         0.0928
     49 H11        -2.4061    0.5242   -1.9398 H         1 <0>         0.0600
     50 H12        -2.9200   -1.1800   -1.9471 H         1 <0>         0.0661
     51 H13        -3.2261   -0.1604   -3.7464 H         1 <0>         0.1213
     52 H14        -4.3102    0.1749   -5.9304 H         1 <0>         0.1226
     53 H15        -6.6617    0.8940   -6.0418 H         1 <0>         0.1250
     54 H16        -6.8596    0.9372   -1.7823 H         1 <0>         0.1285
     55 H17        -8.7358    1.5255   -2.9818 H         1 <0>         0.0806
     56 H18        -7.9312    3.5164   -4.1596 H         1 <0>         0.0931
     57 H19        -7.9549    2.6444   -5.7140 H         1 <0>         0.0741
     58 H20       -11.7723    2.4705   -5.4881 H         1 <0>         0.0868
     59 H21       -10.4578    1.9628   -6.5797 H         1 <0>         0.0723
     60 H22       -11.0029    0.9087   -3.7660 H         1 <0>         0.0516
     61 H23       -11.2174    0.0197   -5.2937 H         1 <0>         0.1131
     62 H24        -8.7825    0.2484   -5.7542 H         1 <0>         0.0754
     63 H25        -7.9953   -1.2566   -3.9036 H         1 <0>         0.0592
     64 H26        -9.5063   -0.9134   -3.0276 H         1 <0>         0.0533
     65 H27       -11.8522    5.9691   -3.1492 H         1 <0>         0.0651
     66 H28       -11.4850    6.6552   -4.7501 H         1 <0>         0.0651
     67 H29       -14.0824    5.2236   -4.0339 H         1 <0>         0.0826
     68 H30       -13.4708    8.1971   -4.3514 H         1 <0>         0.0576
     69 H31       -15.0835    7.4915   -4.0878 H         1 <0>         0.0641
     70 H32       -13.8412    7.3715   -2.8186 H         1 <0>         0.0579
     71 H33       -13.2364    6.8743   -6.4580 H         1 <0>         0.0531
     72 H34       -13.4399    5.1063   -6.4259 H         1 <0>         0.0638
     73 H35       -14.8491    6.1687   -6.1943 H         1 <0>         0.0563
@<TRIPOS>BOND
     1    1    2 1
     2    1   39 1
     3    1   40 1
     4    1   41 1
     5    2    6 1
     6    2    3 2
     7    3    4 1
     8    3   13 1
     9    4    5 2
    10    5    6 1
    11    5    7 1
    12    7   12 ar
    13    7    8 ar
    14    8    9 ar
    15    8   42 1
    16    9   10 ar
    17    9   43 1
    18   10   11 ar
    19   10   44 1
    20   11   12 ar
    21   11   45 1
    22   12   46 1
    23   13   14 1
    24   13   47 1
    25   13   48 1
    26   14   15 1
    27   14   49 1
    28   14   50 1
    29   15   16 1
    30   16   21 ar
    31   16   17 ar
    32   17   18 ar
    33   17   51 1
    34   18   19 ar
    35   18   52 1
    36   19   20 ar
    37   19   53 1
    38   20   21 ar
    39   20   22 1
    40   21   54 1
    41   22   27 1
    42   22   23 1
    43   22   55 1
    44   23   24 1
    45   23   56 1
    46   23   57 1
    47   24   25 1
    48   24   32 am
    49   25   26 1
    50   25   58 1
    51   25   59 1
    52   26   27 1
    53   26   60 1
    54   26   61 1
    55   27   28 1
    56   27   62 1
    57   28   29 1
    58   28   63 1
    59   28   64 1
    60   29   30 2
    61   29   31 1
    62   32   33 2
    63   32   34 1
    64   34   35 1
    65   35   36 1
    66   35   65 1
    67   35   66 1
    68   36   37 1
    69   36   38 1
    70   36   67 1
    71   37   68 1
    72   37   69 1
    73   37   70 1
    74   38   71 1
    75   38   72 1
    76   38   73 1
@<TRIPOS>MOLECULE
CHEMBL255097__3
   73    76     0     0     0
SMALL
USER_CHARGES

@<TRIPOS>ATOM
      1 C1          0.2650    2.4465   -0.5184 C.3       1 <0>        -0.0738
      2 C2          0.4228    0.9487   -0.4661 C.2       1 <0>        -0.0285
      3 C3         -0.5695    0.0447   -0.3742 C.2       1 <0>        -0.0070
      4 N1         -0.0131   -1.1759   -0.3552 N.2       1 <0>        -0.4579
      5 C4          1.2902   -1.0441   -0.4328 C.2       1 <0>         0.2249
      6 O1          1.5838    0.2655   -0.5084 O.3       1 <0>        -0.1935
      7 C5          2.2706   -2.1505   -0.4419 C.ar      1 <0>        -0.0150
      8 C6          1.8343   -3.4742   -0.3696 C.ar      1 <0>        -0.0714
      9 C7          2.7545   -4.5021   -0.3791 C.ar      1 <0>        -0.1207
     10 C8          4.1071   -4.2230   -0.4600 C.ar      1 <0>        -0.1024
     11 C9          4.5463   -2.9129   -0.5315 C.ar      1 <0>        -0.1211
     12 C10         3.6363   -1.8760   -0.5288 C.ar      1 <0>        -0.0911
     13 C11        -2.0438    0.3492   -0.3046 C.3       1 <0>        -0.0362
     14 C12        -2.6227    0.3939   -1.7201 C.3       1 <0>         0.0691
     15 O2         -4.0207    0.6826   -1.6540 O.3       1 <0>        -0.3111
     16 C13        -4.6915    0.7583   -2.8335 C.ar      1 <0>         0.1320
     17 C14        -4.0191    0.5531   -4.0297 C.ar      1 <0>        -0.2150
     18 C15        -4.7032    0.6301   -5.2272 C.ar      1 <0>        -0.0809
     19 C16        -6.0571    0.9115   -5.2345 C.ar      1 <0>        -0.1498
     20 C17        -6.7293    1.1168   -4.0440 C.ar      1 <0>        -0.0229
     21 C18        -6.0506    1.0352   -2.8432 C.ar      1 <0>        -0.1404
     22 C19        -8.2046    1.4237   -4.0556 C.3       1 <0>        -0.0634
     23 C20        -8.8897    0.6849   -2.9017 C.3       1 <0>         0.1345
     24 N2        -10.2993    1.0956   -2.8478 N.am      1 <0>        -0.5851
     25 C21       -10.6153    2.5287   -2.7767 C.3       1 <0>         0.1081
     26 C22        -9.9109    3.2469   -3.9320 C.3       1 <0>        -0.1265
     27 C23        -8.4143    2.9303   -3.8874 C.3       1 <0>        -0.0520
     28 C24        -7.8384    3.3781   -2.5425 C.3       1 <0>        -0.1899
     29 C25        -7.9100    4.8799   -2.4404 C.2       1 <0>         0.4929
     30 O3         -8.3783    5.5317   -3.3583 O.co2     1 <0>        -0.6958
     31 O4         -7.4997    5.4431   -1.4400 O.co2     1 <0>        -0.7070
     32 C26       -11.2838    0.1753   -2.8628 C.2       1 <0>         0.6496
     33 O5        -11.0094   -1.0070   -2.9214 O.2       1 <0>        -0.5827
     34 O6        -12.5713    0.5659   -2.8129 O.3       1 <0>        -0.3600
     35 C27       -13.5626   -0.4632   -2.8325 C.3       1 <0>         0.0892
     36 C28       -14.9547    0.1685   -2.7694 C.3       1 <0>        -0.0961
     37 C29       -16.0171   -0.9228   -2.9157 C.3       1 <0>        -0.1445
     38 C30       -15.1330    0.8767   -1.4249 C.3       1 <0>        -0.1478
     39 H1          1.2471    2.9128   -0.5970 H         1 <0>         0.0806
     40 H2         -0.3367    2.7183   -1.3857 H         1 <0>         0.0939
     41 H3         -0.2295    2.7917    0.3895 H         1 <0>         0.0954
     42 H4          0.7787   -3.6934   -0.3060 H         1 <0>         0.1389
     43 H5          2.4182   -5.5269   -0.3228 H         1 <0>         0.1323
     44 H6          4.8234   -5.0313   -0.4671 H         1 <0>         0.1280
     45 H7          5.6037   -2.7018   -0.5938 H         1 <0>         0.1303
     46 H8          3.9802   -0.8540   -0.5895 H         1 <0>         0.1302
     47 H9         -2.5484   -0.4275    0.2700 H         1 <0>         0.0950
     48 H10        -2.1930    1.3143    0.1797 H         1 <0>         0.0957
     49 H11        -2.1181    1.1706   -2.2947 H         1 <0>         0.0611
     50 H12        -2.4735   -0.5712   -2.2043 H         1 <0>         0.0640
     51 H13        -2.9616    0.3337   -4.0246 H         1 <0>         0.1214
     52 H14        -4.1802    0.4708   -6.1586 H         1 <0>         0.1212
     53 H15        -6.5903    0.9713   -6.1718 H         1 <0>         0.1221
     54 H16        -6.5771    1.1912   -1.9132 H         1 <0>         0.1357
     55 H17        -8.6361    1.0998   -5.0028 H         1 <0>         0.0815
     56 H18        -8.8286   -0.3905   -3.0688 H         1 <0>         0.0926
     57 H19        -8.3988    0.9392   -1.9623 H         1 <0>         0.0786
     58 H20       -11.6928    2.6700   -2.8613 H         1 <0>         0.0861
     59 H21       -10.2652    2.9335   -1.8271 H         1 <0>         0.0762
     60 H22       -10.3269    2.9058   -4.8800 H         1 <0>         0.0517
     61 H23       -10.0583    4.3226   -3.8356 H         1 <0>         0.1105
     62 H24        -7.9070    3.4598   -4.6939 H         1 <0>         0.0772
     63 H25        -8.4156    2.9309   -1.7332 H         1 <0>         0.0572
     64 H26        -6.7992    3.0579   -2.4676 H         1 <0>         0.0675
     65 H27       -13.4676   -1.0418   -3.7513 H         1 <0>         0.0646
     66 H28       -13.4222   -1.1194   -1.9736 H         1 <0>         0.0652
     67 H29       -15.0627    0.8915   -3.5779 H         1 <0>         0.0820
     68 H30       -15.9091   -1.6457   -2.1072 H         1 <0>         0.0577
     69 H31       -17.0088   -0.4728   -2.8708 H         1 <0>         0.0639
     70 H32       -15.8901   -1.4273   -3.8736 H         1 <0>         0.0575
     71 H33       -15.0250    0.1537   -0.6163 H         1 <0>         0.0534
     72 H34       -14.3761    1.6541   -1.3206 H         1 <0>         0.0643
     73 H35       -16.1247    1.3267   -1.3799 H         1 <0>         0.0562
@<TRIPOS>BOND
     1    1    2 1
     2    1   39 1
     3    1   40 1
     4    1   41 1
     5    2    6 1
     6    2    3 2
     7    3    4 1
     8    3   13 1
     9    4    5 2
    10    5    6 1
    11    5    7 1
    12    7   12 ar
    13    7    8 ar
    14    8    9 ar
    15    8   42 1
    16    9   10 ar
    17    9   43 1
    18   10   11 ar
    19   10   44 1
    20   11   12 ar
    21   11   45 1
    22   12   46 1
    23   13   14 1
    24   13   47 1
    25   13   48 1
    26   14   15 1
    27   14   49 1
    28   14   50 1
    29   15   16 1
    30   16   21 ar
    31   16   17 ar
    32   17   18 ar
    33   17   51 1
    34   18   19 ar
    35   18   52 1
    36   19   20 ar
    37   19   53 1
    38   20   21 ar
    39   20   22 1
    40   21   54 1
    41   22   27 1
    42   22   23 1
    43   22   55 1
    44   23   24 1
    45   23   56 1
    46   23   57 1
    47   24   25 1
    48   24   32 am
    49   25   26 1
    50   25   58 1
    51   25   59 1
    52   26   27 1
    53   26   60 1
    54   26   61 1
    55   27   28 1
    56   27   62 1
    57   28   29 1
    58   28   63 1
    59   28   64 1
    60   29   30 2
    61   29   31 1
    62   32   33 2
    63   32   34 1
    64   34   35 1
    65   35   36 1
    66   35   65 1
    67   35   66 1
    68   36   37 1
    69   36   38 1
    70   36   67 1
    71   37   68 1
    72   37   69 1
    73   37   70 1
    74   38   71 1
    75   38   72 1
    76   38   73 1
@<TRIPOS>MOLECULE
CHEMBL430894
   51    53     0     0     0
SMALL
USER_CHARGES

@<TRIPOS>ATOM
      1 C1          1.6063    0.2810    4.3451 C.3       1 <0>        -0.1534
      2 C2          1.2228   -0.6040    3.1575 C.3       1 <0>        -0.1164
      3 C3          0.0843    0.0556    2.3766 C.3       1 <0>        -0.0819
      4 C4         -0.2934   -0.8161    1.2068 C.ar      1 <0>        -0.1085
      5 C5          0.1940   -0.5312   -0.0362 C.ar      1 <0>        -0.0375
      6 C6         -0.1546   -1.3384   -1.1222 C.ar      1 <0>        -0.1866
      7 C7         -1.0056   -2.4410   -0.9323 C.ar      1 <0>         0.1009
      8 C8         -1.4925   -2.7178    0.3374 C.ar      1 <0>        -0.0976
      9 C9         -1.1327   -1.9103    1.4022 C.ar      1 <0>         0.1782
     10 O1         -1.6050   -2.1842    2.6459 O.3       1 <0>        -0.2893
     11 C10        -2.9086   -1.6948    2.9671 C.3       1 <0>         0.0628
     12 C11        -2.7919   -0.5742    3.9681 C.ar      1 <0>        -0.0630
     13 C12        -1.8029   -0.6102    4.9333 C.ar      1 <0>        -0.0797
     14 C13        -1.6954    0.4172    5.8516 C.ar      1 <0>        -0.1156
     15 C14        -2.5778    1.4818    5.8046 C.ar      1 <0>        -0.0403
     16 C15        -3.5673    1.5173    4.8383 C.ar      1 <0>        -0.1128
     17 C16        -3.6703    0.4920    3.9171 C.ar      1 <0>        -0.0917
     18 Cl1        -2.4437    2.7723    6.9579 Cl        1 <0>        -0.0860
     19 C17        -3.7331   -2.8104    3.5559 C.2       1 <0>         0.5041
     20 O2         -3.2149   -3.8858    3.8041 O.co2     1 <0>        -0.6544
     21 O3         -4.9182   -2.6376    3.7841 O.co2     1 <0>        -0.6770
     22 C18        -2.4062   -3.8961    0.5568 C.3       1 <0>        -0.0871
     23 C19        -1.5689   -5.1633    0.7411 C.3       1 <0>        -0.1031
     24 C20        -2.4964   -6.3595    0.9638 C.3       1 <0>        -0.1493
     25 O4         -1.1675   -3.0286   -2.1352 O.3       1 <0>        -0.0538
     26 N1         -0.4280   -2.3164   -3.1068 N.2       1 <0>        -0.2317
     27 C21         0.1808   -1.3157   -2.5481 C.2       1 <0>         0.0399
     28 C22         1.0698   -0.3142   -3.2392 C.3       1 <0>         0.5565
     29 F1          2.3917   -0.7718   -3.2190 F         1 <0>        -0.1576
     30 F2          0.6514   -0.1557   -4.5648 F         1 <0>        -0.1591
     31 F3          0.9917    0.9149   -2.5755 F         1 <0>        -0.1552
     32 H1          2.4174   -0.1889    4.9014 H         1 <0>         0.0528
     33 H2          1.9320    1.2557    3.9818 H         1 <0>         0.0501
     34 H3          0.7429    0.4067    4.9984 H         1 <0>         0.0601
     35 H4          2.0863   -0.7297    2.5042 H         1 <0>         0.0575
     36 H5          0.8972   -1.5787    3.5208 H         1 <0>         0.0727
     37 H6         -0.7791    0.1812    3.0298 H         1 <0>         0.0894
     38 H7          0.4100    1.0303    2.0132 H         1 <0>         0.0698
     39 H8          0.8474    0.3167   -0.1799 H         1 <0>         0.1398
     40 H9         -3.3910   -1.3250    2.0624 H         1 <0>         0.0711
     41 H10        -1.1144   -1.4415    4.9701 H         1 <0>         0.1376
     42 H11        -0.9230    0.3888    6.6058 H         1 <0>         0.1296
     43 H12        -4.2566    2.3479    4.8013 H         1 <0>         0.1295
     44 H13        -4.4397    0.5219    3.1598 H         1 <0>         0.1302
     45 H14        -3.0099   -3.7266    1.4483 H         1 <0>         0.1068
     46 H15        -3.0597   -4.0149   -0.3075 H         1 <0>         0.0674
     47 H16        -0.9651   -5.3327   -0.1504 H         1 <0>         0.0483
     48 H17        -0.9153   -5.0445    1.6053 H         1 <0>         0.0687
     49 H18        -1.8999   -7.2623    1.0951 H         1 <0>         0.0486
     50 H19        -3.1002   -6.1901    1.8553 H         1 <0>         0.0699
     51 H20        -3.1500   -6.4784    0.0996 H         1 <0>         0.0463
@<TRIPOS>BOND
     1    1    2 1
     2    1   32 1
     3    1   33 1
     4    1   34 1
     5    2    3 1
     6    2   35 1
     7    2   36 1
     8    3    4 1
     9    3   37 1
    10    3   38 1
    11    4    9 ar
    12    4    5 ar
    13    5    6 ar
    14    5   39 1
    15    6   27 1
    16    6    7 ar
    17    7    8 ar
    18    7   25 1
    19    8    9 ar
    20    8   22 1
    21    9   10 1
    22   10   11 1
    23   11   12 1
    24   11   19 1
    25   11   40 1
    26   12   17 ar
    27   12   13 ar
    28   13   14 ar
    29   13   41 1
    30   14   15 ar
    31   14   42 1
    32   15   16 ar
    33   15   18 1
    34   16   17 ar
    35   16   43 1
    36   17   44 1
    37   19   20 2
    38   19   21 1
    39   22   23 1
    40   22   45 1
    41   22   46 1
    42   23   24 1
    43   23   47 1
    44   23   48 1
    45   24   49 1
    46   24   50 1
    47   24   51 1
    48   25   26 1
    49   26   27 2
    50   27   28 1
    51   28   29 1
    52   28   30 1
    53   28   31 1
@<TRIPOS>MOLECULE
CHEMBL430894__1
   51    53     0     0     0
SMALL
USER_CHARGES

@<TRIPOS>ATOM
      1 C1         -1.5311    0.6673   -1.0956 C.3       1 <0>        -0.1482
      2 C2         -1.0648   -0.7577   -0.7912 C.3       1 <0>        -0.1049
      3 C3         -2.2698   -1.6165   -0.4024 C.3       1 <0>        -0.1032
      4 C4         -1.8105   -3.0202   -0.1025 C.ar      1 <0>        -0.0884
      5 C5         -1.9589   -3.9976   -1.0439 C.ar      1 <0>        -0.0360
      6 C6         -1.5333   -5.2997   -0.7681 C.ar      1 <0>        -0.1919
      7 C7         -0.9538   -5.5996    0.4769 C.ar      1 <0>         0.1025
      8 C8         -0.8094   -4.5949    1.4234 C.ar      1 <0>        -0.1322
      9 C9         -1.2323   -3.3100    1.1310 C.ar      1 <0>         0.1952
     10 O1         -1.0863   -2.3254    2.0553 O.3       1 <0>        -0.2886
     11 C10        -1.8246   -2.4623    3.2711 C.3       1 <0>         0.0583
     12 C11        -0.9334   -2.1300    4.4400 C.ar      1 <0>        -0.0489
     13 C12        -0.0483   -1.0715    4.3551 C.ar      1 <0>        -0.0788
     14 C13         0.7693   -0.7662    5.4268 C.ar      1 <0>        -0.1133
     15 C14         0.7017   -1.5202    6.5849 C.ar      1 <0>        -0.0394
     16 C15        -0.1843   -2.5794    6.6693 C.ar      1 <0>        -0.1122
     17 C16        -1.0054   -2.8802    5.5989 C.ar      1 <0>        -0.0937
     18 Cl1         1.7287   -1.1377    7.9312 Cl        1 <0>        -0.0858
     19 C17        -3.0013   -1.5210    3.2530 C.2       1 <0>         0.4952
     20 O2         -3.8494   -1.5884    4.1263 O.co2     1 <0>        -0.6759
     21 O3         -3.1053   -0.6921    2.3650 O.co2     1 <0>        -0.6557
     22 C18        -0.1905   -4.9010    2.7629 C.3       1 <0>        -0.0867
     23 C19         1.3007   -4.5606    2.7254 C.3       1 <0>        -0.1119
     24 C20         1.9291   -4.8713    4.0854 C.3       1 <0>        -0.1495
     25 O4         -0.6438   -6.9119    0.4641 O.3       1 <0>        -0.0590
     26 N1         -1.0172   -7.4685   -0.7804 N.2       1 <0>        -0.2358
     27 C21        -1.5438   -6.5502   -1.5312 C.2       1 <0>         0.0430
     28 C22        -2.0697   -6.7362   -2.9312 C.3       1 <0>         0.5560
     29 F1         -1.0402   -6.5073   -3.8504 F         1 <0>        -0.1582
     30 F2         -2.5462   -8.0430   -3.0806 F         1 <0>        -0.1598
     31 F3         -3.1110   -5.8308   -3.1623 F         1 <0>        -0.1539
     32 H1         -0.6726    1.2792   -1.3727 H         1 <0>         0.0457
     33 H2         -2.2445    0.6480   -1.9195 H         1 <0>         0.0467
     34 H3         -2.0085    1.0901   -0.2116 H         1 <0>         0.0654
     35 H4         -0.5875   -1.1805   -1.6753 H         1 <0>         0.0457
     36 H5         -0.3514   -0.7384    0.0327 H         1 <0>         0.0663
     37 H6         -2.7472   -1.1938    0.4817 H         1 <0>         0.1382
     38 H7         -2.9832   -1.6359   -1.2263 H         1 <0>         0.0610
     39 H8         -2.4047   -3.7651   -1.9997 H         1 <0>         0.1409
     40 H9         -2.1812   -3.4880    3.3661 H         1 <0>         0.0752
     41 H10         0.0046   -0.4832    3.4509 H         1 <0>         0.1370
     42 H11         1.4610    0.0605    5.3602 H         1 <0>         0.1294
     43 H12        -0.2373   -3.1686    7.5729 H         1 <0>         0.1300
     44 H13        -1.7005   -3.7041    5.6665 H         1 <0>         0.1296
     45 H14        -0.6798   -4.3057    3.5338 H         1 <0>         0.0896
     46 H15        -0.3159   -5.9602    2.9875 H         1 <0>         0.0731
     47 H16         1.7900   -5.1559    1.9545 H         1 <0>         0.0571
     48 H17         1.4261   -3.5014    2.5008 H         1 <0>         0.0687
     49 H18         2.9914   -4.6289    4.0587 H         1 <0>         0.0526
     50 H19         1.4398   -4.2760    4.8563 H         1 <0>         0.0584
     51 H20         1.8037   -5.9306    4.3100 H         1 <0>         0.0511
@<TRIPOS>BOND
     1    1    2 1
     2    1   32 1
     3    1   33 1
     4    1   34 1
     5    2    3 1
     6    2   35 1
     7    2   36 1
     8    3    4 1
     9    3   37 1
    10    3   38 1
    11    4    9 ar
    12    4    5 ar
    13    5    6 ar
    14    5   39 1
    15    6   27 1
    16    6    7 ar
    17    7    8 ar
    18    7   25 1
    19    8    9 ar
    20    8   22 1
    21    9   10 1
    22   10   11 1
    23   11   12 1
    24   11   19 1
    25   11   40 1
    26   12   17 ar
    27   12   13 ar
    28   13   14 ar
    29   13   41 1
    30   14   15 ar
    31   14   42 1
    32   15   16 ar
    33   15   18 1
    34   16   17 ar
    35   16   43 1
    36   17   44 1
    37   19   20 2
    38   19   21 1
    39   22   23 1
    40   22   45 1
    41   22   46 1
    42   23   24 1
    43   23   47 1
    44   23   48 1
    45   24   49 1
    46   24   50 1
    47   24   51 1
    48   25   26 1
    49   26   27 2
    50   27   28 1
    51   28   29 1
    52   28   30 1
    53   28   31 1
@<TRIPOS>MOLECULE
CHEMBL192774
   57    60     0     0     0
SMALL
USER_CHARGES

@<TRIPOS>ATOM
      1 C1         -0.0167    1.3781    0.0096 C.ar      1 <0>        -0.1301
      2 C2          1.1709    2.0855    0.0021 C.ar      1 <0>        -0.1238
      3 C3          2.3773    1.4107   -0.0130 C.ar      1 <0>        -0.0925
      4 C4          2.3960    0.0285   -0.0201 C.ar      1 <0>        -0.0676
      5 C5          1.2084   -0.6789   -0.0117 C.ar      1 <0>        -0.1040
      6 C6          0.0021   -0.0041    0.0020 C.ar      1 <0>        -0.1304
      7 C7          3.7112   -0.7071   -0.0376 C.3       1 <0>        -0.0557
      8 C8          4.1714   -0.9633    1.3989 C.3       1 <0>         0.0437
      9 C9          5.5192   -1.7224    1.4155 C.3       1 <0>        -0.0901
     10 C10         5.3506   -2.6348    2.6151 C.ar      1 <0>        -0.1363
     11 C11         6.2544   -3.3672    3.3527 C.ar      1 <0>        -0.0972
     12 C12         5.8165   -4.1262    4.4288 C.ar      1 <0>         0.0798
     13 C13         4.4682   -4.1415    4.7543 C.ar      1 <0>        -0.1718
     14 C14         3.5650   -3.4100    4.0120 C.ar      1 <0>        -0.1120
     15 C15         3.9980   -2.6493    2.9288 C.ar      1 <0>         0.1123
     16 O1          3.2829   -1.8779    2.0630 O.3       1 <0>        -0.2785
     17 O2          6.7045   -4.8514    5.1600 O.3       1 <0>        -0.3136
     18 C16         6.1800   -5.6081    6.2529 C.3       1 <0>         0.0662
     19 C17         7.3198   -6.3524    6.9514 C.3       1 <0>        -0.1191
     20 C18         6.7582   -7.1626    8.1215 C.3       1 <0>         0.0603
     21 O3          7.8227   -7.8578    8.7738 O.3       1 <0>        -0.2951
     22 C19         7.4918   -8.6304    9.8431 C.ar      1 <0>         0.1320
     23 C20         6.1693   -8.7207   10.2506 C.ar      1 <0>        -0.1621
     24 C21         5.8329   -9.5057   11.3363 C.ar      1 <0>        -0.0738
     25 C22         6.8178  -10.2036   12.0198 C.ar      1 <0>         0.0762
     26 C23         8.1405  -10.1139   11.6131 C.ar      1 <0>        -0.1447
     27 C24         8.4767   -9.3329   10.5231 C.ar      1 <0>        -0.0334
     28 Cl1        10.1314   -9.2258   10.0091 Cl        1 <0>        -0.0367
     29 O4          6.4862  -10.9755   13.0891 O.3       1 <0>        -0.3052
     30 C25         7.5510  -11.6663   13.7457 C.3       1 <0>         0.6026
     31 F1          8.4822  -10.7391   14.2257 F         1 <0>        -0.1636
     32 F2          7.0367  -12.4071   14.8152 F         1 <0>        -0.1295
     33 F3          8.1765  -12.5287   12.8390 F         1 <0>        -0.1638
     34 C26         4.2739    0.3314    2.1634 C.2       1 <0>         0.5029
     35 O5          3.5908    0.5079    3.1578 O.co2     1 <0>        -0.6685
     36 O6          5.0399    1.2023    1.7875 O.co2     1 <0>        -0.6863
     37 H1         -0.9591    1.9053    0.0259 H         1 <0>         0.1131
     38 H2          1.1563    3.1654    0.0076 H         1 <0>         0.1157
     39 H3          3.3051    1.9634   -0.0196 H         1 <0>         0.1276
     40 H4          1.2231   -1.7588   -0.0176 H         1 <0>         0.1159
     41 H5         -0.9258   -0.5567    0.0082 H         1 <0>         0.1138
     42 H6          3.5884   -1.6586   -0.5549 H         1 <0>         0.0691
     43 H7          4.4573   -0.1052   -0.5563 H         1 <0>         0.0932
     44 H8          5.6515   -2.3013    0.5014 H         1 <0>         0.0819
     45 H9          6.3518   -1.0346    1.5632 H         1 <0>         0.0963
     46 H10         7.3027   -3.3511    3.0935 H         1 <0>         0.1280
     47 H11         4.1242   -4.7292    5.5926 H         1 <0>         0.1278
     48 H12         2.5168   -3.4272    4.2719 H         1 <0>         0.1265
     49 H13         5.6970   -4.9357    6.9618 H         1 <0>         0.0640
     50 H14         5.4510   -6.3276    5.8800 H         1 <0>         0.0629
     51 H15         7.8028   -7.0249    6.2425 H         1 <0>         0.0874
     52 H16         8.0488   -5.6330    7.3243 H         1 <0>         0.0883
     53 H17         6.2752   -6.4901    8.8304 H         1 <0>         0.0721
     54 H18         6.0292   -7.8821    7.7486 H         1 <0>         0.0713
     55 H19         5.4023   -8.1770    9.7191 H         1 <0>         0.1546
     56 H20         4.8029   -9.5759   11.6533 H         1 <0>         0.1503
     57 H21         8.9072  -10.6573   12.1453 H         1 <0>         0.1496
@<TRIPOS>BOND
     1    1    6 ar
     2    1    2 ar
     3    1   37 1
     4    2    3 ar
     5    2   38 1
     6    3    4 ar
     7    3   39 1
     8    4    5 ar
     9    4    7 1
    10    5    6 ar
    11    5   40 1
    12    6   41 1
    13    7    8 1
    14    7   42 1
    15    7   43 1
    16    8   16 1
    17    8    9 1
    18    8   34 1
    19    9   10 1
    20    9   44 1
    21    9   45 1
    22   10   15 ar
    23   10   11 ar
    24   11   12 ar
    25   11   46 1
    26   12   13 ar
    27   12   17 1
    28   13   14 ar
    29   13   47 1
    30   14   15 ar
    31   14   48 1
    32   15   16 1
    33   17   18 1
    34   18   19 1
    35   18   49 1
    36   18   50 1
    37   19   20 1
    38   19   51 1
    39   19   52 1
    40   20   21 1
    41   20   53 1
    42   20   54 1
    43   21   22 1
    44   22   27 ar
    45   22   23 ar
    46   23   24 ar
    47   23   55 1
    48   24   25 ar
    49   24   56 1
    50   25   26 ar
    51   25   29 1
    52   26   27 ar
    53   26   57 1
    54   27   28 1
    55   29   30 1
    56   30   31 1
    57   30   32 1
    58   30   33 1
    59   34   35 2
    60   34   36 1
@<TRIPOS>MOLECULE
CHEMBL192774__1
   57    60     0     0     0
SMALL
USER_CHARGES

@<TRIPOS>ATOM
      1 C1         -0.0167    1.3781    0.0096 C.ar      1 <0>        -0.1308
      2 C2          1.1709    2.0855    0.0021 C.ar      1 <0>        -0.1290
      3 C3          2.3773    1.4107   -0.0130 C.ar      1 <0>        -0.1052
      4 C4          2.3960    0.0285   -0.0201 C.ar      1 <0>        -0.0629
      5 C5          1.2084   -0.6789   -0.0117 C.ar      1 <0>        -0.0946
      6 C6          0.0021   -0.0041    0.0020 C.ar      1 <0>        -0.1224
      7 C7          3.7112   -0.7071   -0.0376 C.3       1 <0>        -0.0782
      8 C8          4.1714   -0.9633    1.3989 C.3       1 <0>         0.0467
      9 C9          5.5803   -1.6017    1.4174 C.3       1 <0>        -0.0834
     10 C10         6.4750   -0.3838    1.5443 C.ar      1 <0>        -0.1376
     11 C11         7.8262   -0.2056    1.3450 C.ar      1 <0>        -0.0975
     12 C12         8.3942    1.0471    1.5296 C.ar      1 <0>         0.0817
     13 C13         7.5944    2.1132    1.9145 C.ar      1 <0>        -0.1726
     14 C14         6.2424    1.9312    2.1167 C.ar      1 <0>        -0.1157
     15 C15         5.6675    0.6756    1.9364 C.ar      1 <0>         0.0898
     16 O1          4.3747    0.2768    2.0974 O.3       1 <0>        -0.2619
     17 O2          9.7277    1.2284    1.3347 O.3       1 <0>        -0.3133
     18 C16        10.2407    2.5457    1.5437 C.3       1 <0>         0.0664
     19 C17        11.7475    2.5542    1.2787 C.3       1 <0>        -0.1194
     20 C18        12.2968    3.9646    1.5025 C.3       1 <0>         0.0604
     21 O3         13.7041    3.9725    1.2550 O.3       1 <0>        -0.2952
     22 C19        14.3517    5.1584    1.4103 C.ar      1 <0>         0.1314
     23 C20        13.6468    6.2878    1.7984 C.ar      1 <0>        -0.1620
     24 C21        14.3044    7.4922    1.9566 C.ar      1 <0>        -0.0740
     25 C22        15.6701    7.5727    1.7270 C.ar      1 <0>         0.0769
     26 C23        16.3758    6.4438    1.3389 C.ar      1 <0>        -0.1448
     27 C24        15.7190    5.2370    1.1860 C.ar      1 <0>        -0.0331
     28 Cl1        16.6032    3.8219    0.7072 Cl        1 <0>        -0.0363
     29 O4         16.3167    8.7588    1.8821 O.3       1 <0>        -0.3051
     30 C25        17.7231    8.7689    1.6289 C.3       1 <0>         0.6026
     31 F1         17.9616    8.3808    0.3061 F         1 <0>        -0.1637
     32 F2         18.2246   10.0587    1.8341 F         1 <0>        -0.1293
     33 F3         18.3599    7.8771    2.4986 F         1 <0>        -0.1636
     34 C26         3.1783   -1.8306    2.1289 C.2       1 <0>         0.5190
     35 O5          2.9341   -2.9533    1.7211 O.co2     1 <0>        -0.6811
     36 O6          2.6192   -1.4095    3.1272 O.co2     1 <0>        -0.6646
     37 H1         -0.9591    1.9053    0.0259 H         1 <0>         0.1135
     38 H2          1.1563    3.1654    0.0076 H         1 <0>         0.1136
     39 H3          3.3051    1.9634   -0.0196 H         1 <0>         0.1125
     40 H4          1.2231   -1.7588   -0.0176 H         1 <0>         0.1264
     41 H5         -0.9258   -0.5567    0.0082 H         1 <0>         0.1163
     42 H6          3.5884   -1.6586   -0.5549 H         1 <0>         0.0909
     43 H7          4.4573   -0.1052   -0.5563 H         1 <0>         0.0638
     44 H8          5.6974   -2.2622    2.2766 H         1 <0>         0.0913
     45 H9          5.7784   -2.1354    0.4879 H         1 <0>         0.0889
     46 H10         8.4430   -1.0398    1.0451 H         1 <0>         0.1290
     47 H11         8.0326    3.0900    2.0568 H         1 <0>         0.1281
     48 H12         5.6266    2.7663    2.4163 H         1 <0>         0.1270
     49 H13         9.7481    3.2398    0.8627 H         1 <0>         0.0635
     50 H14        10.0510    2.8504    2.5730 H         1 <0>         0.0638
     51 H15        12.2401    1.8601    1.9597 H         1 <0>         0.0881
     52 H16        11.9371    2.2495    0.2495 H         1 <0>         0.0880
     53 H17        11.8042    4.6586    0.8216 H         1 <0>         0.0715
     54 H18        12.1071    4.2692    2.5318 H         1 <0>         0.0716
     55 H19        12.5834    6.2258    1.9766 H         1 <0>         0.1543
     56 H20        13.7551    8.3716    2.2588 H         1 <0>         0.1504
     57 H21        17.4391    6.5065    1.1601 H         1 <0>         0.1498
@<TRIPOS>BOND
     1    1    6 ar
     2    1    2 ar
     3    1   37 1
     4    2    3 ar
     5    2   38 1
     6    3    4 ar
     7    3   39 1
     8    4    5 ar
     9    4    7 1
    10    5    6 ar
    11    5   40 1
    12    6   41 1
    13    7    8 1
    14    7   42 1
    15    7   43 1
    16    8   16 1
    17    8    9 1
    18    8   34 1
    19    9   10 1
    20    9   44 1
    21    9   45 1
    22   10   15 ar
    23   10   11 ar
    24   11   12 ar
    25   11   46 1
    26   12   13 ar
    27   12   17 1
    28   13   14 ar
    29   13   47 1
    30   14   15 ar
    31   14   48 1
    32   15   16 1
    33   17   18 1
    34   18   19 1
    35   18   49 1
    36   18   50 1
    37   19   20 1
    38   19   51 1
    39   19   52 1
    40   20   21 1
    41   20   53 1
    42   20   54 1
    43   21   22 1
    44   22   27 ar
    45   22   23 ar
    46   23   24 ar
    47   23   55 1
    48   24   25 ar
    49   24   56 1
    50   25   26 ar
    51   25   29 1
    52   26   27 ar
    53   26   57 1
    54   27   28 1
    55   29   30 1
    56   30   31 1
    57   30   32 1
    58   30   33 1
    59   34   35 2
    60   34   36 1
@<TRIPOS>MOLECULE
CHEMBL1087593
   51    53     0     0     0
SMALL
USER_CHARGES

@<TRIPOS>ATOM
      1 C1         -0.0184    1.5028    0.0103 C.3       1 <0>        -0.1189
      2 C2          0.0021   -0.0041    0.0020 C.ar      1 <0>        -0.0679
      3 C3          0.0057   -0.6862   -1.2016 C.ar      1 <0>        -0.1195
      4 C4          0.0249   -2.0657   -1.2161 C.ar      1 <0>        -0.0867
      5 C5          0.0405   -2.7729   -0.0132 C.ar      1 <0>        -0.0200
      6 C6          0.0368   -2.0788    1.1974 C.ar      1 <0>        -0.0661
      7 C7          0.0229   -0.6992    1.1980 C.ar      1 <0>        -0.1221
      8 C8          0.0606   -4.2514   -0.0214 C.2       1 <0>         0.1541
      9 N1          0.0718   -5.0983    0.9984 N.2       1 <0>        -0.4911
     10 C9          0.0895   -6.3962    0.8061 C.2       1 <0>         0.0463
     11 C10         0.0966   -6.8936   -0.4593 C.2       1 <0>        -0.1587
     12 S1          0.0683   -5.3786   -1.4093 S.3       1 <0>         0.0146
     13 C11         0.1024   -7.3339    1.9857 C.3       1 <0>         0.1376
     14 O1          0.1214   -8.6848    1.5202 O.3       1 <0>        -0.3141
     15 C12         0.1349   -9.6625    2.4640 C.ar      1 <0>         0.1237
     16 C13         0.1242   -9.3286    3.8107 C.ar      1 <0>        -0.2069
     17 C14         0.1375  -10.3242    4.7680 C.ar      1 <0>        -0.0866
     18 C15         0.1614  -11.6528    4.3853 C.ar      1 <0>        -0.1273
     19 C16         0.1726  -11.9881    3.0442 C.ar      1 <0>        -0.0625
     20 C17         0.1536  -10.9961    2.0827 C.ar      1 <0>        -0.1304
     21 C18         0.1991  -13.4370    2.6306 C.3       1 <0>         0.1776
     22 N2         -1.1733  -13.9303    2.4911 N.am      1 <0>        -0.5550
     23 C19        -1.8606  -13.8287    1.2013 C.3       1 <0>         0.0432
     24 C20        -1.5991  -15.0736    0.3934 C.2       1 <0>         0.4816
     25 O2         -0.9032  -15.9633    0.8523 O.co2     1 <0>        -0.6835
     26 O3         -2.0836  -15.1912   -0.7193 O.co2     1 <0>        -0.6988
     27 C21        -1.8035  -14.4775    3.5493 C.2       1 <0>         0.6587
     28 O4         -1.2334  -14.5618    4.6191 O.2       1 <0>        -0.5923
     29 O5         -3.0648  -14.9308    3.4211 O.3       1 <0>        -0.3586
     30 C22        -3.6714  -15.4987    4.5836 C.3       1 <0>         0.0576
     31 H1          1.0042    1.8801    0.0026 H         1 <0>         0.0742
     32 H2         -0.5455    1.8639   -0.8728 H         1 <0>         0.0691
     33 H3         -0.5286    1.8543    0.9071 H         1 <0>         0.0692
     34 H4         -0.0068   -0.1377   -2.1319 H         1 <0>         0.1308
     35 H5          0.0273   -2.5970   -2.1564 H         1 <0>         0.1281
     36 H6          0.0485   -2.6203    2.1317 H         1 <0>         0.1362
     37 H7          0.0244   -0.1607    2.1343 H         1 <0>         0.1304
     38 H8          0.1111   -7.9193   -0.7971 H         1 <0>         0.2086
     39 H9          0.9898   -7.1454    2.5900 H         1 <0>         0.0809
     40 H10        -0.7900   -7.1703    2.5898 H         1 <0>         0.0808
     41 H11         0.1059   -8.2911    4.1101 H         1 <0>         0.1245
     42 H12         0.1296  -10.0647    5.8164 H         1 <0>         0.1232
     43 H13         0.1718  -12.4298    5.1354 H         1 <0>         0.1324
     44 H14         0.1577  -11.2586    1.0351 H         1 <0>         0.1327
     45 H15         0.7185  -13.5332    1.6772 H         1 <0>         0.0934
     46 H16         0.7201  -14.0218    3.3888 H         1 <0>         0.0954
     47 H17        -2.9325  -13.7223    1.3682 H         1 <0>         0.0812
     48 H18        -1.4892  -12.9590    0.6592 H         1 <0>         0.0763
     49 H19        -4.6838  -15.8233    4.3434 H         1 <0>         0.0953
     50 H20        -3.0851  -16.3546    4.9181 H         1 <0>         0.0566
     51 H21        -3.7079  -14.7513    5.3762 H         1 <0>         0.0527
@<TRIPOS>BOND
     1    1    2 1
     2    1   31 1
     3    1   32 1
     4    1   33 1
     5    2    7 ar
     6    2    3 ar
     7    3    4 ar
     8    3   34 1
     9    4    5 ar
    10    4   35 1
    11    5    6 ar
    12    5    8 1
    13    6    7 ar
    14    6   36 1
    15    7   37 1
    16    8   12 1
    17    8    9 2
    18    9   10 1
    19   10   11 2
    20   10   13 1
    21   11   12 1
    22   11   38 1
    23   13   14 1
    24   13   39 1
    25   13   40 1
    26   14   15 1
    27   15   20 ar
    28   15   16 ar
    29   16   17 ar
    30   16   41 1
    31   17   18 ar
    32   17   42 1
    33   18   19 ar
    34   18   43 1
    35   19   20 ar
    36   19   21 1
    37   20   44 1
    38   21   22 1
    39   21   45 1
    40   21   46 1
    41   22   23 1
    42   22   27 am
    43   23   24 1
    44   23   47 1
    45   23   48 1
    46   24   25 2
    47   24   26 1
    48   27   28 2
    49   27   29 1
    50   29   30 1
    51   30   49 1
    52   30   50 1
    53   30   51 1
@<TRIPOS>MOLECULE
CHEMBL524063
   58    60     0     0     0
SMALL
USER_CHARGES

@<TRIPOS>ATOM
      1 C1          3.8097    0.3140   -4.2922 C.3       1 <0>        -0.1056
      2 C2          3.4089   -1.0607   -3.8226 C.ar      1 <0>        -0.1113
      3 C3          2.0859   -1.3335   -3.5353 C.ar      1 <0>        -0.0289
      4 C4          1.7167   -2.6009   -3.1029 C.ar      1 <0>        -0.1440
      5 C5          2.6792   -3.5929   -2.9599 C.ar      1 <0>        -0.0777
      6 C6          4.0011   -3.3179   -3.2477 C.ar      1 <0>        -0.2040
      7 C7          4.3680   -2.0532   -3.6846 C.ar      1 <0>         0.1437
      8 O1          5.6697   -1.7849   -3.9728 O.3       1 <0>        -0.2757
      9 C8          6.6041   -2.8535   -3.8084 C.3       1 <0>        -0.0068
     10 C9          7.9855   -2.3731   -4.1717 C.2       1 <0>         0.5017
     11 O2          8.1542   -1.2224   -4.5376 O.co2     1 <0>        -0.6697
     12 O3          8.9345   -3.1353   -4.0999 O.co2     1 <0>        -0.6881
     13 S1          0.0293   -2.9503   -2.7354 S.3       1 <0>         0.0043
     14 C10         0.0157   -4.6796   -2.3978 C.ar      1 <0>        -0.1560
     15 C11        -0.0729   -5.1325   -1.0887 C.ar      1 <0>        -0.0296
     16 C12        -0.0833   -6.4893   -0.8268 C.ar      1 <0>        -0.1386
     17 C13        -0.0052   -7.3982   -1.8659 C.ar      1 <0>        -0.0357
     18 C14         0.0838   -6.9546   -3.1728 C.ar      1 <0>        -0.1938
     19 C15         0.0881   -5.5966   -3.4448 C.ar      1 <0>         0.1744
     20 O4          0.1694   -5.1591   -4.7299 O.3       1 <0>        -0.2857
     21 C16         0.2406   -6.1558   -5.7514 C.3       1 <0>         0.1719
     22 C17         0.3229   -5.5037   -7.0685 C.1       1 <0>        -0.2063
     23 C18         0.3885   -4.9836   -8.1189 C.1       1 <0>        -0.1453
     24 C19        -0.0165   -8.8765   -1.5735 C.3       1 <0>         0.0962
     25 O5         -1.3640   -9.3521   -1.5749 O.3       1 <0>        -0.2993
     26 C20        -1.5518  -10.6748   -1.3258 C.ar      1 <0>         0.1655
     27 C21        -0.4618  -11.4970   -1.0794 C.ar      1 <0>        -0.2123
     28 C22        -0.6554  -12.8411   -0.8260 C.ar      1 <0>        -0.0267
     29 C23        -1.9340  -13.3673   -0.8183 C.ar      1 <0>        -0.2260
     30 C24        -3.0218  -12.5501   -1.0641 C.ar      1 <0>        -0.0298
     31 C25        -2.8341  -11.2041   -1.3119 C.ar      1 <0>        -0.1526
     32 C26        -2.1421  -14.8341   -0.5421 C.3       1 <0>         0.5122
     33 F1         -2.3045  -15.0311    0.8334 F         1 <0>        -0.1776
     34 F2         -3.2857  -15.2776   -1.2149 F         1 <0>        -0.1781
     35 F3         -1.0294  -15.5552   -0.9884 F         1 <0>        -0.1780
     36 C27         1.0433   -0.2565   -3.6904 C.3       1 <0>        -0.1147
     37 H1          3.7495    0.3584   -5.3796 H         1 <0>         0.0668
     38 H2          3.1376    1.0557   -3.8605 H         1 <0>         0.0639
     39 H3          4.8318    0.5223   -3.9761 H         1 <0>         0.0779
     40 H4          2.3933   -4.5785   -2.6235 H         1 <0>         0.1135
     41 H5          4.7494   -4.0886   -3.1363 H         1 <0>         0.1279
     42 H6          6.5965   -3.1863   -2.7705 H         1 <0>         0.0581
     43 H7          6.3253   -3.6831   -4.4580 H         1 <0>         0.0574
     44 H8         -0.1333   -4.4248   -0.2752 H         1 <0>         0.1447
     45 H9         -0.1523   -6.8407    0.1921 H         1 <0>         0.1335
     46 H10         0.1454   -7.6674   -3.9818 H         1 <0>         0.1358
     47 H11         1.1254   -6.7731   -5.5957 H         1 <0>         0.0873
     48 H12        -0.6508   -6.7818   -5.7109 H         1 <0>         0.0879
     49 H13         0.4472   -4.5184   -9.0584 H         1 <0>         0.2256
     50 H14         0.5552   -9.4026   -2.3380 H         1 <0>         0.0790
     51 H15         0.4315   -9.0571   -0.5963 H         1 <0>         0.0820
     52 H16         0.5371  -11.0866   -1.0859 H         1 <0>         0.1415
     53 H17         0.1928  -13.4816   -0.6341 H         1 <0>         0.1394
     54 H18        -4.0196  -12.9635   -1.0579 H         1 <0>         0.1429
     55 H19        -3.6845  -10.5653   -1.4994 H         1 <0>         0.1442
     56 H20         0.6396   -0.2847   -4.7024 H         1 <0>         0.0751
     57 H21         0.2392   -0.4234   -2.9737 H         1 <0>         0.0672
     58 H22         1.4970    0.7175   -3.5071 H         1 <0>         0.0764
@<TRIPOS>BOND
     1    1    2 1
     2    1   37 1
     3    1   38 1
     4    1   39 1
     5    2    7 ar
     6    2    3 ar
     7    3    4 ar
     8    3   36 1
     9    4    5 ar
    10    4   13 1
    11    5    6 ar
    12    5   40 1
    13    6    7 ar
    14    6   41 1
    15    7    8 1
    16    8    9 1
    17    9   10 1
    18    9   42 1
    19    9   43 1
    20   10   11 2
    21   10   12 1
    22   13   14 1
    23   14   19 ar
    24   14   15 ar
    25   15   16 ar
    26   15   44 1
    27   16   17 ar
    28   16   45 1
    29   17   18 ar
    30   17   24 1
    31   18   19 ar
    32   18   46 1
    33   19   20 1
    34   20   21 1
    35   21   22 1
    36   21   47 1
    37   21   48 1
    38   22   23 3
    39   23   49 1
    40   24   25 1
    41   24   50 1
    42   24   51 1
    43   25   26 1
    44   26   31 ar
    45   26   27 ar
    46   27   28 ar
    47   27   52 1
    48   28   29 ar
    49   28   53 1
    50   29   30 ar
    51   29   32 1
    52   30   31 ar
    53   30   54 1
    54   31   55 1
    55   32   33 1
    56   32   34 1
    57   32   35 1
    58   36   56 1
    59   36   57 1
    60   36   58 1
@<TRIPOS>MOLECULE
CHEMBL247110
   69    72     0     0     0
SMALL
USER_CHARGES

@<TRIPOS>ATOM
      1 C1         -0.0187    1.5258    0.0104 C.3       1 <0>        -0.1431
      2 C2          0.0021   -0.0041    0.0020 C.3       1 <0>         0.0656
      3 O1          0.6709   -0.4649   -1.1737 O.3       1 <0>        -0.3671
      4 C3          0.7457   -1.8880   -1.2798 C.3       1 <0>         0.0331
      5 H1         -0.1179   -2.3349   -0.7873 H         1 <0>         0.0490
      6 C4          0.7554   -2.2896   -2.7561 C.3       1 <0>        -0.0612
      7 C5         -0.5593   -1.9112   -3.3882 C.ar      1 <0>        -0.0956
      8 C6         -1.6109   -2.8089   -3.3838 C.ar      1 <0>        -0.0821
      9 C7         -2.8169   -2.4646   -3.9630 C.ar      1 <0>        -0.1508
     10 C8         -2.9725   -1.2168   -4.5490 C.ar      1 <0>         0.1106
     11 C9         -1.9159   -0.3178   -4.5517 C.ar      1 <0>        -0.2083
     12 C10        -0.7136   -0.6649   -3.9666 C.ar      1 <0>        -0.0620
     13 O2         -4.1577   -0.8760   -5.1198 O.3       1 <0>        -0.3149
     14 C11        -4.2460    0.4250   -5.7042 C.3       1 <0>         0.0891
     15 C12        -5.6230    0.6232   -6.2834 C.2       1 <0>        -0.1308
     16 C13        -6.2745    1.7577   -6.0707 C.2       1 <0>        -0.1086
     17 C14        -7.6256    1.9522   -6.6389 C.ar      1 <0>        -0.0462
     18 C15        -8.2160    0.9401   -7.3933 C.ar      1 <0>        -0.0772
     19 C16        -9.4914    1.1230   -7.9306 C.ar      1 <0>         0.0216
     20 C17       -10.1753    2.3193   -7.7117 C.ar      1 <0>        -0.0697
     21 C18        -9.5835    3.3319   -6.9558 C.ar      1 <0>         0.0189
     22 C19        -8.3101    3.1452   -6.4149 C.ar      1 <0>        -0.0703
     23 C20       -10.2843    4.5602   -6.7304 C.1       1 <0>        -0.1129
     24 C21       -10.8589    5.5672   -6.5457 C.1       1 <0>        -0.1111
     25 C22       -11.5597    6.7954   -6.3203 C.ar      1 <0>         0.0120
     26 C23       -12.8389    6.9814   -6.8510 C.ar      1 <0>        -0.0934
     27 C24       -13.5079    8.1671   -6.6298 C.ar      1 <0>        -0.1188
     28 C25       -12.9153    9.1711   -5.8844 C.ar      1 <0>        -0.1095
     29 C26       -11.6486    8.9943   -5.3562 C.ar      1 <0>        -0.1196
     30 C27       -10.9701    7.8116   -5.5638 C.ar      1 <0>        -0.0944
     31 C28       -10.0976    0.0832   -8.7065 C.1       1 <0>        -0.1151
     32 C29       -10.5945   -0.7692   -9.3427 C.1       1 <0>        -0.1087
     33 C30       -11.2006   -1.8090  -10.1187 C.ar      1 <0>         0.0116
     34 C31       -10.5207   -3.0104  -10.3354 C.ar      1 <0>        -0.0929
     35 C32       -11.1108   -4.0073  -11.0839 C.ar      1 <0>        -0.1183
     36 C33       -12.3729   -3.8201  -11.6196 C.ar      1 <0>        -0.1093
     37 C34       -13.0519   -2.6328  -11.4095 C.ar      1 <0>        -0.1198
     38 C35       -12.4771   -1.6293  -10.6579 C.ar      1 <0>        -0.0947
     39 C36         2.0091   -2.3753   -0.6184 C.2       1 <0>         0.4770
     40 O3          2.2218   -3.5716   -0.5170 O.co2     1 <0>        -0.7001
     41 O4          2.8185   -1.5733   -0.1846 O.co2     1 <0>        -0.6799
     42 H2          1.0039    1.9031    0.0027 H         1 <0>         0.0624
     43 H3         -0.5459    1.8868   -0.8726 H         1 <0>         0.0534
     44 H4         -0.5289    1.8773    0.9072 H         1 <0>         0.0598
     45 H5          0.5293   -0.3651    0.8851 H         1 <0>         0.0457
     46 H6         -1.0205   -0.3814    0.0098 H         1 <0>         0.0299
     47 H7          1.5669   -1.7723   -3.2680 H         1 <0>         0.0734
     48 H8          0.9017   -3.3665   -2.8387 H         1 <0>         0.0875
     49 H9         -1.4892   -3.7802   -2.9274 H         1 <0>         0.1290
     50 H10        -3.6378   -3.1664   -3.9599 H         1 <0>         0.1254
     51 H11        -2.0346    0.6542   -5.0074 H         1 <0>         0.1219
     52 H12         0.1078    0.0363   -3.9646 H         1 <0>         0.1266
     53 H13        -4.0611    1.1800   -4.9400 H         1 <0>         0.0696
     54 H14        -3.5021    0.5192   -6.4954 H         1 <0>         0.0754
     55 H15        -6.0791   -0.1592   -6.8718 H         1 <0>         0.1248
     56 H16        -5.8184    2.5401   -5.4823 H         1 <0>         0.1282
     57 H17        -7.6865    0.0142   -7.5626 H         1 <0>         0.1366
     58 H18       -11.1619    2.4616   -8.1273 H         1 <0>         0.1328
     59 H19        -7.8535    3.9273   -5.8265 H         1 <0>         0.1360
     60 H20       -13.3025    6.1987   -7.4332 H         1 <0>         0.1283
     61 H21       -14.4965    8.3124   -7.0396 H         1 <0>         0.1292
     62 H22       -13.4438   10.0975   -5.7145 H         1 <0>         0.1263
     63 H23       -11.1921    9.7824   -4.7757 H         1 <0>         0.1285
     64 H24        -9.9836    7.6729   -5.1466 H         1 <0>         0.1272
     65 H25        -9.5355   -3.1578   -9.9182 H         1 <0>         0.1288
     66 H26       -10.5864   -4.9363  -11.2526 H         1 <0>         0.1296
     67 H27       -12.8300   -4.6042  -12.2048 H         1 <0>         0.1264
     68 H28       -14.0365   -2.4935  -11.8309 H         1 <0>         0.1283
     69 H29       -13.0103   -0.7052  -10.4904 H         1 <0>         0.1268
@<TRIPOS>BOND
     1    1    2 1
     2    1   42 1
     3    1   43 1
     4    1   44 1
     5    2    3 1
     6    2   45 1
     7    2   46 1
     8    3    4 1
     9    4    5 1
    10    4    6 1
    11    4   39 1
    12    6    7 1
    13    6   47 1
    14    6   48 1
    15    7   12 ar
    16    7    8 ar
    17    8    9 ar
    18    8   49 1
    19    9   10 ar
    20    9   50 1
    21   10   11 ar
    22   10   13 1
    23   11   12 ar
    24   11   51 1
    25   12   52 1
    26   13   14 1
    27   14   15 1
    28   14   53 1
    29   14   54 1
    30   15   16 2
    31   15   55 1
    32   16   17 1
    33   16   56 1
    34   17   22 ar
    35   17   18 ar
    36   18   19 ar
    37   18   57 1
    38   19   20 ar
    39   19   31 1
    40   20   21 ar
    41   20   58 1
    42   21   22 ar
    43   21   23 1
    44   22   59 1
    45   23   24 3
    46   24   25 1
    47   25   30 ar
    48   25   26 ar
    49   26   27 ar
    50   26   60 1
    51   27   28 ar
    52   27   61 1
    53   28   29 ar
    54   28   62 1
    55   29   30 ar
    56   29   63 1
    57   30   64 1
    58   31   32 3
    59   32   33 1
    60   33   38 ar
    61   33   34 ar
    62   34   35 ar
    63   34   65 1
    64   35   36 ar
    65   35   66 1
    66   36   37 ar
    67   36   67 1
    68   37   38 ar
    69   37   68 1
    70   38   69 1
    71   39   40 2
    72   39   41 1
@<TRIPOS>MOLECULE
CHEMBL247111
   73    76     0     0     0
SMALL
USER_CHARGES

@<TRIPOS>ATOM
      1 C1         -0.0187    1.5258    0.0104 C.3       1 <0>        -0.1430
      2 C2          0.0021   -0.0041    0.0020 C.3       1 <0>         0.0658
      3 O1         -1.3386   -0.4987    0.0122 O.3       1 <0>        -0.3677
      4 C3         -1.4321   -1.9246    0.0054 C.3       1 <0>         0.0330
      5 H1         -0.5629   -2.3481    0.5087 H         1 <0>         0.0489
      6 C4         -1.4785   -2.4182   -1.4177 C.2       1 <0>         0.4772
      7 O2         -1.4355   -1.6227   -2.3406 O.co2     1 <0>        -0.6806
      8 O3         -1.5590   -3.6131   -1.6462 O.co2     1 <0>        -0.6996
      9 C5         -2.7050   -2.3557    0.7365 C.3       1 <0>        -0.0608
     10 C6         -2.6049   -1.9696    2.1898 C.ar      1 <0>        -0.0958
     11 C7         -2.0530   -2.8506    3.1014 C.ar      1 <0>        -0.0822
     12 C8         -1.9604   -2.4992    4.4343 C.ar      1 <0>        -0.1510
     13 C9         -2.4214   -1.2611    4.8576 C.ar      1 <0>         0.1106
     14 C10        -2.9743   -0.3788    3.9408 C.ar      1 <0>        -0.2083
     15 C11        -3.0599   -0.7329    2.6083 C.ar      1 <0>        -0.0622
     16 O4         -2.3319   -0.9133    6.1683 O.3       1 <0>        -0.3151
     17 C12        -2.8265    0.3770    6.5324 C.3       1 <0>         0.0899
     18 C13        -2.6447    0.5850    8.0138 C.2       1 <0>        -0.1353
     19 C14        -2.1635    1.7335    8.4677 C.2       1 <0>        -0.1073
     20 C15        -1.9852    1.9376    9.9212 C.ar      1 <0>        -0.0486
     21 C16        -2.3179    0.9200   10.8132 C.ar      1 <0>        -0.0963
     22 C17        -2.1503    1.1119   12.1858 C.ar      1 <0>        -0.0521
     23 C18        -1.6491    2.3229   12.6644 C.ar      1 <0>        -0.1045
     24 C19        -1.3158    3.3410   11.7705 C.ar      1 <0>        -0.0541
     25 C20        -1.4791    3.1454   10.3979 C.ar      1 <0>        -0.0907
     26 C21        -0.7861    4.6212   12.2750 C.2       1 <0>        -0.1013
     27 C22        -0.6244    4.8073   13.5943 C.2       1 <0>        -0.1099
     28 C23        -0.0949    6.0870   14.0987 C.ar      1 <0>        -0.0555
     29 C24         0.2345    7.1109   13.2066 C.ar      1 <0>        -0.1137
     30 C25         0.7296    8.3056   13.6858 C.ar      1 <0>        -0.1179
     31 C26         0.9003    8.4918   15.0464 C.ar      1 <0>        -0.1202
     32 C27         0.5767    7.4822   15.9357 C.ar      1 <0>        -0.1194
     33 C28         0.0748    6.2843   15.4715 C.ar      1 <0>        -0.1089
     34 C29        -2.5033    0.0354   13.1295 C.2       1 <0>        -0.1022
     35 C30        -2.3421    0.2202   14.4490 C.2       1 <0>        -0.1090
     36 C31        -2.6950   -0.8560   15.3924 C.ar      1 <0>        -0.0560
     37 C32        -3.1922   -2.0719   14.9162 C.ar      1 <0>        -0.1132
     38 C33        -3.5204   -3.0743   15.8049 C.ar      1 <0>        -0.1176
     39 C34        -3.3582   -2.8781   17.1651 C.ar      1 <0>        -0.1199
     40 C35        -2.8667   -1.6765   17.6440 C.ar      1 <0>        -0.1197
     41 C36        -2.5285   -0.6672   16.7669 C.ar      1 <0>        -0.1090
     42 H2          1.0039    1.9031    0.0027 H         1 <0>         0.0597
     43 H3         -0.5459    1.8868   -0.8726 H         1 <0>         0.0623
     44 H4         -0.5289    1.8773    0.9072 H         1 <0>         0.0531
     45 H5          0.5123   -0.3556   -0.8948 H         1 <0>         0.0472
     46 H6          0.5293   -0.3651    0.8851 H         1 <0>         0.0293
     47 H7         -3.5668   -1.8615    0.2879 H         1 <0>         0.0727
     48 H8         -2.8227   -3.4363    0.6549 H         1 <0>         0.0885
     49 H9         -1.6943   -3.8143    2.7713 H         1 <0>         0.1289
     50 H10        -1.5299   -3.1879    5.1461 H         1 <0>         0.1253
     51 H11        -3.3339    0.5856    4.2680 H         1 <0>         0.1217
     52 H12        -3.4862   -0.0446    1.8934 H         1 <0>         0.1263
     53 H13        -2.2761    1.1441    5.9876 H         1 <0>         0.0683
     54 H14        -3.8855    0.4437    6.2833 H         1 <0>         0.0742
     55 H15        -2.9066   -0.2018    8.7058 H         1 <0>         0.1241
     56 H16        -1.9016    2.5204    7.7758 H         1 <0>         0.1244
     57 H17        -2.7058   -0.0173   10.4426 H         1 <0>         0.1300
     58 H18        -1.5195    2.4722   13.7261 H         1 <0>         0.1276
     59 H19        -1.2171    3.9317    9.7055 H         1 <0>         0.1289
     60 H20        -0.5282    5.4092   11.5829 H         1 <0>         0.1251
     61 H21        -0.8823    4.0193   14.2864 H         1 <0>         0.1221
     62 H22         0.1022    6.9668   12.1445 H         1 <0>         0.1253
     63 H23         0.9850    9.0977   12.9975 H         1 <0>         0.1237
     64 H24         1.2883    9.4295   15.4159 H         1 <0>         0.1219
     65 H25         0.7129    7.6344   16.9962 H         1 <0>         0.1232
     66 H26        -0.1822    5.4992   16.1671 H         1 <0>         0.1238
     67 H27        -2.8916   -0.9017   12.7589 H         1 <0>         0.1253
     68 H28        -1.9538    1.1574   14.8196 H         1 <0>         0.1220
     69 H29        -3.3197   -2.2262   13.8549 H         1 <0>         0.1256
     70 H30        -3.9052   -4.0145   15.4383 H         1 <0>         0.1241
     71 H31        -3.6168   -3.6666   17.8563 H         1 <0>         0.1219
     72 H32        -2.7431   -1.5303   18.7069 H         1 <0>         0.1231
     73 H33        -2.1402    0.2682   17.1417 H         1 <0>         0.1235
@<TRIPOS>BOND
     1    1    2 1
     2    1   42 1
     3    1   43 1
     4    1   44 1
     5    2    3 1
     6    2   45 1
     7    2   46 1
     8    3    4 1
     9    4    5 1
    10    4    6 1
    11    4    9 1
    12    6    7 2
    13    6    8 1
    14    9   10 1
    15    9   47 1
    16    9   48 1
    17   10   15 ar
    18   10   11 ar
    19   11   12 ar
    20   11   49 1
    21   12   13 ar
    22   12   50 1
    23   13   14 ar
    24   13   16 1
    25   14   15 ar
    26   14   51 1
    27   15   52 1
    28   16   17 1
    29   17   18 1
    30   17   53 1
    31   17   54 1
    32   18   19 2
    33   18   55 1
    34   19   20 1
    35   19   56 1
    36   20   25 ar
    37   20   21 ar
    38   21   22 ar
    39   21   57 1
    40   22   23 ar
    41   22   34 1
    42   23   24 ar
    43   23   58 1
    44   24   25 ar
    45   24   26 1
    46   25   59 1
    47   26   27 2
    48   26   60 1
    49   27   28 1
    50   27   61 1
    51   28   33 ar
    52   28   29 ar
    53   29   30 ar
    54   29   62 1
    55   30   31 ar
    56   30   63 1
    57   31   32 ar
    58   31   64 1
    59   32   33 ar
    60   32   65 1
    61   33   66 1
    62   34   35 2
    63   34   67 1
    64   35   36 1
    65   35   68 1
    66   36   41 ar
    67   36   37 ar
    68   37   38 ar
    69   37   69 1
    70   38   39 ar
    71   38   70 1
    72   39   40 ar
    73   39   71 1
    74   40   41 ar
    75   40   72 1
    76   41   73 1
@<TRIPOS>MOLECULE
CHEMBL247314
   77    80     0     0     0
SMALL
USER_CHARGES

@<TRIPOS>ATOM
      1 C1         -0.0187    1.5258    0.0104 C.3       1 <0>        -0.1431
      2 C2          0.0021   -0.0041    0.0020 C.3       1 <0>         0.0656
      3 O1          0.6709   -0.4649   -1.1737 O.3       1 <0>        -0.3671
      4 C3          0.7457   -1.8880   -1.2798 C.3       1 <0>         0.0331
      5 H1         -0.1179   -2.3349   -0.7873 H         1 <0>         0.0490
      6 C4          0.7554   -2.2896   -2.7561 C.3       1 <0>        -0.0611
      7 C5         -0.5593   -1.9112   -3.3882 C.ar      1 <0>        -0.0960
      8 C6         -1.6109   -2.8089   -3.3838 C.ar      1 <0>        -0.0821
      9 C7         -2.8169   -2.4646   -3.9630 C.ar      1 <0>        -0.1512
     10 C8         -2.9725   -1.2168   -4.5490 C.ar      1 <0>         0.1110
     11 C9         -1.9159   -0.3178   -4.5517 C.ar      1 <0>        -0.2085
     12 C10        -0.7136   -0.6649   -3.9666 C.ar      1 <0>        -0.0620
     13 O2         -4.1577   -0.8760   -5.1198 O.3       1 <0>        -0.3150
     14 C11        -4.2460    0.4250   -5.7042 C.3       1 <0>         0.0902
     15 C12        -5.6230    0.6232   -6.2834 C.2       1 <0>        -0.1375
     16 C13        -6.2746    1.7580   -6.0706 C.2       1 <0>        -0.1061
     17 C14        -7.6253    1.9524   -6.6387 C.ar      1 <0>        -0.0472
     18 C15        -8.2196    0.9412   -7.3945 C.ar      1 <0>        -0.1117
     19 C16        -9.4807    1.1290   -7.9220 C.ar      1 <0>        -0.0766
     20 C17       -10.1554    2.3167   -7.7033 C.ar      1 <0>        -0.1121
     21 C18        -9.5715    3.3233   -6.9552 C.ar      1 <0>        -0.0784
     22 C19        -8.3137    3.1456   -6.4166 C.ar      1 <0>        -0.1068
     23 C20       -10.3134    4.6143   -6.7228 C.3       1 <0>        -0.0726
     24 C21       -11.1487    4.4998   -5.4461 C.3       1 <0>        -0.0756
     25 C22       -11.8906    5.7908   -5.2137 C.ar      1 <0>        -0.0809
     26 C23       -11.3062    6.7997   -4.4711 C.ar      1 <0>        -0.1171
     27 C24       -11.9867    7.9839   -4.2579 C.ar      1 <0>        -0.1179
     28 C25       -13.2514    8.1594   -4.7877 C.ar      1 <0>        -0.1260
     29 C26       -13.8354    7.1508   -5.5310 C.ar      1 <0>        -0.1189
     30 C27       -13.1532    5.9682   -5.7478 C.ar      1 <0>        -0.1180
     31 C28       -10.1242    0.0380   -8.7386 C.3       1 <0>        -0.0733
     32 C29       -10.9253   -0.8838   -7.8170 C.3       1 <0>        -0.0755
     33 C30       -11.5688   -1.9747   -8.6336 C.ar      1 <0>        -0.0811
     34 C31       -12.8298   -1.7860   -9.1676 C.ar      1 <0>        -0.1182
     35 C32       -13.4201   -2.7867   -9.9166 C.ar      1 <0>        -0.1193
     36 C33       -12.7492   -3.9759  -10.1321 C.ar      1 <0>        -0.1259
     37 C34       -11.4878   -4.1643   -9.5989 C.ar      1 <0>        -0.1175
     38 C35       -10.8957   -3.1619   -8.8535 C.ar      1 <0>        -0.1165
     39 C36         2.0091   -2.3753   -0.6184 C.2       1 <0>         0.4770
     40 O3          2.2218   -3.5716   -0.5170 O.co2     1 <0>        -0.7001
     41 O4          2.8185   -1.5733   -0.1846 O.co2     1 <0>        -0.6799
     42 H2          1.0039    1.9031    0.0027 H         1 <0>         0.0624
     43 H3         -0.5459    1.8868   -0.8726 H         1 <0>         0.0534
     44 H4         -0.5289    1.8773    0.9072 H         1 <0>         0.0598
     45 H5          0.5293   -0.3651    0.8851 H         1 <0>         0.0457
     46 H6         -1.0205   -0.3814    0.0098 H         1 <0>         0.0298
     47 H7          1.5669   -1.7723   -3.2680 H         1 <0>         0.0733
     48 H8          0.9017   -3.3665   -2.8387 H         1 <0>         0.0874
     49 H9         -1.4892   -3.7802   -2.9274 H         1 <0>         0.1289
     50 H10        -3.6378   -3.1664   -3.9599 H         1 <0>         0.1252
     51 H11        -2.0346    0.6542   -5.0074 H         1 <0>         0.1216
     52 H12         0.1078    0.0363   -3.9646 H         1 <0>         0.1264
     53 H13        -4.0611    1.1800   -4.9400 H         1 <0>         0.0677
     54 H14        -3.5021    0.5192   -6.4954 H         1 <0>         0.0734
     55 H15        -6.0791   -0.1592   -6.8718 H         1 <0>         0.1236
     56 H16        -5.8185    2.5404   -5.4822 H         1 <0>         0.1222
     57 H17        -7.6936    0.0138   -7.5666 H         1 <0>         0.1247
     58 H18       -11.1421    2.4589   -8.1187 H         1 <0>         0.1199
     59 H19        -7.8610    3.9301   -5.8284 H         1 <0>         0.1232
     60 H20        -9.5984    5.4303   -6.6172 H         1 <0>         0.0740
     61 H21       -10.9698    4.8137   -7.5698 H         1 <0>         0.0734
     62 H22       -11.8637    3.6838   -5.5517 H         1 <0>         0.0740
     63 H23       -10.4923    4.3004   -4.5991 H         1 <0>         0.0750
     64 H24       -10.3181    6.6627   -4.0572 H         1 <0>         0.1217
     65 H25       -11.5304    8.7719   -3.6772 H         1 <0>         0.1214
     66 H26       -13.7834    9.0843   -4.6206 H         1 <0>         0.1201
     67 H27       -14.8237    7.2877   -5.9446 H         1 <0>         0.1206
     68 H28       -13.6079    5.1816   -6.3317 H         1 <0>         0.1206
     69 H29       -10.7913    0.4825   -9.4772 H         1 <0>         0.0735
     70 H30        -9.3517   -0.5388   -9.2473 H         1 <0>         0.0742
     71 H31       -10.2582   -1.3282   -7.0785 H         1 <0>         0.0753
     72 H32       -11.6978   -0.3069   -7.3084 H         1 <0>         0.0738
     73 H33       -13.3540   -0.8568   -8.9992 H         1 <0>         0.1202
     74 H34       -14.4056   -2.6395  -10.3332 H         1 <0>         0.1204
     75 H35       -13.2106   -4.7580  -10.7167 H         1 <0>         0.1200
     76 H36       -10.9637   -5.0935   -9.7670 H         1 <0>         0.1218
     77 H37        -9.9087   -3.3076   -8.4400 H         1 <0>         0.1223
@<TRIPOS>BOND
     1    1    2 1
     2    1   42 1
     3    1   43 1
     4    1   44 1
     5    2    3 1
     6    2   45 1
     7    2   46 1
     8    3    4 1
     9    4    5 1
    10    4    6 1
    11    4   39 1
    12    6    7 1
    13    6   47 1
    14    6   48 1
    15    7   12 ar
    16    7    8 ar
    17    8    9 ar
    18    8   49 1
    19    9   10 ar
    20    9   50 1
    21   10   11 ar
    22   10   13 1
    23   11   12 ar
    24   11   51 1
    25   12   52 1
    26   13   14 1
    27   14   15 1
    28   14   53 1
    29   14   54 1
    30   15   16 2
    31   15   55 1
    32   16   17 1
    33   16   56 1
    34   17   22 ar
    35   17   18 ar
    36   18   19 ar
    37   18   57 1
    38   19   20 ar
    39   19   31 1
    40   20   21 ar
    41   20   58 1
    42   21   22 ar
    43   21   23 1
    44   22   59 1
    45   23   24 1
    46   23   60 1
    47   23   61 1
    48   24   25 1
    49   24   62 1
    50   24   63 1
    51   25   30 ar
    52   25   26 ar
    53   26   27 ar
    54   26   64 1
    55   27   28 ar
    56   27   65 1
    57   28   29 ar
    58   28   66 1
    59   29   30 ar
    60   29   67 1
    61   30   68 1
    62   31   32 1
    63   31   69 1
    64   31   70 1
    65   32   33 1
    66   32   71 1
    67   32   72 1
    68   33   38 ar
    69   33   34 ar
    70   34   35 ar
    71   34   73 1
    72   35   36 ar
    73   35   74 1
    74   36   37 ar
    75   36   75 1
    76   37   38 ar
    77   37   76 1
    78   38   77 1
    79   39   40 2
    80   39   41 1
@<TRIPOS>MOLECULE
CHEMBL201581
   54    57     0     0     0
SMALL
USER_CHARGES

@<TRIPOS>ATOM
      1 C1          0.3555    1.3519    1.9378 C.ar      1 <0>        -0.0382
      2 C2          1.4672    2.0551    1.5698 C.ar      1 <0>        -0.2331
      3 C3          2.6257    1.3899    1.1771 C.ar      1 <0>         0.1305
      4 C4          2.6687    0.0083    1.1535 C.ar      1 <0>        -0.1515
      5 C5          1.5460   -0.7232    1.5250 C.ar      1 <0>         0.1523
      6 C6          0.3791   -0.0439    1.9206 C.ar      1 <0>        -0.1409
      7 C7         -0.6040   -1.0819    2.2433 C.2       1 <0>        -0.2206
      8 C8         -0.0075   -2.2658    2.0355 C.2       1 <0>         0.0657
      9 N1          1.2783   -2.0715    1.6053 N.pl3     1 <0>        -0.4416
     10 C9          2.2275   -3.1390    1.2804 C.3       1 <0>         0.0308
     11 C10         3.0879   -3.4294    2.4831 C.2       1 <0>         0.4809
     12 O1          2.9234   -2.8028    3.5159 O.co2     1 <0>        -0.6717
     13 O2          3.9485   -4.2910    2.4233 O.co2     1 <0>        -0.6923
     14 O3          3.7232    2.1049    0.8135 O.3       1 <0>        -0.3145
     15 C11         3.6141    3.5290    0.8590 C.3       1 <0>         0.0686
     16 C12         4.9384    4.1563    0.4188 C.3       1 <0>        -0.1217
     17 C13         4.8216    5.6810    0.4675 C.3       1 <0>         0.0620
     18 O4          6.0584    6.2669    0.0564 O.3       1 <0>        -0.3044
     19 C14         6.1238    7.6222    0.0430 C.ar      1 <0>         0.1715
     20 C15         5.0178    8.3733    0.4248 C.ar      1 <0>        -0.2231
     21 C16         5.0798    9.7484    0.4131 C.ar      1 <0>        -0.0385
     22 C17         6.2575   10.3898    0.0165 C.ar      1 <0>        -0.2093
     23 C18         7.3675    9.6304   -0.3667 C.ar      1 <0>        -0.0168
     24 C19         7.2984    8.2557   -0.3470 C.ar      1 <0>        -0.1643
     25 C20         6.3285   11.8631    0.0020 C.2       1 <0>         0.4456
     26 O5          7.3001   12.4203   -0.4716 O.2       1 <0>        -0.4494
     27 C21         5.2198   12.6612    0.5624 C.ar      1 <0>        -0.1654
     28 C22         4.5061   12.1910    1.6679 C.ar      1 <0>        -0.0570
     29 C23         3.4723   12.9401    2.1866 C.ar      1 <0>        -0.1614
     30 C24         3.1395   14.1583    1.6134 C.ar      1 <0>         0.1249
     31 C25         3.8441   14.6297    0.5158 C.ar      1 <0>        -0.1611
     32 C26         4.8841   13.8923   -0.0073 C.ar      1 <0>        -0.0376
     33 F1          2.1248   14.8884    2.1258 F         1 <0>        -0.1333
     34 H1         -0.5382    1.8744    2.2456 H         1 <0>         0.1190
     35 H2          1.4474    3.1348    1.5833 H         1 <0>         0.1197
     36 H3          3.5706   -0.5008    0.8474 H         1 <0>         0.1226
     37 H4         -1.6166   -0.9239    2.5840 H         1 <0>         0.1400
     38 H5         -0.4723   -3.2290    2.1855 H         1 <0>         0.1601
     39 H6          1.6802   -4.0388    0.9994 H         1 <0>         0.0880
     40 H7          2.8588   -2.8234    0.4497 H         1 <0>         0.0836
     41 H8          2.8178    3.8540    0.1894 H         1 <0>         0.0626
     42 H9          3.3838    3.8434    1.8770 H         1 <0>         0.0635
     43 H10         5.7347    3.8313    1.0884 H         1 <0>         0.0883
     44 H11         5.1687    3.8419   -0.5991 H         1 <0>         0.0870
     45 H12         4.0253    6.0060   -0.2020 H         1 <0>         0.0705
     46 H13         4.5913    5.9954    1.4855 H         1 <0>         0.0711
     47 H14         4.1085    7.8771    0.7306 H         1 <0>         0.1378
     48 H15         4.2201   10.3311    0.7095 H         1 <0>         0.1407
     49 H16         8.2789   10.1218   -0.6737 H         1 <0>         0.1420
     50 H17         8.1566    7.6685   -0.6385 H         1 <0>         0.1407
     51 H18         4.7639   11.2422    2.1147 H         1 <0>         0.1470
     52 H19         2.9200   12.5777    3.0410 H         1 <0>         0.1446
     53 H20         3.5804   15.5789    0.0731 H         1 <0>         0.1434
     54 H21         5.4352   14.2626   -0.8591 H         1 <0>         0.1425
@<TRIPOS>BOND
     1    1    6 ar
     2    1    2 ar
     3    1   34 1
     4    2    3 ar
     5    2   35 1
     6    3    4 ar
     7    3   14 1
     8    4    5 ar
     9    4   36 1
    10    5    9 1
    11    5    6 ar
    12    6    7 1
    13    7    8 2
    14    7   37 1
    15    8    9 1
    16    8   38 1
    17    9   10 1
    18   10   11 1
    19   10   39 1
    20   10   40 1
    21   11   12 2
    22   11   13 1
    23   14   15 1
    24   15   16 1
    25   15   41 1
    26   15   42 1
    27   16   17 1
    28   16   43 1
    29   16   44 1
    30   17   18 1
    31   17   45 1
    32   17   46 1
    33   18   19 1
    34   19   24 ar
    35   19   20 ar
    36   20   21 ar
    37   20   47 1
    38   21   22 ar
    39   21   48 1
    40   22   23 ar
    41   22   25 1
    42   23   24 ar
    43   23   49 1
    44   24   50 1
    45   25   26 2
    46   25   27 1
    47   27   32 ar
    48   27   28 ar
    49   28   29 ar
    50   28   51 1
    51   29   30 ar
    52   29   52 1
    53   30   31 ar
    54   30   33 1
    55   31   32 ar
    56   31   53 1
    57   32   54 1
@<TRIPOS>MOLECULE
CHEMBL1092237
   58    61     0     0     0
SMALL
USER_CHARGES

@<TRIPOS>ATOM
      1 C1         -0.0184    1.5028    0.0103 C.3       1 <0>        -0.0767
      2 C2          0.0021   -0.0041    0.0020 C.2       1 <0>        -0.0012
      3 C3         -1.0704   -0.8163    0.0025 C.2       1 <0>        -0.0174
      4 N1         -0.6270   -2.0826   -0.0069 N.2       1 <0>        -0.4452
      5 C4          0.6852   -2.0676   -0.0131 C.2       1 <0>         0.2239
      6 O1          1.0982   -0.7883   -0.0131 O.3       1 <0>        -0.1906
      7 C5          1.5619   -3.2576   -0.0233 C.ar      1 <0>        -0.0082
      8 C6          1.0056   -4.5377   -0.0330 C.ar      1 <0>        -0.0580
      9 C7          1.8288   -5.6444   -0.0424 C.ar      1 <0>        -0.1097
     10 C8          3.2046   -5.4873   -0.0419 C.ar      1 <0>        -0.0196
     11 C9          3.7624   -4.2198   -0.0324 C.ar      1 <0>        -0.1103
     12 C10         2.9494   -3.1056   -0.0291 C.ar      1 <0>        -0.0775
     13 Cl1         4.2343   -6.8849   -0.0527 Cl        1 <0>        -0.0624
     14 C11        -2.5132   -0.3812    0.0123 C.3       1 <0>         0.1475
     15 O2         -2.9759   -0.2356   -1.3319 O.3       1 <0>        -0.3085
     16 C12        -4.2667    0.1544   -1.5011 C.ar      1 <0>         0.1227
     17 C13        -5.0698    0.3977   -0.3961 C.ar      1 <0>        -0.2088
     18 C14        -6.3812    0.7945   -0.5708 C.ar      1 <0>        -0.0865
     19 C15        -6.8940    0.9493   -1.8457 C.ar      1 <0>        -0.1282
     20 C16        -6.0960    0.7072   -2.9484 C.ar      1 <0>        -0.0612
     21 C17        -4.7819    0.3156   -2.7789 C.ar      1 <0>        -0.1308
     22 C18        -6.6582    0.8764   -4.3363 C.3       1 <0>         0.1771
     23 N2         -6.4403    2.2533   -4.7869 N.am      1 <0>        -0.5548
     24 C19        -5.2130    2.6030   -5.5064 C.3       1 <0>         0.0434
     25 C20        -5.4291    2.4200   -6.9866 C.2       1 <0>         0.4820
     26 O3         -6.5082    2.0334   -7.4019 O.co2     1 <0>        -0.6828
     27 O4         -4.5248    2.6587   -7.7687 O.co2     1 <0>        -0.6993
     28 C21        -7.3688    3.1983   -4.5394 C.2       1 <0>         0.6595
     29 O5         -8.3868    2.9082   -3.9426 O.2       1 <0>        -0.5935
     30 O6         -7.1686    4.4636   -4.9535 O.3       1 <0>        -0.3424
     31 C22        -8.1944    5.4133   -4.6570 C.3       1 <0>         0.0758
     32 C23        -8.9328    5.9314   -5.9024 C.3       1 <0>        -0.1515
     33 C24        -8.9143    7.3189   -5.2394 C.3       1 <0>        -0.1382
     34 C25        -7.6707    6.8468   -4.4677 C.3       1 <0>        -0.1348
     35 H1          1.0042    1.8801    0.0026 H         1 <0>         0.0837
     36 H2         -0.5455    1.8639   -0.8728 H         1 <0>         0.0997
     37 H3         -0.5286    1.8543    0.9071 H         1 <0>         0.0937
     38 H4         -0.0673   -4.6614   -0.0326 H         1 <0>         0.1495
     39 H5          1.3994   -6.6354   -0.0499 H         1 <0>         0.1443
     40 H6          4.8362   -4.1036   -0.0317 H         1 <0>         0.1425
     41 H7          3.3856   -2.1176   -0.0266 H         1 <0>         0.1413
     42 H8         -3.1154   -1.1315    0.5246 H         1 <0>         0.0811
     43 H9         -2.6015    0.5726    0.5323 H         1 <0>         0.0803
     44 H10        -4.6699    0.2765    0.5998 H         1 <0>         0.1233
     45 H11        -7.0068    0.9836    0.2890 H         1 <0>         0.1228
     46 H12        -7.9196    1.2597   -1.9803 H         1 <0>         0.1320
     47 H13        -4.1576    0.1309   -3.6406 H         1 <0>         0.1315
     48 H14        -6.1581    0.1878   -5.0173 H         1 <0>         0.0927
     49 H15        -7.7270    0.6631   -4.3239 H         1 <0>         0.0952
     50 H16        -4.9559    3.6424   -5.3025 H         1 <0>         0.0804
     51 H17        -4.4007    1.9560   -5.1751 H         1 <0>         0.0755
     52 H18        -8.8596    5.0826   -3.8593 H         1 <0>         0.1075
     53 H19        -8.3405    5.8760   -6.8158 H         1 <0>         0.0942
     54 H20        -9.9341    5.5172   -6.0202 H         1 <0>         0.0720
     55 H21        -8.7130    8.1329   -5.9358 H         1 <0>         0.0760
     56 H22        -9.7775    7.5097   -4.6018 H         1 <0>         0.0818
     57 H23        -7.6531    7.1714   -3.4274 H         1 <0>         0.0723
     58 H24        -6.7334    7.0416   -4.9889 H         1 <0>         0.0927
@<TRIPOS>BOND
     1    1    2 1
     2    1   35 1
     3    1   36 1
     4    1   37 1
     5    2    6 1
     6    2    3 2
     7    3    4 1
     8    3   14 1
     9    4    5 2
    10    5    6 1
    11    5    7 1
    12    7   12 ar
    13    7    8 ar
    14    8    9 ar
    15    8   38 1
    16    9   10 ar
    17    9   39 1
    18   10   11 ar
    19   10   13 1
    20   11   12 ar
    21   11   40 1
    22   12   41 1
    23   14   15 1
    24   14   42 1
    25   14   43 1
    26   15   16 1
    27   16   21 ar
    28   16   17 ar
    29   17   18 ar
    30   17   44 1
    31   18   19 ar
    32   18   45 1
    33   19   20 ar
    34   19   46 1
    35   20   21 ar
    36   20   22 1
    37   21   47 1
    38   22   23 1
    39   22   48 1
    40   22   49 1
    41   23   24 1
    42   23   28 am
    43   24   25 1
    44   24   50 1
    45   24   51 1
    46   25   26 2
    47   25   27 1
    48   28   29 2
    49   28   30 1
    50   30   31 1
    51   31   34 1
    52   31   32 1
    53   31   52 1
    54   32   33 1
    55   32   53 1
    56   32   54 1
    57   33   34 1
    58   33   55 1
    59   33   56 1
    60   34   57 1
    61   34   58 1
@<TRIPOS>MOLECULE
CHEMBL1092236
   61    64     0     0     0
SMALL
USER_CHARGES

@<TRIPOS>ATOM
      1 C1         -0.0184    1.5028    0.0103 C.3       1 <0>        -0.0767
      2 C2          0.0021   -0.0041    0.0020 C.2       1 <0>        -0.0012
      3 C3         -1.0704   -0.8163    0.0025 C.2       1 <0>        -0.0174
      4 N1         -0.6270   -2.0826   -0.0069 N.2       1 <0>        -0.4452
      5 C4          0.6852   -2.0676   -0.0131 C.2       1 <0>         0.2239
      6 O1          1.0982   -0.7883   -0.0131 O.3       1 <0>        -0.1907
      7 C5          1.5619   -3.2576   -0.0233 C.ar      1 <0>        -0.0082
      8 C6          1.0056   -4.5377   -0.0330 C.ar      1 <0>        -0.0580
      9 C7          1.8288   -5.6444   -0.0424 C.ar      1 <0>        -0.1097
     10 C8          3.2046   -5.4873   -0.0419 C.ar      1 <0>        -0.0196
     11 C9          3.7624   -4.2198   -0.0324 C.ar      1 <0>        -0.1103
     12 C10         2.9494   -3.1056   -0.0291 C.ar      1 <0>        -0.0775
     13 Cl1         4.2343   -6.8849   -0.0527 Cl        1 <0>        -0.0624
     14 C11        -2.5132   -0.3812    0.0123 C.3       1 <0>         0.1475
     15 O2         -2.9759   -0.2356   -1.3319 O.3       1 <0>        -0.3085
     16 C12        -4.2667    0.1544   -1.5011 C.ar      1 <0>         0.1227
     17 C13        -5.0698    0.3977   -0.3961 C.ar      1 <0>        -0.2088
     18 C14        -6.3812    0.7945   -0.5708 C.ar      1 <0>        -0.0865
     19 C15        -6.8940    0.9493   -1.8457 C.ar      1 <0>        -0.1281
     20 C16        -6.0960    0.7072   -2.9484 C.ar      1 <0>        -0.0611
     21 C17        -4.7819    0.3156   -2.7789 C.ar      1 <0>        -0.1308
     22 C18        -6.6582    0.8764   -4.3363 C.3       1 <0>         0.1773
     23 N2         -6.4403    2.2533   -4.7869 N.am      1 <0>        -0.5550
     24 C19        -5.2130    2.6030   -5.5064 C.3       1 <0>         0.0436
     25 C20        -5.4291    2.4200   -6.9866 C.2       1 <0>         0.4823
     26 O3         -6.5082    2.0334   -7.4019 O.co2     1 <0>        -0.6828
     27 O4         -4.5248    2.6587   -7.7687 O.co2     1 <0>        -0.6994
     28 C21        -7.3688    3.1983   -4.5394 C.2       1 <0>         0.6600
     29 O5         -8.3868    2.9082   -3.9426 O.2       1 <0>        -0.5924
     30 O6         -7.1686    4.4636   -4.9535 O.3       1 <0>        -0.3487
     31 C22        -8.1944    5.4133   -4.6570 C.3       1 <0>         0.1008
     32 C23        -9.1844    5.5073   -5.8363 C.3       1 <0>        -0.1436
     33 C24        -9.5609    7.0084   -5.8975 C.3       1 <0>        -0.1212
     34 C25        -8.2210    7.7107   -5.5652 C.3       1 <0>        -0.1220
     35 C26        -7.5818    6.8143   -4.4846 C.3       1 <0>        -0.1233
     36 H1          1.0042    1.8801    0.0026 H         1 <0>         0.0837
     37 H2         -0.5455    1.8639   -0.8728 H         1 <0>         0.0997
     38 H3         -0.5286    1.8543    0.9071 H         1 <0>         0.0937
     39 H4         -0.0673   -4.6614   -0.0326 H         1 <0>         0.1495
     40 H5          1.3994   -6.6354   -0.0499 H         1 <0>         0.1443
     41 H6          4.8362   -4.1036   -0.0317 H         1 <0>         0.1425
     42 H7          3.3856   -2.1176   -0.0266 H         1 <0>         0.1413
     43 H8         -3.1154   -1.1315    0.5246 H         1 <0>         0.0811
     44 H9         -2.6015    0.5726    0.5323 H         1 <0>         0.0803
     45 H10        -4.6699    0.2765    0.5998 H         1 <0>         0.1233
     46 H11        -7.0068    0.9836    0.2890 H         1 <0>         0.1227
     47 H12        -7.9196    1.2597   -1.9803 H         1 <0>         0.1320
     48 H13        -4.1576    0.1309   -3.6406 H         1 <0>         0.1315
     49 H14        -6.1581    0.1878   -5.0173 H         1 <0>         0.0925
     50 H15        -7.7270    0.6631   -4.3239 H         1 <0>         0.0950
     51 H16        -4.9559    3.6424   -5.3025 H         1 <0>         0.0802
     52 H17        -4.4007    1.9560   -5.1751 H         1 <0>         0.0751
     53 H18        -8.7213    5.1218   -3.7484 H         1 <0>         0.0837
     54 H19        -8.7035    5.1965   -6.7638 H         1 <0>         0.0825
     55 H20       -10.0683    4.8999   -5.6416 H         1 <0>         0.0715
     56 H21        -9.9025    7.2806   -6.8961 H         1 <0>         0.0691
     57 H22       -10.3180    7.2476   -5.1506 H         1 <0>         0.0663
     58 H23        -7.5845    7.7558   -6.4489 H         1 <0>         0.0706
     59 H24        -8.4018    8.7114   -5.1727 H         1 <0>         0.0662
     60 H25        -7.8122    7.2031   -3.4927 H         1 <0>         0.0731
     61 H26        -6.5021    6.7698   -4.6271 H         1 <0>         0.0799
@<TRIPOS>BOND
     1    1    2 1
     2    1   36 1
     3    1   37 1
     4    1   38 1
     5    2    6 1
     6    2    3 2
     7    3    4 1
     8    3   14 1
     9    4    5 2
    10    5    6 1
    11    5    7 1
    12    7   12 ar
    13    7    8 ar
    14    8    9 ar
    15    8   39 1
    16    9   10 ar
    17    9   40 1
    18   10   11 ar
    19   10   13 1
    20   11   12 ar
    21   11   41 1
    22   12   42 1
    23   14   15 1
    24   14   43 1
    25   14   44 1
    26   15   16 1
    27   16   21 ar
    28   16   17 ar
    29   17   18 ar
    30   17   45 1
    31   18   19 ar
    32   18   46 1
    33   19   20 ar
    34   19   47 1
    35   20   21 ar
    36   20   22 1
    37   21   48 1
    38   22   23 1
    39   22   49 1
    40   22   50 1
    41   23   24 1
    42   23   28 am
    43   24   25 1
    44   24   51 1
    45   24   52 1
    46   25   26 2
    47   25   27 1
    48   28   29 2
    49   28   30 1
    50   30   31 1
    51   31   35 1
    52   31   32 1
    53   31   53 1
    54   32   33 1
    55   32   54 1
    56   32   55 1
    57   33   34 1
    58   33   56 1
    59   33   57 1
    60   34   35 1
    61   34   58 1
    62   34   59 1
    63   35   60 1
    64   35   61 1
@<TRIPOS>MOLECULE
CHEMBL372519
   57    61     0     0     0
SMALL
USER_CHARGES

@<TRIPOS>ATOM
      1 C1         -3.6567    6.7499   -0.3332 C.3       1 <0>        -0.0706
      2 C2         -3.0013    5.5074    0.2125 C.2       1 <0>        -0.0349
      3 C3         -3.5871    4.3094    0.3914 C.2       1 <0>        -0.0031
      4 N1         -2.6670    3.4732    0.8952 N.2       1 <0>        -0.4570
      5 C4         -1.5362    4.1252    1.0294 C.2       1 <0>         0.2267
      6 O1         -1.7180    5.3882    0.6065 O.3       1 <0>        -0.1942
      7 C5         -0.2726    3.5633    1.5519 C.ar      1 <0>        -0.0157
      8 C6         -0.2112    2.2267    1.9491 C.ar      1 <0>        -0.0704
      9 C7          0.9713    1.7085    2.4355 C.ar      1 <0>        -0.1202
     10 C8          2.0946    2.5106    2.5299 C.ar      1 <0>        -0.1021
     11 C9          2.0404    3.8364    2.1384 C.ar      1 <0>        -0.1218
     12 C10         0.8657    4.3656    1.6449 C.ar      1 <0>        -0.0914
     13 C11        -5.0218    3.9679    0.0813 C.3       1 <0>        -0.0353
     14 C12        -5.1266    3.4666   -1.3604 C.3       1 <0>         0.0707
     15 O2         -6.4870    3.1427   -1.6543 O.3       1 <0>        -0.3176
     16 C13        -6.7548    2.6791   -2.9034 C.ar      1 <0>         0.1197
     17 C14        -5.7289    2.5331   -3.8261 C.ar      1 <0>        -0.2172
     18 C15        -6.0059    2.0618   -5.0932 C.ar      1 <0>        -0.0727
     19 C16        -7.3042    1.7342   -5.4487 C.ar      1 <0>        -0.0975
     20 C17        -8.3283    1.8790   -4.5311 C.ar      1 <0>        -0.0026
     21 C18        -8.0527    2.3455   -3.2574 C.ar      1 <0>        -0.1409
     22 C19        -9.6403    1.4581   -5.1580 C.3       1 <0>        -0.0853
     23 C20        -9.3795    1.4580   -6.6792 C.3       1 <0>        -0.1136
     24 C21        -7.8587    1.2059   -6.7546 C.3       1 <0>        -0.0188
     25 C22        -7.5746   -0.2918   -6.8847 C.3       1 <0>        -0.1197
     26 C23        -7.9884   -0.7702   -8.2779 C.3       1 <0>        -0.1018
     27 C24        -7.0078   -1.6661   -9.0373 C.3       1 <0>        -0.1825
     28 C25        -7.2138   -0.2145   -9.4746 C.3       1 <0>        -0.1987
     29 C26        -8.3596   -1.0445   -5.8415 C.2       1 <0>         0.5038
     30 O3         -9.2053   -1.8543   -6.1814 O.co2     1 <0>        -0.6994
     31 O4         -8.1490   -0.8436   -4.6575 O.co2     1 <0>        -0.6842
     32 H1         -2.9287    7.5605   -0.3652 H         1 <0>         0.0794
     33 H2         -4.0264    6.5536   -1.3396 H         1 <0>         0.0924
     34 H3         -4.4890    7.0343    0.3106 H         1 <0>         0.0927
     35 H4         -1.0875    1.5997    1.8762 H         1 <0>         0.1398
     36 H5          1.0200    0.6745    2.7435 H         1 <0>         0.1328
     37 H6          3.0178    2.1000    2.9113 H         1 <0>         0.1280
     38 H7          2.9206    4.4574    2.2153 H         1 <0>         0.1300
     39 H8          0.8259    5.3994    1.3350 H         1 <0>         0.1297
     40 H9         -5.3653    3.1895    0.7626 H         1 <0>         0.0947
     41 H10        -5.6412    4.8565    0.2030 H         1 <0>         0.0918
     42 H11        -4.7831    4.2450   -2.0416 H         1 <0>         0.0573
     43 H12        -4.5071    2.5780   -1.4820 H         1 <0>         0.0634
     44 H13        -4.7155    2.7880   -3.5532 H         1 <0>         0.1160
     45 H14        -5.2070    1.9482   -5.8111 H         1 <0>         0.1105
     46 H15        -8.8517    2.4540   -2.5389 H         1 <0>         0.1190
     47 H16        -9.9169    0.4589   -4.8216 H         1 <0>         0.1081
     48 H17       -10.4249    2.1725   -4.9088 H         1 <0>         0.0577
     49 H18        -9.9302    0.6535   -7.1667 H         1 <0>         0.0803
     50 H19        -9.6343    2.4236   -7.1161 H         1 <0>         0.0586
     51 H20        -7.4267    1.7481   -7.5958 H         1 <0>         0.0633
     52 H21        -6.5098   -0.4736   -6.7395 H         1 <0>         0.0582
     53 H22        -9.0530   -0.9615   -8.4124 H         1 <0>         0.1073
     54 H23        -6.0679   -1.9147   -8.5444 H         1 <0>         0.0839
     55 H24        -7.4272   -2.4471   -9.6715 H         1 <0>         0.0850
     56 H25        -7.7688   -0.0405  -10.3965 H         1 <0>         0.0838
     57 H26        -6.4095    0.4920   -9.2694 H         1 <0>         0.0844
@<TRIPOS>BOND
     1    1    2 1
     2    1   32 1
     3    1   33 1
     4    1   34 1
     5    2    6 1
     6    2    3 2
     7    3    4 1
     8    3   13 1
     9    4    5 2
    10    5    6 1
    11    5    7 1
    12    7   12 ar
    13    7    8 ar
    14    8    9 ar
    15    8   35 1
    16    9   10 ar
    17    9   36 1
    18   10   11 ar
    19   10   37 1
    20   11   12 ar
    21   11   38 1
    22   12   39 1
    23   13   14 1
    24   13   40 1
    25   13   41 1
    26   14   15 1
    27   14   42 1
    28   14   43 1
    29   15   16 1
    30   16   21 ar
    31   16   17 ar
    32   17   18 ar
    33   17   44 1
    34   18   19 ar
    35   18   45 1
    36   19   24 1
    37   19   20 ar
    38   20   21 ar
    39   20   22 1
    40   21   46 1
    41   22   23 1
    42   22   47 1
    43   22   48 1
    44   23   24 1
    45   23   49 1
    46   23   50 1
    47   24   25 1
    48   24   51 1
    49   25   26 1
    50   25   29 1
    51   25   52 1
    52   26   28 1
    53   26   27 1
    54   26   53 1
    55   27   28 1
    56   27   54 1
    57   27   55 1
    58   28   56 1
    59   28   57 1
    60   29   30 2
    61   29   31 1
@<TRIPOS>MOLECULE
CHEMBL372519__1
   57    61     0     0     0
SMALL
USER_CHARGES

@<TRIPOS>ATOM
      1 C1         -0.0184    1.5028    0.0103 C.3       1 <0>        -0.0709
      2 C2          0.0021   -0.0041    0.0020 C.2       1 <0>        -0.0340
      3 C3         -1.0705   -0.8164    0.0025 C.2       1 <0>        -0.0049
      4 N1         -0.6270   -2.0826   -0.0064 N.2       1 <0>        -0.4575
      5 C4          0.6851   -2.0676   -0.0123 C.2       1 <0>         0.2285
      6 O1          1.0981   -0.7883   -0.0131 O.3       1 <0>        -0.1937
      7 C5          1.5619   -3.2577   -0.0227 C.ar      1 <0>        -0.0163
      8 C6          1.0059   -4.5378   -0.0330 C.ar      1 <0>        -0.0700
      9 C7          1.8298   -5.6443   -0.0432 C.ar      1 <0>        -0.1201
     10 C8          3.2044   -5.4871   -0.0433 C.ar      1 <0>        -0.1017
     11 C9          3.7620   -4.2209   -0.0327 C.ar      1 <0>        -0.1219
     12 C10         2.9493   -3.1060   -0.0282 C.ar      1 <0>        -0.0909
     13 C11        -2.5133   -0.3814    0.0119 C.3       1 <0>        -0.0332
     14 C12        -3.0085   -0.2260   -1.4274 C.3       1 <0>         0.0678
     15 O2         -4.3766    0.1865   -1.4185 O.3       1 <0>        -0.3174
     16 C13        -4.9731    0.3716   -2.6255 C.ar      1 <0>         0.1183
     17 C14        -4.2586    0.1551   -3.7950 C.ar      1 <0>        -0.2058
     18 C15        -4.8687    0.3443   -5.0183 C.ar      1 <0>        -0.0443
     19 C16        -6.1918    0.7501   -5.0841 C.ar      1 <0>        -0.1004
     20 C17        -6.9058    0.9665   -3.9201 C.ar      1 <0>        -0.0663
     21 C18        -6.2985    0.7715   -2.6917 C.ar      1 <0>        -0.1461
     22 C19        -8.3163    1.3998   -4.2581 C.3       1 <0>        -0.0749
     23 C20        -8.2589    1.8460   -5.7345 C.3       1 <0>        -0.1186
     24 C21        -7.0742    1.0231   -6.2835 C.3       1 <0>        -0.0245
     25 C22        -7.5746   -0.2918   -6.8847 C.3       1 <0>        -0.1131
     26 C23        -8.4925    0.0069   -8.0718 C.3       1 <0>        -0.1095
     27 C24        -9.9796   -0.3162   -7.9138 C.3       1 <0>        -0.1941
     28 C25        -9.0993   -1.1860   -8.8133 C.3       1 <0>        -0.1779
     29 C26        -6.3987   -1.1100   -7.3524 C.2       1 <0>         0.5082
     30 O3         -6.2000   -2.2167   -6.8811 O.co2     1 <0>        -0.7003
     31 O4         -5.6459   -0.6652   -8.2022 O.co2     1 <0>        -0.6991
     32 H1          1.0042    1.8801    0.0026 H         1 <0>         0.0799
     33 H2         -0.5455    1.8639   -0.8728 H         1 <0>         0.0925
     34 H3         -0.5286    1.8543    0.9071 H         1 <0>         0.0922
     35 H4         -0.0670   -4.6619   -0.0326 H         1 <0>         0.1397
     36 H5          1.4008   -6.6354   -0.0508 H         1 <0>         0.1329
     37 H6          3.8450   -6.3565   -0.0513 H         1 <0>         0.1280
     38 H7          4.8357   -4.1050   -0.0321 H         1 <0>         0.1301
     39 H8          3.3858   -2.1181   -0.0249 H         1 <0>         0.1297
     40 H9         -3.1156   -1.1316    0.5243 H         1 <0>         0.0941
     41 H10        -2.6018    0.5726    0.5316 H         1 <0>         0.0916
     42 H11        -2.4061    0.5242   -1.9398 H         1 <0>         0.0599
     43 H12        -2.9200   -1.1800   -1.9471 H         1 <0>         0.0663
     44 H13        -3.2268   -0.1604   -3.7481 H         1 <0>         0.1214
     45 H14        -4.3122    0.1757   -5.9285 H         1 <0>         0.1277
     46 H15        -6.8575    0.9357   -1.7823 H         1 <0>         0.1216
     47 H16        -9.0067    0.5643   -4.1421 H         1 <0>         0.0779
     48 H17        -8.6187    2.2323   -3.6228 H         1 <0>         0.0693
     49 H18        -9.1825    1.5890   -6.2531 H         1 <0>         0.0804
     50 H19        -8.0560    2.9144   -5.8087 H         1 <0>         0.0649
     51 H20        -6.5285    1.5984   -7.0314 H         1 <0>         0.0789
     52 H21        -8.1278   -0.8496   -6.1291 H         1 <0>         0.0598
     53 H22        -8.2277    0.8844   -8.6617 H         1 <0>         0.0974
     54 H23       -10.3041   -0.7415   -6.9641 H         1 <0>         0.0869
     55 H24       -10.6936    0.3489   -8.3996 H         1 <0>         0.0842
     56 H25        -9.2340   -1.0931   -9.8910 H         1 <0>         0.0850
     57 H26        -8.8445   -2.1836   -8.4555 H         1 <0>         0.0924
@<TRIPOS>BOND
     1    1    2 1
     2    1   32 1
     3    1   33 1
     4    1   34 1
     5    2    6 1
     6    2    3 2
     7    3    4 1
     8    3   13 1
     9    4    5 2
    10    5    6 1
    11    5    7 1
    12    7   12 ar
    13    7    8 ar
    14    8    9 ar
    15    8   35 1
    16    9   10 ar
    17    9   36 1
    18   10   11 ar
    19   10   37 1
    20   11   12 ar
    21   11   38 1
    22   12   39 1
    23   13   14 1
    24   13   40 1
    25   13   41 1
    26   14   15 1
    27   14   42 1
    28   14   43 1
    29   15   16 1
    30   16   21 ar
    31   16   17 ar
    32   17   18 ar
    33   17   44 1
    34   18   19 ar
    35   18   45 1
    36   19   24 1
    37   19   20 ar
    38   20   21 ar
    39   20   22 1
    40   21   46 1
    41   22   23 1
    42   22   47 1
    43   22   48 1
    44   23   24 1
    45   23   49 1
    46   23   50 1
    47   24   25 1
    48   24   51 1
    49   25   26 1
    50   25   29 1
    51   25   52 1
    52   26   28 1
    53   26   27 1
    54   26   53 1
    55   27   28 1
    56   27   54 1
    57   27   55 1
    58   28   56 1
    59   28   57 1
    60   29   30 2
    61   29   31 1
@<TRIPOS>MOLECULE
CHEMBL372519__2
   57    61     0     0     0
SMALL
USER_CHARGES

@<TRIPOS>ATOM
      1 C1         -1.6892    1.0067    1.1275 C.3       1 <0>        -0.0735
      2 C2         -1.6543   -0.4966    1.0284 C.2       1 <0>        -0.0292
      3 C3         -2.6961   -1.3024    0.7532 C.2       1 <0>        -0.0066
      4 N1         -2.2496   -2.5675    0.7572 N.2       1 <0>        -0.4576
      5 C4         -0.9654   -2.5582    1.0268 C.2       1 <0>         0.2243
      6 O1         -0.5726   -1.2834    1.1932 O.3       1 <0>        -0.1934
      7 C5         -0.0954   -3.7493    1.1247 C.ar      1 <0>        -0.0143
      8 C6         -0.6257   -5.0236    0.9175 C.ar      1 <0>        -0.0715
      9 C7          0.1918   -6.1310    1.0099 C.ar      1 <0>        -0.1208
     10 C8          1.5346   -5.9805    1.3072 C.ar      1 <0>        -0.1027
     11 C9          2.0666   -4.7202    1.5142 C.ar      1 <0>        -0.1211
     12 C10         1.2612   -3.6041    1.4191 C.ar      1 <0>        -0.0911
     13 C11        -4.1128   -0.8621    0.4882 C.3       1 <0>        -0.0336
     14 C12        -4.2976   -0.6131   -1.0100 C.3       1 <0>         0.0696
     15 O2         -5.6410   -0.1956   -1.2614 O.3       1 <0>        -0.3184
     16 C13        -5.9737    0.0687   -2.5523 C.ar      1 <0>         0.1131
     17 C14        -5.0287   -0.0762   -3.5578 C.ar      1 <0>        -0.2098
     18 C15        -5.3713    0.1933   -4.8672 C.ar      1 <0>        -0.0712
     19 C16        -6.6550    0.6086   -5.1824 C.ar      1 <0>        -0.0712
     20 C17        -7.5983    0.7538   -4.1821 C.ar      1 <0>        -0.0454
     21 C18        -7.2594    0.4782   -2.8687 C.ar      1 <0>        -0.1428
     22 C19        -8.9108    1.2143   -4.7795 C.3       1 <0>        -0.0683
     23 C20        -8.5500    1.7533   -6.1800 C.3       1 <0>        -0.1228
     24 C21        -7.2696    0.9615   -6.5201 C.3       1 <0>        -0.0201
     25 C22        -6.3082    1.8306   -7.3333 C.3       1 <0>        -0.1239
     26 C23        -5.0771    1.0073   -7.7173 C.3       1 <0>        -0.1041
     27 C24        -4.7418    0.8899   -9.2055 C.3       1 <0>        -0.1805
     28 C25        -5.3120   -0.3138   -8.4525 C.3       1 <0>        -0.1957
     29 C26        -5.8817    3.0164   -6.5069 C.2       1 <0>         0.5024
     30 O3         -4.8516    3.6096   -6.7780 O.co2     1 <0>        -0.7010
     31 O4         -6.5668    3.3827   -5.5672 O.co2     1 <0>        -0.6794
     32 H1         -0.6910    1.3789    1.3576 H         1 <0>         0.0804
     33 H2         -2.0234    1.4257    0.1783 H         1 <0>         0.0950
     34 H3         -2.3786    1.3028    1.9181 H         1 <0>         0.0934
     35 H4         -1.6739   -5.1424    0.6858 H         1 <0>         0.1389
     36 H5         -0.2174   -7.1177    0.8502 H         1 <0>         0.1321
     37 H6          2.1703   -6.8507    1.3784 H         1 <0>         0.1278
     38 H7          3.1154   -4.6096    1.7466 H         1 <0>         0.1302
     39 H8          1.6786   -2.6205    1.5761 H         1 <0>         0.1302
     40 H9         -4.8023   -1.6405    0.8149 H         1 <0>         0.0930
     41 H10        -4.3163    0.0573    1.0372 H         1 <0>         0.0924
     42 H11        -3.6081    0.1654   -1.3367 H         1 <0>         0.0599
     43 H12        -4.0941   -1.5325   -1.5590 H         1 <0>         0.0622
     44 H13        -4.0267   -0.3989   -3.3162 H         1 <0>         0.1168
     45 H14        -4.6355    0.0804   -5.6496 H         1 <0>         0.1212
     46 H15        -7.9975    0.5868   -2.0878 H         1 <0>         0.1192
     47 H16        -9.6028    0.3764   -4.8635 H         1 <0>         0.0653
     48 H17        -9.3465    2.0061   -4.1702 H         1 <0>         0.0699
     49 H18        -9.3426    1.5342   -6.8955 H         1 <0>         0.0504
     50 H19        -8.3454    2.8233   -6.1425 H         1 <0>         0.1141
     51 H20        -7.5205    0.0556   -7.0718 H         1 <0>         0.0631
     52 H21        -6.8089    2.1786   -8.2368 H         1 <0>         0.0629
     53 H22        -4.2444    1.0515   -7.0154 H         1 <0>         0.0999
     54 H23        -5.3983    1.3992   -9.9110 H         1 <0>         0.0864
     55 H24        -3.6883    0.8570   -9.4829 H         1 <0>         0.0844
     56 H25        -4.6334   -1.1386   -8.2345 H         1 <0>         0.0835
     57 H26        -6.3435   -0.5964   -8.6626 H         1 <0>         0.0877
@<TRIPOS>BOND
     1    1    2 1
     2    1   32 1
     3    1   33 1
     4    1   34 1
     5    2    6 1
     6    2    3 2
     7    3    4 1
     8    3   13 1
     9    4    5 2
    10    5    6 1
    11    5    7 1
    12    7   12 ar
    13    7    8 ar
    14    8    9 ar
    15    8   35 1
    16    9   10 ar
    17    9   36 1
    18   10   11 ar
    19   10   37 1
    20   11   12 ar
    21   11   38 1
    22   12   39 1
    23   13   14 1
    24   13   40 1
    25   13   41 1
    26   14   15 1
    27   14   42 1
    28   14   43 1
    29   15   16 1
    30   16   21 ar
    31   16   17 ar
    32   17   18 ar
    33   17   44 1
    34   18   19 ar
    35   18   45 1
    36   19   24 1
    37   19   20 ar
    38   20   21 ar
    39   20   22 1
    40   21   46 1
    41   22   23 1
    42   22   47 1
    43   22   48 1
    44   23   24 1
    45   23   49 1
    46   23   50 1
    47   24   25 1
    48   24   51 1
    49   25   26 1
    50   25   29 1
    51   25   52 1
    52   26   28 1
    53   26   27 1
    54   26   53 1
    55   27   28 1
    56   27   54 1
    57   27   55 1
    58   28   56 1
    59   28   57 1
    60   29   30 2
    61   29   31 1
@<TRIPOS>MOLECULE
CHEMBL372519__3
   57    61     0     0     0
SMALL
USER_CHARGES

@<TRIPOS>ATOM
      1 C1         -0.0184    1.5028    0.0103 C.3       1 <0>        -0.0723
      2 C2          0.0021   -0.0041    0.0020 C.2       1 <0>        -0.0315
      3 C3         -1.0705   -0.8164    0.0025 C.2       1 <0>        -0.0069
      4 N1         -0.6270   -2.0826   -0.0064 N.2       1 <0>        -0.4587
      5 C4          0.6851   -2.0676   -0.0123 C.2       1 <0>         0.2285
      6 O1          1.0981   -0.7883   -0.0131 O.3       1 <0>        -0.1932
      7 C5          1.5619   -3.2577   -0.0227 C.ar      1 <0>        -0.0169
      8 C6          1.0059   -4.5378   -0.0330 C.ar      1 <0>        -0.0708
      9 C7          1.8298   -5.6443   -0.0432 C.ar      1 <0>        -0.1206
     10 C8          3.2044   -5.4871   -0.0433 C.ar      1 <0>        -0.1013
     11 C9          3.7620   -4.2209   -0.0327 C.ar      1 <0>        -0.1212
     12 C10         2.9493   -3.1060   -0.0282 C.ar      1 <0>        -0.0906
     13 C11        -2.5133   -0.3814    0.0119 C.3       1 <0>        -0.0338
     14 C12        -3.0085   -0.2260   -1.4274 C.3       1 <0>         0.0694
     15 O2         -4.3766    0.1865   -1.4185 O.3       1 <0>        -0.3171
     16 C13        -4.9731    0.3716   -2.6255 C.ar      1 <0>         0.1168
     17 C14        -4.2586    0.1551   -3.7950 C.ar      1 <0>        -0.2104
     18 C15        -4.8687    0.3443   -5.0183 C.ar      1 <0>        -0.0728
     19 C16        -6.1918    0.7501   -5.0841 C.ar      1 <0>        -0.1037
     20 C17        -6.9058    0.9665   -3.9201 C.ar      1 <0>        -0.0628
     21 C18        -6.2985    0.7715   -2.6917 C.ar      1 <0>        -0.1428
     22 C19        -8.3163    1.3998   -4.2581 C.3       1 <0>        -0.0796
     23 C20        -8.2589    1.8460   -5.7345 C.3       1 <0>        -0.1115
     24 C21        -7.0742    1.0231   -6.2835 C.3       1 <0>        -0.0246
     25 C22        -6.3082    1.8306   -7.3333 C.3       1 <0>        -0.1149
     26 C23        -5.0991    1.0255   -7.8135 C.3       1 <0>        -0.1098
     27 C24        -3.7103    1.5390   -7.4282 C.3       1 <0>        -0.1943
     28 C25        -4.1993    1.6660   -8.8724 C.3       1 <0>        -0.1776
     29 C26        -7.2139    2.1221   -8.5020 C.2       1 <0>         0.5062
     30 O3         -7.4559    3.2760   -8.8127 O.co2     1 <0>        -0.7029
     31 O4         -7.7045    1.2042   -9.1369 O.co2     1 <0>        -0.6957
     32 H1          1.0042    1.8801    0.0026 H         1 <0>         0.0806
     33 H2         -0.5455    1.8639   -0.8728 H         1 <0>         0.0929
     34 H3         -0.5286    1.8543    0.9071 H         1 <0>         0.0931
     35 H4         -0.0670   -4.6619   -0.0326 H         1 <0>         0.1390
     36 H5          1.4008   -6.6354   -0.0508 H         1 <0>         0.1327
     37 H6          3.8450   -6.3565   -0.0513 H         1 <0>         0.1284
     38 H7          4.8357   -4.1050   -0.0321 H         1 <0>         0.1306
     39 H8          3.3858   -2.1181   -0.0249 H         1 <0>         0.1301
     40 H9         -3.1156   -1.1316    0.5243 H         1 <0>         0.0939
     41 H10        -2.6018    0.5726    0.5316 H         1 <0>         0.0924
     42 H11        -2.4061    0.5242   -1.9398 H         1 <0>         0.0602
     43 H12        -2.9200   -1.1800   -1.9471 H         1 <0>         0.0644
     44 H13        -3.2268   -0.1604   -3.7481 H         1 <0>         0.1206
     45 H14        -4.3122    0.1757   -5.9285 H         1 <0>         0.1385
     46 H15        -6.8575    0.9357   -1.7823 H         1 <0>         0.1228
     47 H16        -9.0067    0.5643   -4.1421 H         1 <0>         0.0786
     48 H17        -8.6187    2.2323   -3.6228 H         1 <0>         0.0720
     49 H18        -9.1825    1.5890   -6.2531 H         1 <0>         0.0762
     50 H19        -8.0560    2.9144   -5.8087 H         1 <0>         0.0745
     51 H20        -7.4307    0.0863   -6.7118 H         1 <0>         0.0868
     52 H21        -5.9689    2.7685   -6.8938 H         1 <0>         0.0610
     53 H22        -5.2417   -0.0541   -7.8605 H         1 <0>         0.0972
     54 H23        -3.6580    2.4503   -6.8325 H         1 <0>         0.0882
     55 H24        -2.9389    0.7971   -7.2214 H         1 <0>         0.0842
     56 H25        -3.7496    1.0076   -9.6157 H         1 <0>         0.0851
     57 H26        -4.4687    2.6609   -9.2268 H         1 <0>         0.0933
@<TRIPOS>BOND
     1    1    2 1
     2    1   32 1
     3    1   33 1
     4    1   34 1
     5    2    6 1
     6    2    3 2
     7    3    4 1
     8    3   13 1
     9    4    5 2
    10    5    6 1
    11    5    7 1
    12    7   12 ar
    13    7    8 ar
    14    8    9 ar
    15    8   35 1
    16    9   10 ar
    17    9   36 1
    18   10   11 ar
    19   10   37 1
    20   11   12 ar
    21   11   38 1
    22   12   39 1
    23   13   14 1
    24   13   40 1
    25   13   41 1
    26   14   15 1
    27   14   42 1
    28   14   43 1
    29   15   16 1
    30   16   21 ar
    31   16   17 ar
    32   17   18 ar
    33   17   44 1
    34   18   19 ar
    35   18   45 1
    36   19   24 1
    37   19   20 ar
    38   20   21 ar
    39   20   22 1
    40   21   46 1
    41   22   23 1
    42   22   47 1
    43   22   48 1
    44   23   24 1
    45   23   49 1
    46   23   50 1
    47   24   25 1
    48   24   51 1
    49   25   26 1
    50   25   29 1
    51   25   52 1
    52   26   28 1
    53   26   27 1
    54   26   53 1
    55   27   28 1
    56   27   54 1
    57   27   55 1
    58   28   56 1
    59   28   57 1
    60   29   30 2
    61   29   31 1
@<TRIPOS>MOLECULE
CHEMBL220597
   52    54     0     0     0
SMALL
USER_CHARGES

@<TRIPOS>ATOM
      1 C1         -0.0187    1.5258    0.0104 C.3       1 <0>        -0.1435
      2 C2          0.0021   -0.0041    0.0020 C.3       1 <0>         0.0657
      3 O1          0.6709   -0.4649   -1.1737 O.3       1 <0>        -0.3678
      4 C3          0.7457   -1.8880   -1.2798 C.3       1 <0>         0.0319
      5 C4          2.0114   -2.2764   -2.0467 C.3       1 <0>        -0.0556
      6 C5          3.2252   -1.8716   -1.2507 C.ar      1 <0>        -0.1462
      7 C6          3.7862   -0.6128   -1.4181 C.ar      1 <0>        -0.0252
      8 C7          4.9001   -0.2815   -0.6669 C.ar      1 <0>        -0.1889
      9 C8          5.4164   -1.2141    0.2240 C.ar      1 <0>         0.3037
     10 N1          4.8540   -2.4038    0.3551 N.ar      1 <0>        -0.5398
     11 C9          3.7879   -2.7465   -0.3431 C.ar      1 <0>         0.1334
     12 O2          6.5081   -0.9014    0.9663 O.3       1 <0>        -0.3097
     13 C10         6.9908   -1.9030    1.8640 C.3       1 <0>         0.0809
     14 C11         8.2176   -1.3723    2.6085 C.3       1 <0>        -0.0363
     15 C12         8.7265   -2.4286    3.5552 C.2       1 <0>        -0.0046
     16 C13         8.3455   -2.5958    4.8347 C.2       1 <0>        -0.0312
     17 O3          9.0355   -3.6451    5.3238 O.3       1 <0>        -0.1935
     18 C14         9.8284   -4.1065    4.3412 C.2       1 <0>         0.2279
     19 N2          9.6358   -3.3730    3.2704 N.2       1 <0>        -0.4582
     20 C15        10.7572   -5.2517    4.4475 C.ar      1 <0>        -0.0158
     21 C16        11.5336   -5.6285    3.3506 C.ar      1 <0>        -0.0709
     22 C17        12.3988   -6.6978    3.4566 C.ar      1 <0>        -0.1206
     23 C18        12.4978   -7.3962    4.6468 C.ar      1 <0>        -0.1018
     24 C19        11.7309   -7.0279    5.7379 C.ar      1 <0>        -0.1212
     25 C20        10.8657   -5.9571    5.6469 C.ar      1 <0>        -0.0908
     26 C21         7.3353   -1.7641    5.5822 C.3       1 <0>        -0.0721
     27 C22        -0.4650   -2.4012   -2.0158 C.2       1 <0>         0.4778
     28 O4         -1.2670   -1.6161   -2.4921 O.co2     1 <0>        -0.6787
     29 O5         -0.6427   -3.6015   -2.1348 O.co2     1 <0>        -0.6989
     30 H1          1.0039    1.9031    0.0027 H         1 <0>         0.0541
     31 H2         -0.5459    1.8868   -0.8726 H         1 <0>         0.0632
     32 H3         -0.5289    1.8773    0.9072 H         1 <0>         0.0602
     33 H4          0.5293   -0.3651    0.8851 H         1 <0>         0.0288
     34 H5         -1.0205   -0.3814    0.0098 H         1 <0>         0.0466
     35 H6          0.7769   -2.3256   -0.2819 H         1 <0>         0.0490
     36 H7          2.0237   -3.3548   -2.2050 H         1 <0>         0.0909
     37 H8          2.0227   -1.7676   -3.0106 H         1 <0>         0.0772
     38 H9          3.3631    0.0917   -2.1189 H         1 <0>         0.1430
     39 H10         5.3622    0.6890   -0.7721 H         1 <0>         0.1367
     40 H11         3.3529   -3.7255   -0.2061 H         1 <0>         0.1581
     41 H12         6.2102   -2.1537    2.5823 H         1 <0>         0.0646
     42 H13         7.2655   -2.7945    1.3001 H         1 <0>         0.0684
     43 H14         8.9981   -1.1217    1.8902 H         1 <0>         0.0925
     44 H15         7.9429   -0.4809    3.1724 H         1 <0>         0.0908
     45 H16        11.4570   -5.0844    2.4208 H         1 <0>         0.1389
     46 H17        12.9999   -6.9907    2.6084 H         1 <0>         0.1325
     47 H18        13.1763   -8.2328    4.7244 H         1 <0>         0.1282
     48 H19        11.8126   -7.5774    6.6641 H         1 <0>         0.1305
     49 H20        10.2709   -5.6678    6.5006 H         1 <0>         0.1301
     50 H21         6.3432   -2.1979    5.4566 H         1 <0>         0.0892
     51 H22         7.5922   -1.7455    6.6413 H         1 <0>         0.0807
     52 H23         7.3396   -0.7474    5.1893 H         1 <0>         0.0959
@<TRIPOS>BOND
     1    1    2 1
     2    1   30 1
     3    1   31 1
     4    1   32 1
     5    2    3 1
     6    2   33 1
     7    2   34 1
     8    3    4 1
     9    4    5 1
    10    4   27 1
    11    4   35 1
    12    5    6 1
    13    5   36 1
    14    5   37 1
    15    6   11 ar
    16    6    7 ar
    17    7    8 ar
    18    7   38 1
    19    8    9 ar
    20    8   39 1
    21    9   10 ar
    22    9   12 1
    23   10   11 ar
    24   11   40 1
    25   12   13 1
    26   13   14 1
    27   13   41 1
    28   13   42 1
    29   14   15 1
    30   14   43 1
    31   14   44 1
    32   15   19 1
    33   15   16 2
    34   16   17 1
    35   16   26 1
    36   17   18 1
    37   18   19 2
    38   18   20 1
    39   20   25 ar
    40   20   21 ar
    41   21   22 ar
    42   21   45 1
    43   22   23 ar
    44   22   46 1
    45   23   24 ar
    46   23   47 1
    47   24   25 ar
    48   24   48 1
    49   25   49 1
    50   26   50 1
    51   26   51 1
    52   26   52 1
    53   27   28 2
    54   27   29 1
@<TRIPOS>MOLECULE
CHEMBL220597__1
   52    54     0     0     0
SMALL
USER_CHARGES

@<TRIPOS>ATOM
      1 C1         -0.0187    1.5258    0.0104 C.3       1 <0>        -0.1437
      2 C2          0.0021   -0.0041    0.0020 C.3       1 <0>         0.0664
      3 O1          0.6709   -0.4649   -1.1737 O.3       1 <0>        -0.3679
      4 C3          0.7457   -1.8880   -1.2798 C.3       1 <0>         0.0320
      5 C4          0.7554   -2.2896   -2.7561 C.3       1 <0>        -0.0555
      6 C5         -0.5593   -1.9112   -3.3882 C.ar      1 <0>        -0.1474
      7 C6         -1.6208   -2.8059   -3.3885 C.ar      1 <0>        -0.0443
      8 C7         -2.8106   -2.4181   -3.9793 C.ar      1 <0>        -0.1894
      9 C8         -2.9020   -1.1543   -4.5487 C.ar      1 <0>         0.3038
     10 N1         -1.8680   -0.3299   -4.5290 N.ar      1 <0>        -0.5395
     11 C9         -0.7227   -0.6692   -3.9681 C.ar      1 <0>         0.1533
     12 O2         -4.0630   -0.7621   -5.1310 O.3       1 <0>        -0.3100
     13 C10        -4.0935    0.5489   -5.6987 C.3       1 <0>         0.0809
     14 C11        -5.4740    0.8105   -6.3042 C.3       1 <0>        -0.0362
     15 C12        -5.5062    2.1931   -6.9029 C.2       1 <0>        -0.0046
     16 C13        -5.8585    3.3245   -6.2656 C.2       1 <0>        -0.0310
     17 O3         -5.7517    4.3334   -7.1529 O.3       1 <0>        -0.1935
     18 C14        -5.3367    3.8095   -8.3192 C.2       1 <0>         0.2278
     19 N2         -5.1832    2.5155   -8.1645 N.2       1 <0>        -0.4582
     20 C15        -5.0894    4.5652   -9.5654 C.ar      1 <0>        -0.0157
     21 C16        -4.6644    3.8994  -10.7162 C.ar      1 <0>        -0.0709
     22 C17        -4.4358    4.6105  -11.8761 C.ar      1 <0>        -0.1207
     23 C18        -4.6270    5.9806  -11.9002 C.ar      1 <0>        -0.1019
     24 C19        -5.0481    6.6466  -10.7630 C.ar      1 <0>        -0.1212
     25 C20        -5.2854    5.9467   -9.5981 C.ar      1 <0>        -0.0907
     26 C21        -6.2922    3.4418   -4.8272 C.3       1 <0>        -0.0722
     27 C22         2.0091   -2.3753   -0.6184 C.2       1 <0>         0.4778
     28 O4          2.2218   -3.5716   -0.5170 O.co2     1 <0>        -0.6995
     29 O5          2.8185   -1.5733   -0.1846 O.co2     1 <0>        -0.6782
     30 H1          1.0039    1.9031    0.0027 H         1 <0>         0.0634
     31 H2         -0.5459    1.8868   -0.8726 H         1 <0>         0.0537
     32 H3         -0.5289    1.8773    0.9072 H         1 <0>         0.0601
     33 H4          0.5293   -0.3651    0.8851 H         1 <0>         0.0468
     34 H5         -1.0205   -0.3814    0.0098 H         1 <0>         0.0286
     35 H6         -0.1179   -2.3349   -0.7873 H         1 <0>         0.0489
     36 H7          1.5669   -1.7723   -3.2680 H         1 <0>         0.0776
     37 H8          0.9017   -3.3665   -2.8387 H         1 <0>         0.0905
     38 H9         -1.5203   -3.7824   -2.9382 H         1 <0>         0.1411
     39 H10        -3.6566   -3.0891   -3.9977 H         1 <0>         0.1368
     40 H11         0.0987    0.0320   -3.9669 H         1 <0>         0.1602
     41 H12        -3.8920    1.2862   -4.9216 H         1 <0>         0.0651
     42 H13        -3.3347    0.6254   -6.4775 H         1 <0>         0.0685
     43 H14        -5.6755    0.0733   -7.0814 H         1 <0>         0.0924
     44 H15        -6.2328    0.7340   -5.5254 H         1 <0>         0.0907
     45 H16        -4.5145    2.8300  -10.6985 H         1 <0>         0.1389
     46 H17        -4.1066    4.0966  -12.7671 H         1 <0>         0.1324
     47 H18        -4.4463    6.5326  -12.8107 H         1 <0>         0.1281
     48 H19        -5.1951    7.7163  -10.7884 H         1 <0>         0.1304
     49 H20        -5.6184    6.4671   -8.7122 H         1 <0>         0.1301
     50 H21        -5.4195    3.6150   -4.1975 H         1 <0>         0.0895
     51 H22        -6.9862    4.2760   -4.7238 H         1 <0>         0.0806
     52 H23        -6.7847    2.5192   -4.5198 H         1 <0>         0.0958
@<TRIPOS>BOND
     1    1    2 1
     2    1   30 1
     3    1   31 1
     4    1   32 1
     5    2    3 1
     6    2   33 1
     7    2   34 1
     8    3    4 1
     9    4    5 1
    10    4   27 1
    11    4   35 1
    12    5    6 1
    13    5   36 1
    14    5   37 1
    15    6   11 ar
    16    6    7 ar
    17    7    8 ar
    18    7   38 1
    19    8    9 ar
    20    8   39 1
    21    9   10 ar
    22    9   12 1
    23   10   11 ar
    24   11   40 1
    25   12   13 1
    26   13   14 1
    27   13   41 1
    28   13   42 1
    29   14   15 1
    30   14   43 1
    31   14   44 1
    32   15   19 1
    33   15   16 2
    34   16   17 1
    35   16   26 1
    36   17   18 1
    37   18   19 2
    38   18   20 1
    39   20   25 ar
    40   20   21 ar
    41   21   22 ar
    42   21   45 1
    43   22   23 ar
    44   22   46 1
    45   23   24 ar
    46   23   47 1
    47   24   25 ar
    48   24   48 1
    49   25   49 1
    50   26   50 1
    51   26   51 1
    52   26   52 1
    53   27   28 2
    54   27   29 1
@<TRIPOS>MOLECULE
CHEMBL426878
   54    56     0     0     0
SMALL
USER_CHARGES

@<TRIPOS>ATOM
      1 C1         -1.4787    1.2401   -0.0112 C.3       1 <0>        -0.1247
      2 C2         -1.0146   -0.1936   -0.0150 C.ar      1 <0>        -0.0358
      3 C3         -0.7046   -0.8155   -1.2091 C.ar      1 <0>        -0.1922
      4 C4         -0.2774   -2.1355   -1.2119 C.ar      1 <0>         0.1217
      5 C5         -0.1627   -2.8277   -0.0145 C.ar      1 <0>        -0.1468
      6 C6         -0.4739   -2.2012    1.1764 C.ar      1 <0>        -0.0693
      7 C7         -0.8941   -0.8837    1.1769 C.ar      1 <0>        -0.1113
      8 C8         -1.2266   -0.2007    2.4784 C.3       1 <0>        -0.0771
      9 C9         -2.7306   -0.3046    2.7393 C.3       1 <0>         0.0771
     10 O1         -3.0459    0.3431    3.9734 O.3       1 <0>        -0.3115
     11 C10        -4.3479    0.3414    4.3549 C.ar      1 <0>         0.3030
     12 C11        -4.7177    0.9602    5.5424 C.ar      1 <0>        -0.1903
     13 C12        -6.0490    0.9518    5.9198 C.ar      1 <0>        -0.0444
     14 C13        -6.9680    0.3216    5.0918 C.ar      1 <0>        -0.1479
     15 C14        -6.5296   -0.2733    3.9257 C.ar      1 <0>         0.1528
     16 N1         -5.2538   -0.2445    3.5899 N.ar      1 <0>        -0.5391
     17 C15        -8.4284    0.2868    5.4621 C.3       1 <0>        -0.0558
     18 C16        -9.1321    1.5132    4.8776 C.3       1 <0>         0.0299
     19 C17       -10.5631    1.5435    5.3493 C.2       1 <0>         0.4778
     20 O2        -10.8116    1.6939    6.5334 O.co2     1 <0>        -0.6990
     21 O3        -11.4722    1.4177    4.5467 O.co2     1 <0>        -0.6787
     22 O4         -9.1023    1.4444    3.4506 O.3       1 <0>        -0.3713
     23 C18        -9.0831    2.7204    2.8075 C.3       1 <0>         0.0446
     24 O5          0.0277   -2.7496   -2.3850 O.3       1 <0>        -0.2571
     25 C19        -0.0925   -2.0305   -3.5317 C.ar      1 <0>         0.0995
     26 C20         0.9867   -1.3014   -4.0111 C.ar      1 <0>        -0.1220
     27 C21         0.8626   -0.5710   -5.1768 C.ar      1 <0>        -0.0929
     28 C22        -0.3358   -0.5650   -5.8665 C.ar      1 <0>        -0.1088
     29 C23        -1.4137   -1.2909   -5.3911 C.ar      1 <0>        -0.0222
     30 C24        -1.2923   -2.0285   -4.2278 C.ar      1 <0>        -0.1185
     31 Cl1        -2.9171   -1.2807   -6.2590 Cl        1 <0>        -0.0563
     32 H1         -0.6161    1.9010    0.0737 H         1 <0>         0.0753
     33 H2         -2.0094    1.4527   -0.9392 H         1 <0>         0.0687
     34 H3         -2.1463    1.4037    0.8348 H         1 <0>         0.0756
     35 H4         -0.7951   -0.2748   -2.1395 H         1 <0>         0.1274
     36 H5          0.1692   -3.8554   -0.0140 H         1 <0>         0.1335
     37 H6         -0.3848   -2.7395    2.1085 H         1 <0>         0.1338
     38 H7         -0.6828   -0.6826    3.2909 H         1 <0>         0.0820
     39 H8         -0.9394    0.8493    2.4215 H         1 <0>         0.0831
     40 H9         -3.2744    0.1773    1.9268 H         1 <0>         0.0666
     41 H10        -3.0178   -1.3546    2.7962 H         1 <0>         0.0662
     42 H11        -3.9760    1.4410    6.1629 H         1 <0>         0.1363
     43 H12        -6.3659    1.4245    6.8377 H         1 <0>         0.1409
     44 H13        -7.2405   -0.7649    3.2781 H         1 <0>         0.1607
     45 H14        -8.8834   -0.6188    5.0610 H         1 <0>         0.0779
     46 H15        -8.5282    0.2935    6.5475 H         1 <0>         0.0906
     47 H16        -8.6212    2.4174    5.2086 H         1 <0>         0.0497
     48 H17        -9.0609    2.5821    1.7265 H         1 <0>         0.0725
     49 H18        -9.9767    3.2800    3.0839 H         1 <0>         0.0402
     50 H19        -8.1972    3.2723    3.1215 H         1 <0>         0.0222
     51 H20         1.9230   -1.3049   -3.4728 H         1 <0>         0.1383
     52 H21         1.7025   -0.0037   -5.5499 H         1 <0>         0.1418
     53 H22        -0.4309    0.0073   -6.7774 H         1 <0>         0.1401
     54 H23        -2.1321   -2.5990   -3.8593 H         1 <0>         0.1434
@<TRIPOS>BOND
     1    1    2 1
     2    1   32 1
     3    1   33 1
     4    1   34 1
     5    2    7 ar
     6    2    3 ar
     7    3    4 ar
     8    3   35 1
     9    4    5 ar
    10    4   24 1
    11    5    6 ar
    12    5   36 1
    13    6    7 ar
    14    6   37 1
    15    7    8 1
    16    8    9 1
    17    8   38 1
    18    8   39 1
    19    9   10 1
    20    9   40 1
    21    9   41 1
    22   10   11 1
    23   11   16 ar
    24   11   12 ar
    25   12   13 ar
    26   12   42 1
    27   13   14 ar
    28   13   43 1
    29   14   15 ar
    30   14   17 1
    31   15   16 ar
    32   15   44 1
    33   17   18 1
    34   17   45 1
    35   17   46 1
    36   18   19 1
    37   18   22 1
    38   18   47 1
    39   19   20 2
    40   19   21 1
    41   22   23 1
    42   23   48 1
    43   23   49 1
    44   23   50 1
    45   24   25 1
    46   25   30 ar
    47   25   26 ar
    48   26   27 ar
    49   26   51 1
    50   27   28 ar
    51   27   52 1
    52   28   29 ar
    53   28   53 1
    54   29   30 ar
    55   29   31 1
    56   30   54 1
@<TRIPOS>MOLECULE
CHEMBL426878__1
   54    56     0     0     0
SMALL
USER_CHARGES

@<TRIPOS>ATOM
      1 C1         -1.4787    1.2401   -0.0112 C.3       1 <0>        -0.1247
      2 C2         -1.0146   -0.1936   -0.0150 C.ar      1 <0>        -0.0360
      3 C3         -0.7046   -0.8155   -1.2091 C.ar      1 <0>        -0.1923
      4 C4         -0.2774   -2.1355   -1.2119 C.ar      1 <0>         0.1217
      5 C5         -0.1627   -2.8277   -0.0145 C.ar      1 <0>        -0.1467
      6 C6         -0.4739   -2.2012    1.1764 C.ar      1 <0>        -0.0693
      7 C7         -0.8941   -0.8837    1.1769 C.ar      1 <0>        -0.1113
      8 C8         -1.2266   -0.2007    2.4784 C.3       1 <0>        -0.0772
      9 C9         -2.7306   -0.3046    2.7393 C.3       1 <0>         0.0771
     10 O1         -3.0459    0.3431    3.9734 O.3       1 <0>        -0.3112
     11 C10        -4.3479    0.3414    4.3549 C.ar      1 <0>         0.3029
     12 C11        -4.7177    0.9602    5.5424 C.ar      1 <0>        -0.1897
     13 C12        -6.0490    0.9518    5.9198 C.ar      1 <0>        -0.0260
     14 C13        -6.9680    0.3216    5.0918 C.ar      1 <0>        -0.1468
     15 C14        -6.5296   -0.2733    3.9257 C.ar      1 <0>         0.1335
     16 N1         -5.2538   -0.2445    3.5899 N.ar      1 <0>        -0.5392
     17 C15        -8.4284    0.2868    5.4621 C.3       1 <0>        -0.0558
     18 C16        -9.1321    1.5132    4.8776 C.3       1 <0>         0.0299
     19 C17       -10.6125    1.4166    5.1424 C.2       1 <0>         0.4777
     20 O2        -11.1560    2.2300    5.8701 O.co2     1 <0>        -0.6793
     21 O3        -11.2667    0.5251    4.6290 O.co2     1 <0>        -0.6982
     22 O4         -8.6148    2.6961    5.4900 O.3       1 <0>        -0.3715
     23 C18        -8.6439    3.8483    4.6452 C.3       1 <0>         0.0441
     24 O5          0.0277   -2.7496   -2.3850 O.3       1 <0>        -0.2571
     25 C19        -0.0925   -2.0305   -3.5317 C.ar      1 <0>         0.0995
     26 C20         0.9867   -1.3014   -4.0111 C.ar      1 <0>        -0.1220
     27 C21         0.8626   -0.5710   -5.1768 C.ar      1 <0>        -0.0928
     28 C22        -0.3358   -0.5650   -5.8665 C.ar      1 <0>        -0.1088
     29 C23        -1.4137   -1.2909   -5.3911 C.ar      1 <0>        -0.0222
     30 C24        -1.2923   -2.0285   -4.2278 C.ar      1 <0>        -0.1186
     31 Cl1        -2.9171   -1.2807   -6.2590 Cl        1 <0>        -0.0564
     32 H1         -0.6161    1.9010    0.0737 H         1 <0>         0.0755
     33 H2         -2.0094    1.4527   -0.9392 H         1 <0>         0.0685
     34 H3         -2.1463    1.4037    0.8348 H         1 <0>         0.0756
     35 H4         -0.7951   -0.2748   -2.1395 H         1 <0>         0.1273
     36 H5          0.1692   -3.8554   -0.0140 H         1 <0>         0.1335
     37 H6         -0.3848   -2.7395    2.1085 H         1 <0>         0.1339
     38 H7         -0.6828   -0.6826    3.2909 H         1 <0>         0.0821
     39 H8         -0.9394    0.8493    2.4215 H         1 <0>         0.0832
     40 H9         -3.2744    0.1773    1.9268 H         1 <0>         0.0661
     41 H10        -3.0178   -1.3546    2.7962 H         1 <0>         0.0660
     42 H11        -3.9760    1.4410    6.1629 H         1 <0>         0.1364
     43 H12        -6.3659    1.4245    6.8377 H         1 <0>         0.1429
     44 H13        -7.2405   -0.7649    3.2781 H         1 <0>         0.1584
     45 H14        -8.8834   -0.6188    5.0610 H         1 <0>         0.0912
     46 H15        -8.5282    0.2935    6.5475 H         1 <0>         0.0772
     47 H16        -8.9572    1.5544    3.8025 H         1 <0>         0.0500
     48 H17        -8.2348    4.7036    5.1830 H         1 <0>         0.0726
     49 H18        -8.0461    3.6601    3.7534 H         1 <0>         0.0224
     50 H19        -9.6730    4.0601    4.3549 H         1 <0>         0.0402
     51 H20         1.9230   -1.3049   -3.4728 H         1 <0>         0.1384
     52 H21         1.7025   -0.0037   -5.5499 H         1 <0>         0.1418
     53 H22        -0.4309    0.0073   -6.7774 H         1 <0>         0.1401
     54 H23        -2.1321   -2.5990   -3.8593 H         1 <0>         0.1433
@<TRIPOS>BOND
     1    1    2 1
     2    1   32 1
     3    1   33 1
     4    1   34 1
     5    2    7 ar
     6    2    3 ar
     7    3    4 ar
     8    3   35 1
     9    4    5 ar
    10    4   24 1
    11    5    6 ar
    12    5   36 1
    13    6    7 ar
    14    6   37 1
    15    7    8 1
    16    8    9 1
    17    8   38 1
    18    8   39 1
    19    9   10 1
    20    9   40 1
    21    9   41 1
    22   10   11 1
    23   11   16 ar
    24   11   12 ar
    25   12   13 ar
    26   12   42 1
    27   13   14 ar
    28   13   43 1
    29   14   15 ar
    30   14   17 1
    31   15   16 ar
    32   15   44 1
    33   17   18 1
    34   17   45 1
    35   17   46 1
    36   18   19 1
    37   18   22 1
    38   18   47 1
    39   19   20 2
    40   19   21 1
    41   22   23 1
    42   23   48 1
    43   23   49 1
    44   23   50 1
    45   24   25 1
    46   25   30 ar
    47   25   26 ar
    48   26   27 ar
    49   26   51 1
    50   27   28 ar
    51   27   52 1
    52   28   29 ar
    53   28   53 1
    54   29   30 ar
    55   29   31 1
    56   30   54 1
@<TRIPOS>MOLECULE
CHEMBL223350
   62    65     0     0     0
SMALL
USER_CHARGES

@<TRIPOS>ATOM
      1 C1         -0.0184    1.5028    0.0103 C.3       1 <0>        -0.0727
      2 C2          0.0021   -0.0041    0.0020 C.2       1 <0>        -0.0308
      3 C3         -1.0705   -0.8164    0.0025 C.2       1 <0>        -0.0081
      4 N1         -0.6270   -2.0826   -0.0064 N.2       1 <0>        -0.4591
      5 C4          0.6851   -2.0676   -0.0123 C.2       1 <0>         0.2294
      6 O1          1.0981   -0.7883   -0.0131 O.3       1 <0>        -0.1929
      7 C5          1.5619   -3.2577   -0.0227 C.ar      1 <0>        -0.0176
      8 C6          1.0059   -4.5378   -0.0330 C.ar      1 <0>        -0.0707
      9 C7          1.8298   -5.6443   -0.0432 C.ar      1 <0>        -0.1206
     10 C8          3.2044   -5.4871   -0.0433 C.ar      1 <0>        -0.1009
     11 C9          3.7620   -4.2209   -0.0327 C.ar      1 <0>        -0.1211
     12 C10         2.9493   -3.1060   -0.0282 C.ar      1 <0>        -0.0904
     13 C11        -2.5133   -0.3814    0.0119 C.3       1 <0>        -0.0337
     14 C12        -3.0085   -0.2260   -1.4274 C.3       1 <0>         0.0681
     15 O2         -4.3766    0.1865   -1.4185 O.3       1 <0>        -0.3150
     16 C13        -4.9731    0.3716   -2.6255 C.ar      1 <0>         0.1107
     17 C14        -4.2579    0.1549   -3.7946 C.ar      1 <0>        -0.1905
     18 C15        -4.8665    0.3431   -5.0201 C.ar      1 <0>        -0.0827
     19 C16        -6.1876    0.7473   -5.0825 C.ar      1 <0>        -0.0751
     20 C17        -6.9022    0.9643   -3.9192 C.ar      1 <0>        -0.0785
     21 C18        -6.2996    0.7718   -2.6908 C.ar      1 <0>        -0.1229
     22 C19        -8.3415    1.4051   -3.9909 C.3       1 <0>         0.1790
     23 N2         -9.1951    0.2444   -4.2557 N.am      1 <0>        -0.6947
     24 C20       -10.5297    0.3996   -4.3618 C.2       1 <0>         0.6392
     25 O3        -11.0249    1.5022   -4.2378 O.2       1 <0>        -0.5047
     26 O4        -11.3147   -0.6678   -4.6053 O.3       1 <0>        -0.2858
     27 C21       -12.6533   -0.4651   -4.7044 C.ar      1 <0>         0.2761
     28 C22       -13.5042   -1.5375   -4.9492 C.ar      1 <0>         0.0562
     29 N3        -14.8053   -1.3372   -5.0446 N.ar      1 <0>        -0.4098
     30 C23       -15.2996   -0.1185   -4.9075 C.ar      1 <0>         0.0147
     31 C24       -14.4561    0.9492   -4.6646 C.ar      1 <0>         0.0863
     32 N4        -13.1524    0.7540   -4.5626 N.ar      1 <0>        -0.4314
     33 C25        -6.8492    0.9520   -6.4210 C.3       1 <0>        -0.0625
     34 C26        -6.7596    2.4280   -6.8138 C.3       1 <0>        -0.1756
     35 C27        -7.4212    2.6326   -8.1522 C.2       1 <0>         0.4900
     36 O5         -7.9183    1.6857   -8.7377 O.co2     1 <0>        -0.6978
     37 O6         -7.4593    3.7451   -8.6496 O.co2     1 <0>        -0.7047
     38 H1          1.0042    1.8801    0.0026 H         1 <0>         0.0809
     39 H2         -0.5455    1.8639   -0.8728 H         1 <0>         0.0929
     40 H3         -0.5286    1.8543    0.9071 H         1 <0>         0.0934
     41 H4         -0.0670   -4.6619   -0.0326 H         1 <0>         0.1389
     42 H5          1.4008   -6.6354   -0.0508 H         1 <0>         0.1328
     43 H6          3.8450   -6.3565   -0.0513 H         1 <0>         0.1286
     44 H7          4.8357   -4.1050   -0.0321 H         1 <0>         0.1308
     45 H8          3.3858   -2.1181   -0.0249 H         1 <0>         0.1302
     46 H9         -3.1156   -1.1316    0.5243 H         1 <0>         0.0945
     47 H10        -2.6018    0.5726    0.5316 H         1 <0>         0.0930
     48 H11        -2.4061    0.5242   -1.9398 H         1 <0>         0.0614
     49 H12        -2.9200   -1.1800   -1.9471 H         1 <0>         0.0655
     50 H13        -3.2261   -0.1604   -3.7464 H         1 <0>         0.1242
     51 H14        -4.3102    0.1749   -5.9304 H         1 <0>         0.1280
     52 H15        -6.8596    0.9372   -1.7823 H         1 <0>         0.1312
     53 H16        -8.6299    1.8596   -3.0430 H         1 <0>         0.0808
     54 H17        -8.4589    2.1332   -4.7935 H         1 <0>         0.0944
     55 H18        -8.7998   -0.6359   -4.3547 H         1 <0>         0.4082
     56 H19       -13.1008   -2.5330   -5.0616 H         1 <0>         0.1800
     57 H20       -16.3645    0.0431   -4.9859 H         1 <0>         0.1748
     58 H21       -14.8628    1.9436   -4.5538 H         1 <0>         0.1755
     59 H22        -6.3444    0.3447   -7.1724 H         1 <0>         0.0716
     60 H23        -7.8962    0.6557   -6.3578 H         1 <0>         0.0740
     61 H24        -7.2643    3.0352   -6.0624 H         1 <0>         0.0578
     62 H25        -5.7125    2.7242   -6.8770 H         1 <0>         0.0574
@<TRIPOS>BOND
     1    1    2 1
     2    1   38 1
     3    1   39 1
     4    1   40 1
     5    2    6 1
     6    2    3 2
     7    3    4 1
     8    3   13 1
     9    4    5 2
    10    5    6 1
    11    5    7 1
    12    7   12 ar
    13    7    8 ar
    14    8    9 ar
    15    8   41 1
    16    9   10 ar
    17    9   42 1
    18   10   11 ar
    19   10   43 1
    20   11   12 ar
    21   11   44 1
    22   12   45 1
    23   13   14 1
    24   13   46 1
    25   13   47 1
    26   14   15 1
    27   14   48 1
    28   14   49 1
    29   15   16 1
    30   16   21 ar
    31   16   17 ar
    32   17   18 ar
    33   17   50 1
    34   18   19 ar
    35   18   51 1
    36   19   20 ar
    37   19   33 1
    38   20   21 ar
    39   20   22 1
    40   21   52 1
    41   22   23 1
    42   22   53 1
    43   22   54 1
    44   23   24 am
    45   23   55 1
    46   24   25 2
    47   24   26 1
    48   26   27 1
    49   27   32 ar
    50   27   28 ar
    51   28   29 ar
    52   28   56 1
    53   29   30 ar
    54   30   31 ar
    55   30   57 1
    56   31   32 ar
    57   31   58 1
    58   33   34 1
    59   33   59 1
    60   33   60 1
    61   34   35 1
    62   34   61 1
    63   34   62 1
    64   35   36 2
    65   35   37 1
@<TRIPOS>MOLECULE
CHEMBL551420
   56    58     0     0     0
SMALL
USER_CHARGES

@<TRIPOS>ATOM
      1 C1         -0.0187    1.5258    0.0104 C.3       1 <0>        -0.1499
      2 C2          0.0021   -0.0041    0.0020 C.3       1 <0>        -0.1245
      3 C3         -1.4333   -0.5336    0.0129 C.3       1 <0>        -0.1214
      4 C4         -1.4126   -2.0635    0.0045 C.3       1 <0>        -0.0829
      5 C5         -2.8479   -2.5931    0.0153 C.3       1 <0>        -0.1389
      6 C6         -2.8282   -4.0955    0.1309 C.2       1 <0>         0.4965
      7 O1         -2.7499   -4.6215    1.2280 O.co2     1 <0>        -0.6897
      8 O2         -2.8905   -4.7850   -0.8727 O.co2     1 <0>        -0.6648
      9 S1         -3.6802   -2.1159   -1.5243 S.3       1 <0>        -0.1063
     10 C7         -5.3403   -2.6611   -1.2981 C.ar      1 <0>        -0.0874
     11 C8         -5.7105   -3.2900   -0.1159 C.ar      1 <0>        -0.0802
     12 C9         -7.0119   -3.7168    0.0602 C.ar      1 <0>        -0.1263
     13 C10        -7.9494   -3.5180   -0.9426 C.ar      1 <0>         0.1049
     14 C11        -7.5809   -2.8902   -2.1234 C.ar      1 <0>        -0.1927
     15 C12        -6.2814   -2.4574   -2.2994 C.ar      1 <0>        -0.0747
     16 O3         -9.2307   -3.9392   -0.7682 O.3       1 <0>        -0.3144
     17 C13       -10.1435   -3.7020   -1.8418 C.3       1 <0>         0.0652
     18 C14       -11.5250   -4.2408   -1.4652 C.3       1 <0>        -0.1195
     19 C15       -12.5023   -3.9868   -2.6147 C.3       1 <0>         0.0619
     20 O4        -13.7926   -4.4900   -2.2629 O.3       1 <0>        -0.3085
     21 C16       -14.7835   -4.3433   -3.1813 C.ar      1 <0>         0.1385
     22 C17       -14.5057   -3.7265   -4.4052 C.ar      1 <0>        -0.1730
     23 C18       -15.4756   -3.5650   -5.3444 C.ar      1 <0>        -0.0507
     24 C19       -16.7806   -4.0229   -5.0881 C.ar      1 <0>         0.0936
     25 C20       -17.0621   -4.6481   -3.8476 C.ar      1 <0>        -0.0631
     26 C21       -16.0380   -4.8051   -2.9006 C.ar      1 <0>        -0.1481
     27 C22       -18.3693   -5.1051   -3.5949 C.ar      1 <0>        -0.0662
     28 C23       -19.3142   -4.9236   -4.5645 C.ar      1 <0>        -0.1653
     29 C24       -18.9705   -4.3010   -5.7622 C.ar      1 <0>         0.1167
     30 N1        -17.7519   -3.8769   -5.9944 N.ar      1 <0>        -0.4653
     31 H1          1.0039    1.9031    0.0027 H         1 <0>         0.0491
     32 H2         -0.5459    1.8868   -0.8726 H         1 <0>         0.0526
     33 H3         -0.5289    1.8773    0.9072 H         1 <0>         0.0516
     34 H4          0.5123   -0.3556   -0.8948 H         1 <0>         0.0600
     35 H5          0.5293   -0.3651    0.8851 H         1 <0>         0.0595
     36 H6         -1.9435   -0.1821    0.9097 H         1 <0>         0.0595
     37 H7         -1.9605   -0.1726   -0.8702 H         1 <0>         0.0686
     38 H8         -0.9024   -2.4150   -0.8923 H         1 <0>         0.0669
     39 H9         -0.8854   -2.4246    0.8875 H         1 <0>         0.0753
     40 H10        -3.3848   -2.1704    0.8646 H         1 <0>         0.0813
     41 H11        -4.9807   -3.4452    0.6648 H         1 <0>         0.1377
     42 H12        -7.2998   -4.2061    0.9790 H         1 <0>         0.1291
     43 H13        -8.3115   -2.7362   -2.9037 H         1 <0>         0.1247
     44 H14        -5.9958   -1.9646   -3.2170 H         1 <0>         0.1252
     45 H15       -10.2106   -2.6307   -2.0316 H         1 <0>         0.0632
     46 H16        -9.7883   -4.2084   -2.7393 H         1 <0>         0.0640
     47 H17       -11.4579   -5.3120   -1.2754 H         1 <0>         0.0873
     48 H18       -11.8802   -3.7344   -0.5677 H         1 <0>         0.0865
     49 H19       -12.5694   -2.9155   -2.8045 H         1 <0>         0.0687
     50 H20       -12.1471   -4.4932   -3.5122 H         1 <0>         0.0692
     51 H21       -13.5056   -3.3726   -4.6074 H         1 <0>         0.1392
     52 H22       -15.2446   -3.0861   -6.2844 H         1 <0>         0.1415
     53 H23       -16.2416   -5.2843   -1.9545 H         1 <0>         0.1391
     54 H24       -18.6181   -5.5861   -2.6605 H         1 <0>         0.1401
     55 H25       -20.3267   -5.2628   -4.4028 H         1 <0>         0.1382
     56 H26       -19.7280   -4.1642   -6.5197 H         1 <0>         0.1589
@<TRIPOS>BOND
     1    1    2 1
     2    1   31 1
     3    1   32 1
     4    1   33 1
     5    2    3 1
     6    2   34 1
     7    2   35 1
     8    3    4 1
     9    3   36 1
    10    3   37 1
    11    4    5 1
    12    4   38 1
    13    4   39 1
    14    5    6 1
    15    5    9 1
    16    5   40 1
    17    6    7 2
    18    6    8 1
    19    9   10 1
    20   10   15 ar
    21   10   11 ar
    22   11   12 ar
    23   11   41 1
    24   12   13 ar
    25   12   42 1
    26   13   14 ar
    27   13   16 1
    28   14   15 ar
    29   14   43 1
    30   15   44 1
    31   16   17 1
    32   17   18 1
    33   17   45 1
    34   17   46 1
    35   18   19 1
    36   18   47 1
    37   18   48 1
    38   19   20 1
    39   19   49 1
    40   19   50 1
    41   20   21 1
    42   21   26 ar
    43   21   22 ar
    44   22   23 ar
    45   22   51 1
    46   23   24 ar
    47   23   52 1
    48   24   30 ar
    49   24   25 ar
    50   25   26 ar
    51   25   27 ar
    52   26   53 1
    53   27   28 ar
    54   27   54 1
    55   28   29 ar
    56   28   55 1
    57   29   30 ar
    58   29   56 1
@<TRIPOS>MOLECULE
CHEMBL551420__1
   56    58     0     0     0
SMALL
USER_CHARGES

@<TRIPOS>ATOM
      1 C1         -0.0187    1.5258    0.0104 C.3       1 <0>        -0.1499
      2 C2          0.0021   -0.0041    0.0020 C.3       1 <0>        -0.1242
      3 C3         -1.4333   -0.5336    0.0129 C.3       1 <0>        -0.1231
      4 C4         -1.4126   -2.0635    0.0045 C.3       1 <0>        -0.0809
      5 C5         -2.8479   -2.5931    0.0153 C.3       1 <0>        -0.1364
      6 C6         -2.8306   -4.0942   -0.1167 C.2       1 <0>         0.5021
      7 O1         -2.1133   -4.7617    0.6088 O.co2     1 <0>        -0.6690
      8 O2         -3.5337   -4.6411   -0.9492 O.co2     1 <0>        -0.6811
      9 S1         -3.6506   -2.1326    1.5756 S.3       1 <0>        -0.1179
     10 C7         -5.3148   -2.6755    1.3753 C.ar      1 <0>        -0.1095
     11 C8         -5.7048   -3.3018    0.1982 C.ar      1 <0>        -0.0867
     12 C9         -7.0094   -3.7268    0.0423 C.ar      1 <0>        -0.1294
     13 C10        -7.9303   -3.5286    1.0604 C.ar      1 <0>         0.1085
     14 C11        -7.5421   -2.9033    2.2362 C.ar      1 <0>        -0.2013
     15 C12        -6.2366   -2.4826    2.3965 C.ar      1 <0>        -0.0719
     16 O3         -9.2150   -3.9472    0.9056 O.3       1 <0>        -0.3143
     17 C13       -10.1100   -3.7107    1.9942 C.3       1 <0>         0.0651
     18 C14       -11.4984   -4.2463    1.6386 C.3       1 <0>        -0.1195
     19 C15       -12.4567   -3.9931    2.8041 C.3       1 <0>         0.0620
     20 O4        -13.7534   -4.4933    2.4719 O.3       1 <0>        -0.3085
     21 C16       -14.7292   -4.3469    3.4064 C.ar      1 <0>         0.1385
     22 C17       -14.4335   -3.7231    4.6225 C.ar      1 <0>        -0.1730
     23 C18       -15.3880   -3.5617    5.5773 C.ar      1 <0>        -0.0508
     24 C19       -16.6950   -4.0268    5.3454 C.ar      1 <0>         0.0935
     25 C20       -16.9947   -4.6591    4.1128 C.ar      1 <0>        -0.0631
     26 C21       -15.9889   -4.8058    3.1448 C.ar      1 <0>        -0.1481
     27 C22       -18.3038   -5.1232    3.8844 C.ar      1 <0>        -0.0662
     28 C23       -19.2330   -4.9415    4.8691 C.ar      1 <0>        -0.1653
     29 C24       -18.8719   -4.3118    6.0579 C.ar      1 <0>         0.1166
     30 N1        -17.6517   -3.8804    6.2672 N.ar      1 <0>        -0.4654
     31 H1          1.0039    1.9031    0.0027 H         1 <0>         0.0489
     32 H2         -0.5459    1.8868   -0.8726 H         1 <0>         0.0513
     33 H3         -0.5289    1.8773    0.9072 H         1 <0>         0.0525
     34 H4          0.5123   -0.3556   -0.8948 H         1 <0>         0.0589
     35 H5          0.5293   -0.3651    0.8851 H         1 <0>         0.0606
     36 H6         -1.9435   -0.1821    0.9097 H         1 <0>         0.0685
     37 H7         -1.9605   -0.1726   -0.8702 H         1 <0>         0.0581
     38 H8         -0.9024   -2.4150   -0.8923 H         1 <0>         0.0697
     39 H9         -0.8854   -2.4246    0.8875 H         1 <0>         0.0744
     40 H10        -3.4008   -2.1613   -0.8189 H         1 <0>         0.0817
     41 H11        -4.9880   -3.4560   -0.5948 H         1 <0>         0.1740
     42 H12        -7.3128   -4.2135   -0.8729 H         1 <0>         0.1291
     43 H13        -8.2600   -2.7491    3.0281 H         1 <0>         0.1235
     44 H14        -5.9334   -1.9998    3.3138 H         1 <0>         0.1233
     45 H15        -9.7414   -4.2198    2.8848 H         1 <0>         0.0635
     46 H16       -10.1722   -2.6398    2.1875 H         1 <0>         0.0629
     47 H17       -11.8670   -3.7372    0.7480 H         1 <0>         0.0866
     48 H18       -11.4362   -5.3172    1.4453 H         1 <0>         0.0873
     49 H19       -12.0881   -4.5022    3.6947 H         1 <0>         0.0690
     50 H20       -12.5189   -2.9222    2.9974 H         1 <0>         0.0686
     51 H21       -13.4316   -3.3643    4.8063 H         1 <0>         0.1391
     52 H22       -15.1432   -3.0781    6.5114 H         1 <0>         0.1414
     53 H23       -16.2086   -5.2820    2.2007 H         1 <0>         0.1391
     54 H24       -18.5664   -5.6091    2.9563 H         1 <0>         0.1401
     55 H25       -20.2467   -5.2854    4.7259 H         1 <0>         0.1382
     56 H26       -19.6170   -4.1749    6.8276 H         1 <0>         0.1589
@<TRIPOS>BOND
     1    1    2 1
     2    1   31 1
     3    1   32 1
     4    1   33 1
     5    2    3 1
     6    2   34 1
     7    2   35 1
     8    3    4 1
     9    3   36 1
    10    3   37 1
    11    4    5 1
    12    4   38 1
    13    4   39 1
    14    5    6 1
    15    5    9 1
    16    5   40 1
    17    6    7 2
    18    6    8 1
    19    9   10 1
    20   10   15 ar
    21   10   11 ar
    22   11   12 ar
    23   11   41 1
    24   12   13 ar
    25   12   42 1
    26   13   14 ar
    27   13   16 1
    28   14   15 ar
    29   14   43 1
    30   15   44 1
    31   16   17 1
    32   17   18 1
    33   17   45 1
    34   17   46 1
    35   18   19 1
    36   18   47 1
    37   18   48 1
    38   19   20 1
    39   19   49 1
    40   19   50 1
    41   20   21 1
    42   21   26 ar
    43   21   22 ar
    44   22   23 ar
    45   22   51 1
    46   23   24 ar
    47   23   52 1
    48   24   30 ar
    49   24   25 ar
    50   25   26 ar
    51   25   27 ar
    52   26   53 1
    53   27   28 ar
    54   27   54 1
    55   28   29 ar
    56   28   55 1
    57   29   30 ar
    58   29   56 1
@<TRIPOS>MOLECULE
CHEMBL223351
   66    68     0     0     0
SMALL
USER_CHARGES

@<TRIPOS>ATOM
      1 C1         -0.0184    1.5028    0.0103 C.3       1 <0>        -0.0561
      2 C2          0.0021   -0.0041    0.0020 C.2       1 <0>        -0.2288
      3 C3         -1.0296   -0.8819    0.0016 C.2       1 <0>         0.1068
      4 N1         -0.7246   -2.1676   -0.0067 N.2       1 <0>        -0.5811
      5 C4          0.5290   -2.5681   -0.0141 C.2       1 <0>         0.3216
      6 S1          1.3926   -1.1237   -0.0179 S.3       1 <0>         0.0712
      7 N2          1.0190   -3.8647   -0.0226 N.pl3     1 <0>        -0.5745
      8 C5          0.1066   -5.0193   -0.0304 C.3       1 <0>         0.0954
      9 C6          0.5322   -5.9641   -1.1601 C.3       1 <0>         0.0458
     10 O1          1.9254   -6.2568   -1.0292 O.3       1 <0>        -0.3767
     11 C7          2.7774   -5.1157   -1.1545 C.3       1 <0>         0.0472
     12 C8          2.4669   -4.1273   -0.0303 C.3       1 <0>         0.0923
     13 C9         -2.4617   -0.4129    0.0107 C.3       1 <0>        -0.0414
     14 C10        -2.9529   -0.2460   -1.4287 C.3       1 <0>         0.0719
     15 O2         -4.3109    0.1987   -1.4201 O.3       1 <0>        -0.3158
     16 C11        -4.9026    0.3976   -2.6272 C.ar      1 <0>         0.1117
     17 C12        -4.1926    0.1639   -3.7961 C.ar      1 <0>        -0.1919
     18 C13        -4.7964    0.3664   -5.0218 C.ar      1 <0>        -0.0831
     19 C14        -6.1075    0.8016   -5.0845 C.ar      1 <0>        -0.0766
     20 C15        -6.8170    1.0355   -3.9212 C.ar      1 <0>        -0.0769
     21 C16        -6.2193    0.8290   -2.6928 C.ar      1 <0>        -0.1245
     22 C17        -8.2455    1.5102   -3.9932 C.3       1 <0>         0.1775
     23 N3         -9.1262    0.3699   -4.2581 N.am      1 <0>        -0.6992
     24 C18       -10.4568    0.5565   -4.3644 C.2       1 <0>         0.6486
     25 O3        -10.9258    1.6705   -4.2406 O.2       1 <0>        -0.5696
     26 O4        -11.2662   -0.4915   -4.6078 O.3       1 <0>        -0.3611
     27 C19       -12.6657   -0.2207   -4.7082 C.3       1 <0>         0.0958
     28 C20       -13.3127   -1.2269   -5.6621 C.3       1 <0>        -0.1499
     29 C21       -13.3092   -0.3423   -3.3255 C.3       1 <0>        -0.1699
     30 C22        -6.7639    1.0216   -6.4230 C.3       1 <0>        -0.0621
     31 C23        -6.6394    2.4951   -6.8160 C.3       1 <0>        -0.1756
     32 C24        -7.2958    2.7152   -8.1546 C.2       1 <0>         0.4901
     33 O5         -7.8150    1.7802   -8.7400 O.co2     1 <0>        -0.6977
     34 O6         -7.3076    3.8282   -8.6521 O.co2     1 <0>        -0.7052
     35 H1          1.0042    1.8801    0.0026 H         1 <0>         0.0707
     36 H2         -0.5455    1.8639   -0.8728 H         1 <0>         0.0784
     37 H3         -0.5286    1.8543    0.9071 H         1 <0>         0.0788
     38 H4          0.1652   -5.5399    0.9254 H         1 <0>         0.0767
     39 H5         -0.9146   -4.6789   -0.2017 H         1 <0>         0.1045
     40 H6         -0.0416   -6.8888   -1.0969 H         1 <0>         0.1110
     41 H7          0.3494   -5.4864   -2.1226 H         1 <0>         0.0588
     42 H8          3.8190   -5.4299   -1.0873 H         1 <0>         0.1125
     43 H9          2.6028   -4.6349   -2.1170 H         1 <0>         0.0593
     44 H10         3.0079   -3.1967   -0.2014 H         1 <0>         0.0905
     45 H11         2.7672   -4.5567    0.9255 H         1 <0>         0.0848
     46 H12        -3.0817   -1.1486    0.5231 H         1 <0>         0.0893
     47 H13        -2.5278    0.5430    0.5303 H         1 <0>         0.0912
     48 H14        -2.3329    0.4897   -1.9411 H         1 <0>         0.0615
     49 H15        -2.8868   -1.2019   -1.9483 H         1 <0>         0.0625
     50 H16        -3.1685   -0.1756   -3.7477 H         1 <0>         0.1235
     51 H17        -4.2440    0.1850   -5.9319 H         1 <0>         0.1270
     52 H18        -6.7754    1.0076   -1.7843 H         1 <0>         0.1304
     53 H19        -8.5233    1.9714   -3.0455 H         1 <0>         0.0780
     54 H20        -8.3456    2.2407   -4.7960 H         1 <0>         0.0923
     55 H21        -8.7518   -0.5195   -4.3569 H         1 <0>         0.4072
     56 H22       -12.8139    0.7893   -5.0904 H         1 <0>         0.0873
     57 H23       -13.1646   -2.2369   -5.2800 H         1 <0>         0.0648
     58 H24       -14.3802   -1.0204   -5.7387 H         1 <0>         0.0771
     59 H25       -12.8543   -1.1403   -6.6472 H         1 <0>         0.0677
     60 H26       -13.1610   -1.3523   -2.9433 H         1 <0>         0.0623
     61 H27       -12.8483    0.3745   -2.6459 H         1 <0>         0.0617
     62 H28       -14.3767   -0.1358   -3.4021 H         1 <0>         0.0719
     63 H29        -6.2735    0.4026   -7.1743 H         1 <0>         0.0707
     64 H30        -7.8176    0.7502   -6.3600 H         1 <0>         0.0748
     65 H31        -7.1298    3.1141   -6.0647 H         1 <0>         0.0577
     66 H32        -5.5857    2.7666   -6.8790 H         1 <0>         0.0570
@<TRIPOS>BOND
     1    1    2 1
     2    1   35 1
     3    1   36 1
     4    1   37 1
     5    2    6 1
     6    2    3 2
     7    3    4 1
     8    3   13 1
     9    4    5 2
    10    5    6 1
    11    5    7 1
    12    7   12 1
    13    7    8 1
    14    8    9 1
    15    8   38 1
    16    8   39 1
    17    9   10 1
    18    9   40 1
    19    9   41 1
    20   10   11 1
    21   11   12 1
    22   11   42 1
    23   11   43 1
    24   12   44 1
    25   12   45 1
    26   13   14 1
    27   13   46 1
    28   13   47 1
    29   14   15 1
    30   14   48 1
    31   14   49 1
    32   15   16 1
    33   16   21 ar
    34   16   17 ar
    35   17   18 ar
    36   17   50 1
    37   18   19 ar
    38   18   51 1
    39   19   20 ar
    40   19   30 1
    41   20   21 ar
    42   20   22 1
    43   21   52 1
    44   22   23 1
    45   22   53 1
    46   22   54 1
    47   23   24 am
    48   23   55 1
    49   24   25 2
    50   24   26 1
    51   26   27 1
    52   27   28 1
    53   27   29 1
    54   27   56 1
    55   28   57 1
    56   28   58 1
    57   28   59 1
    58   29   60 1
    59   29   61 1
    60   29   62 1
    61   30   31 1
    62   30   63 1
    63   30   64 1
    64   31   32 1
    65   31   65 1
    66   31   66 1
    67   32   33 2
    68   32   34 1
@<TRIPOS>MOLECULE
CHEMBL223351__1
   67    69     0     0     0
SMALL
USER_CHARGES

@<TRIPOS>ATOM
      1 C1         -0.0184    1.5028    0.0103 C.3       1 <0>        -0.0795
      2 C2          0.0021   -0.0041    0.0020 C.2       1 <0>        -0.1458
      3 C3         -1.0296   -0.8819    0.0016 C.2       1 <0>         0.0681
      4 N1         -0.7246   -2.1676   -0.0067 N.pl3     1 <0>        -0.5420
      5 C4          0.5290   -2.5682   -0.0137 C.cat     1 <0>         0.3099
      6 S1          1.3926   -1.1237   -0.0179 S.3       1 <0>         0.3161
      7 N2          1.0190   -3.8647   -0.0217 N.pl3     1 <0>        -0.5330
      8 C5          0.1066   -5.0193   -0.0294 C.3       1 <0>         0.0632
      9 C6          0.5325   -5.9645   -1.1587 C.3       1 <0>         0.0461
     10 O1          1.9256   -6.2571   -1.0273 O.3       1 <0>        -0.3612
     11 C7          2.7777   -5.1160   -1.1528 C.3       1 <0>         0.0439
     12 C8          2.4669   -4.1273   -0.0289 C.3       1 <0>         0.0734
     13 C9         -2.4617   -0.4129    0.0107 C.3       1 <0>        -0.0661
     14 C10        -2.9137   -0.1265   -1.4227 C.3       1 <0>         0.0633
     15 O2         -4.2717    0.3181   -1.4141 O.3       1 <0>        -0.3115
     16 C11        -4.8306    0.6173   -2.6162 C.ar      1 <0>         0.0980
     17 C12        -4.0890    0.4801   -3.7808 C.ar      1 <0>        -0.1919
     18 C13        -4.6594    0.7844   -5.0013 C.ar      1 <0>        -0.0838
     19 C14        -5.9686    1.2254   -5.0633 C.ar      1 <0>        -0.0647
     20 C15        -6.7095    1.3634   -3.9043 C.ar      1 <0>        -0.0719
     21 C16        -6.1453    1.0548   -2.6814 C.ar      1 <0>        -0.1171
     22 C17        -8.1358    1.8447   -3.9754 C.3       1 <0>         0.1746
     23 N3         -9.0084    0.7317   -4.3576 N.am      1 <0>        -0.7018
     24 C18       -10.3357    0.9287   -4.4841 C.2       1 <0>         0.6488
     25 O3        -10.8086    2.0295   -4.2812 O.2       1 <0>        -0.5658
     26 O4        -11.1376   -0.0942   -4.8353 O.3       1 <0>        -0.3615
     27 C19       -12.5340    0.1863   -4.9509 C.3       1 <0>         0.0979
     28 C20       -12.8500    0.6211   -6.3833 C.3       1 <0>        -0.1754
     29 C21       -13.3366   -1.0711   -4.6108 C.3       1 <0>        -0.1481
     30 C22        -6.5885    1.5567   -6.3963 C.3       1 <0>        -0.0666
     31 C23        -6.4543    3.0574   -6.6623 C.3       1 <0>        -0.1757
     32 C24        -7.0743    3.3886   -7.9954 C.2       1 <0>         0.4890
     33 O5         -7.5768    2.5062   -8.6701 O.co2     1 <0>        -0.6958
     34 O6         -7.0732    4.5391   -8.3991 O.co2     1 <0>        -0.7012
     35 H1          1.0042    1.8801    0.0026 H         1 <0>         0.0959
     36 H2         -0.5455    1.8639   -0.8728 H         1 <0>         0.1053
     37 H3         -0.5286    1.8543    0.9071 H         1 <0>         0.1065
     38 H4          0.1650   -5.5397    0.9265 H         1 <0>         0.1149
     39 H5         -0.9146   -4.6790   -0.2010 H         1 <0>         0.0956
     40 H6         -0.0413   -6.8891   -1.0954 H         1 <0>         0.1294
     41 H7          0.3499   -5.4870   -2.1214 H         1 <0>         0.0689
     42 H8          3.8193   -5.4302   -1.0852 H         1 <0>         0.1321
     43 H9          2.6033   -4.6355   -2.1155 H         1 <0>         0.0701
     44 H10         3.0079   -3.1967   -0.2002 H         1 <0>         0.1074
     45 H11         2.7669   -4.5564    0.9271 H         1 <0>         0.1167
     46 H12        -3.0949   -1.1875    0.4434 H         1 <0>         0.1032
     47 H13        -2.5424    0.4967    0.6057 H         1 <0>         0.1273
     48 H14        -2.2805    0.6480   -1.8554 H         1 <0>         0.0734
     49 H15        -2.8330   -1.0362   -2.0177 H         1 <0>         0.0611
     50 H16        -3.0663    0.1360   -3.7329 H         1 <0>         0.1199
     51 H17        -4.0824    0.6781   -5.9081 H         1 <0>         0.1301
     52 H18        -6.7260    1.1585   -1.7767 H         1 <0>         0.1330
     53 H19        -8.4395    2.2263   -3.0006 H         1 <0>         0.0797
     54 H20        -8.2145    2.6394   -4.7173 H         1 <0>         0.0947
     55 H21        -8.6309   -0.1470   -4.5195 H         1 <0>         0.4061
     56 H22       -12.8022    0.9862   -4.2608 H         1 <0>         0.0852
     57 H23       -13.9152    0.8351   -6.4714 H         1 <0>         0.0733
     58 H24       -12.2783    1.5169   -6.6256 H         1 <0>         0.0677
     59 H25       -12.5818   -0.1788   -7.0734 H         1 <0>         0.0656
     60 H26       -13.1114   -1.3809   -3.5903 H         1 <0>         0.0615
     61 H27       -14.4017   -0.8572   -4.6989 H         1 <0>         0.0791
     62 H28       -13.0684   -1.8711   -5.3009 H         1 <0>         0.0667
     63 H29        -6.0776    1.0012   -7.1827 H         1 <0>         0.0733
     64 H30        -7.6435    1.2826   -6.3846 H         1 <0>         0.0782
     65 H31        -6.9653    3.6129   -5.8759 H         1 <0>         0.0582
     66 H32        -5.3994    3.3314   -6.6741 H         1 <0>         0.0568
     67 H33        -1.4362   -2.8268   -0.0072 H         1 <0>         0.4314
@<TRIPOS>BOND
     1    1    2 1
     2    1   35 1
     3    1   36 1
     4    1   37 1
     5    2    6 1
     6    2    3 2
     7    3    4 1
     8    3   13 1
     9    4    5 2
    10    4   67 1
    11    5    6 1
    12    5    7 1
    13    7   12 1
    14    7    8 1
    15    8    9 1
    16    8   38 1
    17    8   39 1
    18    9   10 1
    19    9   40 1
    20    9   41 1
    21   10   11 1
    22   11   12 1
    23   11   42 1
    24   11   43 1
    25   12   44 1
    26   12   45 1
    27   13   14 1
    28   13   46 1
    29   13   47 1
    30   14   15 1
    31   14   48 1
    32   14   49 1
    33   15   16 1
    34   16   21 ar
    35   16   17 ar
    36   17   18 ar
    37   17   50 1
    38   18   19 ar
    39   18   51 1
    40   19   20 ar
    41   19   30 1
    42   20   21 ar
    43   20   22 1
    44   21   52 1
    45   22   23 1
    46   22   53 1
    47   22   54 1
    48   23   24 am
    49   23   55 1
    50   24   25 2
    51   24   26 1
    52   26   27 1
    53   27   28 1
    54   27   29 1
    55   27   56 1
    56   28   57 1
    57   28   58 1
    58   28   59 1
    59   29   60 1
    60   29   61 1
    61   29   62 1
    62   30   31 1
    63   30   63 1
    64   30   64 1
    65   31   32 1
    66   31   65 1
    67   31   66 1
    68   32   33 2
    69   32   34 1
@<TRIPOS>MOLECULE
CHEMBL187557
   63    64     0     0     0
SMALL
USER_CHARGES

@<TRIPOS>ATOM
      1 C1          2.7141   -2.9068   -0.0661 C.3       1 <0>        -0.1427
      2 C2          1.5756   -3.8018   -0.5599 C.3       1 <0>        -0.1028
      3 C3          1.4737   -3.7034   -2.0833 C.3       1 <0>        -0.0792
      4 C4          0.2704   -4.4770   -2.5573 C.ar      1 <0>        -0.1184
      5 C5          0.4344   -5.7036   -3.1477 C.ar      1 <0>        -0.0485
      6 C6         -0.6846   -6.4217   -3.5872 C.ar      1 <0>        -0.1942
      7 C7         -1.9662   -5.8823   -3.4210 C.ar      1 <0>        -0.0634
      8 C8         -2.1193   -4.6548   -2.8294 C.ar      1 <0>        -0.1138
      9 C9         -1.0050   -3.9482   -2.3898 C.ar      1 <0>         0.1545
     10 O1         -1.1623   -2.7366   -1.8000 O.3       1 <0>        -0.2959
     11 C10        -0.7859   -1.5893   -2.5641 C.3       1 <0>         0.0670
     12 H1         -0.2504   -1.9080   -3.4584 H         1 <0>         0.0617
     13 C11        -2.0214   -0.8248   -2.9642 C.ar      1 <0>        -0.0623
     14 C12        -3.0603   -0.6709   -2.0653 C.ar      1 <0>        -0.0873
     15 C13        -4.1937    0.0303   -2.4323 C.ar      1 <0>        -0.1209
     16 C14        -4.2879    0.5781   -3.6980 C.ar      1 <0>        -0.0863
     17 C15        -3.2487    0.4250   -4.5965 C.ar      1 <0>        -0.1172
     18 C16        -2.1135   -0.2726   -4.2281 C.ar      1 <0>        -0.1047
     19 C17        -5.5239    1.3417   -4.0984 C.3       1 <0>        -0.0523
     20 C18        -5.1401    2.7763   -4.4668 C.3       1 <0>        -0.1437
     21 C19        -6.1748    0.6621   -5.3047 C.3       1 <0>        -0.1423
     22 C20         0.1062   -0.7031   -1.7335 C.2       1 <0>         0.5044
     23 O2          0.6437    0.2671   -2.2399 O.co2     1 <0>        -0.6855
     24 O3          0.2904   -0.9562   -0.5552 O.co2     1 <0>        -0.6547
     25 C21        -3.4979   -4.0731   -2.6498 C.3       1 <0>        -0.0752
     26 C22        -3.9517   -3.4235   -3.9587 C.3       1 <0>        -0.1190
     27 C23        -5.3948   -2.9367   -3.8128 C.3       1 <0>        -0.1467
     28 C24        -0.5147   -7.7357   -4.2207 C.2       1 <0>         0.3998
     29 O4          0.5963   -8.2008   -4.3640 O.2       1 <0>        -0.4618
     30 C25        -1.7208   -8.5062   -4.6928 C.3       1 <0>        -0.1702
     31 C26        -1.2697   -9.8315   -5.3101 C.3       1 <0>        -0.1429
     32 H2          3.6637   -3.2844   -0.4453 H         1 <0>         0.0345
     33 H3          2.5582   -1.8894   -0.4249 H         1 <0>         0.0735
     34 H4          2.7314   -2.9090    1.0238 H         1 <0>         0.0455
     35 H5          1.7758   -4.8347   -0.2751 H         1 <0>         0.0416
     36 H6          0.6370   -3.4766   -0.1112 H         1 <0>         0.0823
     37 H7          1.3709   -2.6578   -2.3738 H         1 <0>         0.0829
     38 H8          2.3741   -4.1193   -2.5353 H         1 <0>         0.0610
     39 H9          1.4250   -6.1151   -3.2739 H         1 <0>         0.1306
     40 H10        -2.8324   -6.4319   -3.7586 H         1 <0>         0.1288
     41 H11        -2.9867   -1.0989   -1.0765 H         1 <0>         0.1227
     42 H12        -5.0056    0.1499   -1.7303 H         1 <0>         0.1133
     43 H13        -3.3225    0.8527   -5.5855 H         1 <0>         0.1133
     44 H14        -1.3000   -0.3890   -4.9288 H         1 <0>         0.1145
     45 H15        -6.2276    1.3563   -3.2661 H         1 <0>         0.0723
     46 H16        -6.0340    3.3286   -4.7564 H         1 <0>         0.0522
     47 H17        -4.6763    3.2604   -3.6074 H         1 <0>         0.0561
     48 H18        -4.4364    2.7617   -5.2991 H         1 <0>         0.0558
     49 H19        -6.4483   -0.3598   -5.0423 H         1 <0>         0.0559
     50 H20        -7.0688    1.2145   -5.5943 H         1 <0>         0.0517
     51 H21        -5.4711    0.6476   -6.1371 H         1 <0>         0.0551
     52 H22        -4.1942   -4.8661   -2.3772 H         1 <0>         0.0659
     53 H23        -3.4753   -3.3220   -1.8602 H         1 <0>         0.0841
     54 H24        -3.3042   -2.5772   -4.1880 H         1 <0>         0.0710
     55 H25        -3.8945   -4.1539   -4.7657 H         1 <0>         0.0529
     56 H26        -5.7182   -2.4739   -4.7452 H         1 <0>         0.0501
     57 H27        -6.0424   -3.7830   -3.5835 H         1 <0>         0.0461
     58 H28        -5.4521   -2.2063   -3.0058 H         1 <0>         0.0592
     59 H29        -2.3790   -8.7048   -3.8469 H         1 <0>         0.0974
     60 H30        -2.2562   -7.9208   -5.4402 H         1 <0>         0.0973
     61 H31        -0.6115   -9.6329   -6.1560 H         1 <0>         0.0590
     62 H32        -0.7343  -10.4169   -4.5627 H         1 <0>         0.0591
     63 H33        -2.1420  -10.3888   -5.6516 H         1 <0>         0.0589
@<TRIPOS>BOND
     1    1    2 1
     2    1   32 1
     3    1   33 1
     4    1   34 1
     5    2    3 1
     6    2   35 1
     7    2   36 1
     8    3    4 1
     9    3   37 1
    10    3   38 1
    11    4    9 ar
    12    4    5 ar
    13    5    6 ar
    14    5   39 1
    15    6    7 ar
    16    6   28 1
    17    7    8 ar
    18    7   40 1
    19    8    9 ar
    20    8   25 1
    21    9   10 1
    22   10   11 1
    23   11   12 1
    24   11   13 1
    25   11   22 1
    26   13   18 ar
    27   13   14 ar
    28   14   15 ar
    29   14   41 1
    30   15   16 ar
    31   15   42 1
    32   16   17 ar
    33   16   19 1
    34   17   18 ar
    35   17   43 1
    36   18   44 1
    37   19   20 1
    38   19   21 1
    39   19   45 1
    40   20   46 1
    41   20   47 1
    42   20   48 1
    43   21   49 1
    44   21   50 1
    45   21   51 1
    46   22   23 2
    47   22   24 1
    48   25   26 1
    49   25   52 1
    50   25   53 1
    51   26   27 1
    52   26   54 1
    53   26   55 1
    54   27   56 1
    55   27   57 1
    56   27   58 1
    57   28   29 2
    58   28   30 1
    59   30   31 1
    60   30   59 1
    61   30   60 1
    62   31   61 1
    63   31   62 1
    64   31   63 1
@<TRIPOS>MOLECULE
CHEMBL484137
   56    59     0     0     0
SMALL
USER_CHARGES

@<TRIPOS>ATOM
      1 C1         -0.0184    1.5028    0.0103 C.3       1 <0>        -0.0749
      2 C2          0.0021   -0.0041    0.0020 C.2       1 <0>        -0.0200
      3 C3         -1.0705   -0.8164    0.0025 C.2       1 <0>        -0.0076
      4 N1         -0.6270   -2.0826   -0.0064 N.2       1 <0>        -0.4479
      5 C4          0.6851   -2.0676   -0.0123 C.2       1 <0>         0.2159
      6 O1          1.0981   -0.7883   -0.0131 O.3       1 <0>        -0.1900
      7 C5          1.5619   -3.2577   -0.0227 C.ar      1 <0>         0.0216
      8 C6          1.0059   -4.5378   -0.0330 C.ar      1 <0>        -0.0733
      9 C7          1.8298   -5.6443   -0.0432 C.ar      1 <0>        -0.0682
     10 C8          3.2044   -5.4871   -0.0433 C.ar      1 <0>        -0.1697
     11 C9          3.7620   -4.2209   -0.0327 C.ar      1 <0>        -0.0688
     12 C10         2.9493   -3.1060   -0.0282 C.ar      1 <0>        -0.0927
     13 C11         4.0982   -6.7003   -0.0544 C.3       1 <0>         0.5086
     14 F1          4.3735   -7.0646   -1.3768 F         1 <0>        -0.1735
     15 F2          5.2952   -6.4038    0.6063 F         1 <0>        -0.1756
     16 F3          3.4559   -7.7588    0.5968 F         1 <0>        -0.1747
     17 C12        -2.5133   -0.3814    0.0119 C.3       1 <0>        -0.0343
     18 C13        -3.0085   -0.2260   -1.4274 C.3       1 <0>         0.0656
     19 O2         -4.3766    0.1865   -1.4185 O.3       1 <0>        -0.3115
     20 C14        -4.9730    0.3715   -2.6253 C.ar      1 <0>         0.1591
     21 C15        -4.2582    0.1550   -3.7797 C.ar      1 <0>        -0.2168
     22 C16        -4.8347    0.3345   -5.0292 C.ar      1 <0>        -0.0625
     23 C17        -6.1519    0.7379   -5.1202 C.ar      1 <0>        -0.0572
     24 C18        -6.8814    0.9584   -3.9707 C.ar      1 <0>        -0.0624
     25 C19        -6.3302    0.7810   -2.6843 C.ar      1 <0>        -0.1205
     26 C20        -7.2476    1.0535   -1.5875 C.2       1 <0>        -0.1285
     27 C21        -8.5035    1.4337   -1.8611 C.2       1 <0>        -0.1874
     28 S1         -8.5491    1.4681   -3.6429 S.3       1 <0>         0.0911
     29 C22        -6.7902    0.9370   -6.4708 C.3       1 <0>        -0.0618
     30 C23        -6.6934    2.4113   -6.8682 C.3       1 <0>         0.0302
     31 H1         -5.6521    2.7308   -6.8283 H         1 <0>         0.0494
     32 C24        -7.2203    2.5896   -8.2688 C.2       1 <0>         0.4782
     33 O3         -8.2261    3.2510   -8.4622 O.co2     1 <0>        -0.6778
     34 O4         -6.6407    2.0725   -9.2086 O.co2     1 <0>        -0.7004
     35 O5         -7.4687    3.2004   -5.9636 O.3       1 <0>        -0.3619
     36 C25        -6.9698    4.5260   -5.7741 C.3       1 <0>         0.0449
     37 H2          1.0042    1.8801    0.0026 H         1 <0>         0.0826
     38 H3         -0.5455    1.8639   -0.8728 H         1 <0>         0.0949
     39 H4         -0.5286    1.8543    0.9071 H         1 <0>         0.0953
     40 H5         -0.0670   -4.6619   -0.0326 H         1 <0>         0.1524
     41 H6          1.4008   -6.6354   -0.0508 H         1 <0>         0.1471
     42 H7          4.8357   -4.1050   -0.0321 H         1 <0>         0.1451
     43 H8          3.3858   -2.1181   -0.0249 H         1 <0>         0.1440
     44 H9         -3.1156   -1.1316    0.5243 H         1 <0>         0.0957
     45 H10        -2.6018    0.5726    0.5316 H         1 <0>         0.0939
     46 H11        -2.4061    0.5242   -1.9398 H         1 <0>         0.0626
     47 H12        -2.9200   -1.1800   -1.9471 H         1 <0>         0.0672
     48 H13        -3.2275   -0.1606   -3.7127 H         1 <0>         0.1266
     49 H14        -4.2565    0.1600   -5.9246 H         1 <0>         0.1358
     50 H15        -6.9198    0.9500   -0.5637 H         1 <0>         0.1307
     51 H16        -9.2967    1.6698   -1.1673 H         1 <0>         0.1831
     52 H17        -6.2727    0.3265   -7.2108 H         1 <0>         0.0924
     53 H18        -7.8383    0.6412   -6.4245 H         1 <0>         0.0748
     54 H19        -5.9571    4.4792   -5.3735 H         1 <0>         0.0207
     55 H20        -6.9586    5.0501   -6.7297 H         1 <0>         0.0384
     56 H21        -7.6130    5.0597   -5.0745 H         1 <0>         0.0722
@<TRIPOS>BOND
     1    1    2 1
     2    1   37 1
     3    1   38 1
     4    1   39 1
     5    2    6 1
     6    2    3 2
     7    3    4 1
     8    3   17 1
     9    4    5 2
    10    5    6 1
    11    5    7 1
    12    7   12 ar
    13    7    8 ar
    14    8    9 ar
    15    8   40 1
    16    9   10 ar
    17    9   41 1
    18   10   11 ar
    19   10   13 1
    20   11   12 ar
    21   11   42 1
    22   12   43 1
    23   13   14 1
    24   13   15 1
    25   13   16 1
    26   17   18 1
    27   17   44 1
    28   17   45 1
    29   18   19 1
    30   18   46 1
    31   18   47 1
    32   19   20 1
    33   20   25 ar
    34   20   21 ar
    35   21   22 ar
    36   21   48 1
    37   22   23 ar
    38   22   49 1
    39   23   24 ar
    40   23   29 1
    41   24   28 1
    42   24   25 ar
    43   25   26 1
    44   26   27 2
    45   26   50 1
    46   27   28 1
    47   27   51 1
    48   29   30 1
    49   29   52 1
    50   29   53 1
    51   30   31 1
    52   30   32 1
    53   30   35 1
    54   32   33 2
    55   32   34 1
    56   35   36 1
    57   36   54 1
    58   36   55 1
    59   36   56 1
@<TRIPOS>MOLECULE
CHEMBL221201
   56    58     0     0     0
SMALL
USER_CHARGES

@<TRIPOS>ATOM
      1 C1          0.4991    0.5012    0.1079 C.3       1 <0>        -0.0893
      2 C2          0.4882   -0.9996   -0.0277 C.2       1 <0>         0.1534
      3 C3          0.4283   -1.6224   -1.2683 C.2       1 <0>        -0.2743
      4 S1          0.4461   -3.3388   -0.7753 S.3       1 <0>         0.1885
      5 C4          0.5246   -3.1024    0.8892 C.2       1 <0>         0.0820
      6 N1          0.5401   -1.7859    1.0149 N.2       1 <0>        -0.5077
      7 C5          0.5710   -4.1236    1.9566 C.ar      1 <0>         0.0142
      8 C6          0.5569   -5.4806    1.6297 C.ar      1 <0>        -0.0961
      9 C7          0.6003   -6.4286    2.6310 C.ar      1 <0>        -0.0654
     10 C8          0.6573   -6.0369    3.9567 C.ar      1 <0>        -0.1682
     11 C9          0.6712   -4.6935    4.2877 C.ar      1 <0>        -0.0693
     12 C10         0.6349   -3.7353    3.2959 C.ar      1 <0>        -0.0698
     13 C11         0.7040   -7.0781    5.0452 C.3       1 <0>         0.5084
     14 F1          2.0363   -7.4004    5.3254 F         1 <0>        -0.1738
     15 F2          0.0936   -6.5745    6.1988 F         1 <0>        -0.1749
     16 F3          0.0257   -8.2261    4.6218 F         1 <0>        -0.1747
     17 C12         0.3670   -1.0340   -2.6095 C.2       1 <0>         0.6073
     18 O1          0.3640    0.1756   -2.7438 O.2       1 <0>        -0.5145
     19 N2          0.3140   -1.8325   -3.6939 N.am      1 <0>        -0.7213
     20 C13         0.2527   -1.2445   -5.0343 C.3       1 <0>         0.1231
     21 C14         0.2006   -2.3609   -6.0792 C.3       1 <0>        -0.0768
     22 C15         0.1376   -1.7560   -7.4580 C.ar      1 <0>        -0.1452
     23 C16        -1.0879   -1.4704   -8.0310 C.ar      1 <0>        -0.0856
     24 C17        -1.1484   -0.9163   -9.2950 C.ar      1 <0>        -0.1708
     25 C18         0.0219   -0.6459   -9.9893 C.ar      1 <0>         0.1720
     26 C19         1.2503   -0.9329   -9.4119 C.ar      1 <0>        -0.1578
     27 C20         1.3055   -1.4822   -8.1456 C.ar      1 <0>        -0.0860
     28 O2         -0.0350   -0.1012  -11.2331 O.3       1 <0>        -0.3027
     29 C21         1.2066    0.2656  -11.8380 C.3       1 <0>         0.0296
     30 C22         0.9407    0.8929  -13.2079 C.3       1 <0>        -0.1154
     31 C23         1.9295    1.2767  -10.9458 C.3       1 <0>        -0.1758
     32 C24         2.0657   -0.9611  -12.0054 C.2       1 <0>         0.4822
     33 O3          1.6530   -2.0488  -11.6405 O.co2     1 <0>        -0.6701
     34 O4          3.1734   -0.8660  -12.5058 O.co2     1 <0>        -0.6859
     35 H1          1.5281    0.8604    0.0880 H         1 <0>         0.0836
     36 H2         -0.0566    0.9447   -0.7183 H         1 <0>         0.0982
     37 H3          0.0338    0.7841    1.0521 H         1 <0>         0.0763
     38 H4          0.5117   -5.7876    0.5953 H         1 <0>         0.1415
     39 H5          0.5894   -7.4788    2.3794 H         1 <0>         0.1469
     40 H6          0.7150   -4.3945    5.3245 H         1 <0>         0.1454
     41 H7          0.6506   -2.6870    3.5553 H         1 <0>         0.1498
     42 H8          0.3163   -2.7966   -3.5869 H         1 <0>         0.3982
     43 H9         -0.6406   -0.6256   -5.1191 H         1 <0>         0.0753
     44 H10         1.1374   -0.6304   -5.2025 H         1 <0>         0.0756
     45 H11         1.0938   -2.9798   -5.9944 H         1 <0>         0.0739
     46 H12        -0.6842   -2.9749   -5.9110 H         1 <0>         0.0732
     47 H13        -1.9987   -1.6811   -7.4901 H         1 <0>         0.1172
     48 H14        -2.1059   -0.6941   -9.7425 H         1 <0>         0.1205
     49 H15         2.1627   -0.7234   -9.9504 H         1 <0>         0.1401
     50 H16         2.2616   -1.7018   -7.6939 H         1 <0>         0.1139
     51 H17         0.3923    1.8262  -13.0800 H         1 <0>         0.0505
     52 H18         1.8893    1.0943  -13.7056 H         1 <0>         0.0784
     53 H19         0.3511    0.2052  -13.8142 H         1 <0>         0.0568
     54 H20         2.0023    0.8806   -9.9329 H         1 <0>         0.0697
     55 H21         2.9304    1.4570  -11.3381 H         1 <0>         0.0747
     56 H22         1.3711    2.2126  -10.9307 H         1 <0>         0.0509
@<TRIPOS>BOND
     1    1    2 1
     2    1   35 1
     3    1   36 1
     4    1   37 1
     5    2    6 1
     6    2    3 2
     7    3    4 1
     8    3   17 1
     9    4    5 1
    10    5    6 2
    11    5    7 1
    12    7   12 ar
    13    7    8 ar
    14    8    9 ar
    15    8   38 1
    16    9   10 ar
    17    9   39 1
    18   10   11 ar
    19   10   13 1
    20   11   12 ar
    21   11   40 1
    22   12   41 1
    23   13   14 1
    24   13   15 1
    25   13   16 1
    26   17   18 2
    27   17   19 am
    28   19   20 1
    29   19   42 1
    30   20   21 1
    31   20   43 1
    32   20   44 1
    33   21   22 1
    34   21   45 1
    35   21   46 1
    36   22   27 ar
    37   22   23 ar
    38   23   24 ar
    39   23   47 1
    40   24   25 ar
    41   24   48 1
    42   25   26 ar
    43   25   28 1
    44   26   27 ar
    45   26   49 1
    46   27   50 1
    47   28   29 1
    48   29   30 1
    49   29   31 1
    50   29   32 1
    51   30   51 1
    52   30   52 1
    53   30   53 1
    54   31   54 1
    55   31   55 1
    56   31   56 1
    57   32   33 2
    58   32   34 1
@<TRIPOS>MOLECULE
CHEMBL265868
   46    49     0     0     0
SMALL
USER_CHARGES

@<TRIPOS>ATOM
      1 C1         -0.0184    1.5028    0.0103 C.3       1 <0>        -0.0890
      2 C2          0.0021   -0.0041    0.0020 C.2       1 <0>         0.0861
      3 C3          0.0052   -0.6786   -1.1785 C.2       1 <0>        -0.1740
      4 S1          0.0311   -2.3682   -0.5929 S.3       1 <0>         0.0509
      5 C4          0.0349   -1.9927    1.1552 C.2       1 <0>         0.1360
      6 N1          0.0223   -0.6673    1.1341 N.2       1 <0>        -0.4845
      7 C5          0.0529   -2.9127    2.3127 C.ar      1 <0>         0.0232
      8 C6          0.0759   -4.2933    2.1102 C.ar      1 <0>        -0.0948
      9 C7          0.0925   -5.1463    3.1944 C.ar      1 <0>        -0.0660
     10 C8          0.0860   -4.6357    4.4803 C.ar      1 <0>        -0.1706
     11 C9          0.0628   -3.2680    4.6878 C.ar      1 <0>        -0.0684
     12 C10         0.0527   -2.4041    3.6122 C.ar      1 <0>        -0.0729
     13 C11         0.1038   -5.5733    5.6599 C.3       1 <0>         0.5087
     14 F1          1.4281   -5.8412    6.0228 F         1 <0>        -0.1742
     15 F2         -0.5641   -4.9806    6.7369 F         1 <0>        -0.1752
     16 F3         -0.5362   -6.7686    5.3152 F         1 <0>        -0.1754
     17 C12        -0.0096   -0.1491   -2.5894 C.3       1 <0>         0.1522
     18 O1          1.3328    0.0369   -3.0424 O.3       1 <0>        -0.3072
     19 C13         1.4977    0.5128   -4.3050 C.ar      1 <0>         0.1418
     20 C14         0.3813    0.7987   -5.0859 C.ar      1 <0>        -0.2249
     21 C15         0.5318    1.2777   -6.3570 C.ar      1 <0>        -0.0159
     22 C16         1.8107    1.4808   -6.8738 C.ar      1 <0>        -0.1379
     23 C17         2.9430    1.1949   -6.0927 C.ar      1 <0>         0.0892
     24 C18         2.7731    0.7140   -4.8008 C.ar      1 <0>        -0.1473
     25 O2          4.0279    1.4831   -6.8394 O.3       1 <0>        -0.1956
     26 C19         3.6677    1.9371   -8.0533 C.2       1 <0>        -0.0322
     27 C20         2.3326    1.9671   -8.1574 C.2       1 <0>        -0.0974
     28 C21         1.5278    2.4103   -9.3519 C.3       1 <0>        -0.1286
     29 C22         1.1452    3.8589   -9.1905 C.2       1 <0>         0.4952
     30 O3          1.4938    4.4745   -8.1974 O.co2     1 <0>        -0.6856
     31 O4          0.4872    4.4154  -10.0529 O.co2     1 <0>        -0.7023
     32 H1          1.0042    1.8801    0.0026 H         1 <0>         0.0825
     33 H2         -0.5455    1.8639   -0.8728 H         1 <0>         0.0780
     34 H3         -0.5286    1.8543    0.9071 H         1 <0>         0.0778
     35 H4          0.0803   -4.6931    1.1069 H         1 <0>         0.1408
     36 H5          0.1103   -6.2149    3.0391 H         1 <0>         0.1456
     37 H6          0.0575   -2.8757    5.6941 H         1 <0>         0.1453
     38 H7          0.0398   -1.3366    3.7755 H         1 <0>         0.1498
     39 H8         -0.5171   -0.8618   -3.2395 H         1 <0>         0.0826
     40 H9         -0.5369    0.8045   -2.6141 H         1 <0>         0.0949
     41 H10        -0.6091    0.6409   -4.6852 H         1 <0>         0.1297
     42 H11        -0.3372    1.4979   -6.9593 H         1 <0>         0.1297
     43 H12         3.6340    0.4942   -4.1869 H         1 <0>         0.1346
     44 H13         4.3553    2.2346   -8.8311 H         1 <0>         0.2023
     45 H14         2.1241    2.2906  -10.2565 H         1 <0>         0.0724
     46 H15         0.6260    1.8027   -9.4282 H         1 <0>         0.0707
@<TRIPOS>BOND
     1    1    2 1
     2    1   32 1
     3    1   33 1
     4    1   34 1
     5    2    6 1
     6    2    3 2
     7    3    4 1
     8    3   17 1
     9    4    5 1
    10    5    6 2
    11    5    7 1
    12    7   12 ar
    13    7    8 ar
    14    8    9 ar
    15    8   35 1
    16    9   10 ar
    17    9   36 1
    18   10   11 ar
    19   10   13 1
    20   11   12 ar
    21   11   37 1
    22   12   38 1
    23   13   14 1
    24   13   15 1
    25   13   16 1
    26   17   18 1
    27   17   39 1
    28   17   40 1
    29   18   19 1
    30   19   24 ar
    31   19   20 ar
    32   20   21 ar
    33   20   41 1
    34   21   22 ar
    35   21   42 1
    36   22   27 1
    37   22   23 ar
    38   23   24 ar
    39   23   25 1
    40   24   43 1
    41   25   26 1
    42   26   27 2
    43   26   44 1
    44   27   28 1
    45   28   29 1
    46   28   45 1
    47   28   46 1
    48   29   30 2
    49   29   31 1
@<TRIPOS>MOLECULE
CHEMBL264385
   66    69     0     0     0
SMALL
USER_CHARGES

@<TRIPOS>ATOM
      1 C1         -1.1155    3.4548    0.2764 C.3       1 <0>        -0.0693
      2 C2         -0.6901    2.0091    0.2903 C.2       1 <0>        -0.0428
      3 C3         -1.5008    0.9385    0.2594 C.2       1 <0>        -0.0092
      4 N1         -0.7265   -0.1607    0.2866 N.2       1 <0>        -0.4709
      5 C4          0.5217    0.2087    0.3328 C.2       1 <0>         0.1966
      6 O1          0.5752    1.5474    0.3303 O.3       1 <0>        -0.1972
      7 C5          1.7100   -0.7171    0.3757 C.3       1 <0>         0.0122
      8 C6          2.6008   -0.4603   -0.8414 C.3       1 <0>        -0.1166
      9 C7          3.8073   -1.4003   -0.7978 C.3       1 <0>        -0.1184
     10 C8          4.6063   -1.1454    0.4819 C.3       1 <0>        -0.1225
     11 C9          3.7155   -1.4021    1.6990 C.3       1 <0>        -0.1179
     12 C10         2.5090   -0.4622    1.6554 C.3       1 <0>        -0.1145
     13 C11        -3.0066    0.9644    0.2043 C.3       1 <0>        -0.0332
     14 C12        -3.4633    0.9748   -1.2559 C.3       1 <0>         0.0685
     15 O2         -4.8911    0.9994   -1.3082 O.3       1 <0>        -0.3185
     16 C13        -5.4633    1.0114   -2.5409 C.ar      1 <0>         0.1177
     17 C14        -4.6669    0.9939   -3.6767 C.ar      1 <0>        -0.2063
     18 C15        -5.2509    1.0056   -4.9286 C.ar      1 <0>        -0.0523
     19 C16        -6.6279    1.0353   -5.0501 C.ar      1 <0>        -0.1012
     20 C17        -7.4238    1.0532   -3.9196 C.ar      1 <0>        -0.0640
     21 C18        -6.8448    1.0354   -2.6655 C.ar      1 <0>        -0.1571
     22 C19        -7.2623    1.0485   -6.4170 C.3       1 <0>        -0.0438
     23 C20        -7.5080   -0.3892   -6.8792 C.3       1 <0>         0.0381
     24 C21        -8.0360   -0.3800   -8.3152 C.3       1 <0>        -0.1773
     25 C22        -6.2157   -1.1624   -6.8240 C.2       1 <0>         0.4904
     26 O3         -6.1267   -2.1511   -6.1162 O.co2     1 <0>        -0.6642
     27 O4         -5.2593   -0.7993   -7.4871 O.co2     1 <0>        -0.6892
     28 O5         -8.4699   -1.0072   -6.0219 O.3       1 <0>        -0.2979
     29 C23        -8.8126   -2.2917   -6.3040 C.ar      1 <0>         0.1685
     30 C24        -8.1533   -2.9815   -7.3110 C.ar      1 <0>        -0.1576
     31 C25        -8.5032   -4.2873   -7.5956 C.ar      1 <0>        -0.0993
     32 C26        -9.5099   -4.9065   -6.8780 C.ar      1 <0>        -0.1756
     33 C27       -10.1688   -4.2210   -5.8742 C.ar      1 <0>        -0.0986
     34 C28        -9.8184   -2.9171   -5.5817 C.ar      1 <0>        -0.1724
     35 H1         -0.2327    4.0935    0.3043 H         1 <0>         0.0781
     36 H2         -1.6824    3.6579   -0.6322 H         1 <0>         0.0900
     37 H3         -1.7390    3.6585    1.1469 H         1 <0>         0.0899
     38 H4          1.3656   -1.7511    0.3623 H         1 <0>         0.1131
     39 H5          2.0316   -0.6419   -1.7530 H         1 <0>         0.0709
     40 H6          2.9452    0.5738   -0.8280 H         1 <0>         0.0696
     41 H7          3.4629   -2.4343   -0.8112 H         1 <0>         0.0673
     42 H8          4.4419   -1.2174   -1.6649 H         1 <0>         0.0684
     43 H9          5.4658   -1.8150    0.5130 H         1 <0>         0.0645
     44 H10         4.9507   -0.1113    0.4953 H         1 <0>         0.0629
     45 H11         3.3711   -2.4362    1.6856 H         1 <0>         0.0669
     46 H12         4.2847   -1.2206    2.6107 H         1 <0>         0.0670
     47 H13         2.8534    0.5719    1.6688 H         1 <0>         0.0693
     48 H14         1.8744   -0.6451    2.5225 H         1 <0>         0.0683
     49 H15        -3.4037    0.0803    0.7029 H         1 <0>         0.0926
     50 H16        -3.3731    1.8600    0.7060 H         1 <0>         0.0897
     51 H17        -3.0662    1.8590   -1.7546 H         1 <0>         0.0585
     52 H18        -3.0967    0.0793   -1.7577 H         1 <0>         0.0654
     53 H19        -3.5912    0.9715   -3.5823 H         1 <0>         0.1186
     54 H20        -4.6313    0.9920   -5.8131 H         1 <0>         0.1307
     55 H21        -8.4991    1.0767   -4.0172 H         1 <0>         0.1246
     56 H22        -7.4669    1.0449   -1.7828 H         1 <0>         0.1233
     57 H23        -8.2112    1.5829   -6.3720 H         1 <0>         0.0675
     58 H24        -6.5971    1.5479   -7.1215 H         1 <0>         0.0894
     59 H25        -7.2515   -0.0347   -8.9885 H         1 <0>         0.0746
     60 H26        -8.3391   -1.3883   -8.5972 H         1 <0>         0.0700
     61 H27        -8.8935    0.2894   -8.3828 H         1 <0>         0.0509
     62 H28        -7.3674   -2.4980   -7.8723 H         1 <0>         0.1380
     63 H29        -7.9903   -4.8248   -8.3794 H         1 <0>         0.1120
     64 H30        -9.7822   -5.9273   -7.1022 H         1 <0>         0.1099
     65 H31       -10.9550   -4.7068   -5.3153 H         1 <0>         0.1155
     66 H32       -10.3304   -2.3835   -4.7945 H         1 <0>         0.1179
@<TRIPOS>BOND
     1    1    2 1
     2    1   35 1
     3    1   36 1
     4    1   37 1
     5    2    6 1
     6    2    3 2
     7    3    4 1
     8    3   13 1
     9    4    5 2
    10    5    6 1
    11    5    7 1
    12    7   12 1
    13    7    8 1
    14    7   38 1
    15    8    9 1
    16    8   39 1
    17    8   40 1
    18    9   10 1
    19    9   41 1
    20    9   42 1
    21   10   11 1
    22   10   43 1
    23   10   44 1
    24   11   12 1
    25   11   45 1
    26   11   46 1
    27   12   47 1
    28   12   48 1
    29   13   14 1
    30   13   49 1
    31   13   50 1
    32   14   15 1
    33   14   51 1
    34   14   52 1
    35   15   16 1
    36   16   21 ar
    37   16   17 ar
    38   17   18 ar
    39   17   53 1
    40   18   19 ar
    41   18   54 1
    42   19   20 ar
    43   19   22 1
    44   20   21 ar
    45   20   55 1
    46   21   56 1
    47   22   23 1
    48   22   57 1
    49   22   58 1
    50   23   24 1
    51   23   25 1
    52   23   28 1
    53   24   59 1
    54   24   60 1
    55   24   61 1
    56   25   26 2
    57   25   27 1
    58   28   29 1
    59   29   34 ar
    60   29   30 ar
    61   30   31 ar
    62   30   62 1
    63   31   32 ar
    64   31   63 1
    65   32   33 ar
    66   32   64 1
    67   33   34 ar
    68   33   65 1
    69   34   66 1
@<TRIPOS>MOLECULE
CHEMBL592054
   60    63     0     0     0
SMALL
USER_CHARGES

@<TRIPOS>ATOM
      1 C1         -0.0184    1.5028    0.0103 C.3       1 <0>        -0.0779
      2 C2          0.0021   -0.0041    0.0020 C.2       1 <0>        -0.0022
      3 C3         -1.0705   -0.8164    0.0025 C.2       1 <0>        -0.0204
      4 N1         -0.6270   -2.0826   -0.0064 N.2       1 <0>        -0.4502
      5 C4          0.6851   -2.0676   -0.0123 C.2       1 <0>         0.2271
      6 O1          1.0981   -0.7883   -0.0131 O.3       1 <0>        -0.1915
      7 C5          1.5619   -3.2577   -0.0227 C.ar      1 <0>        -0.0154
      8 C6          1.0059   -4.5378   -0.0330 C.ar      1 <0>        -0.0711
      9 C7          1.8298   -5.6443   -0.0432 C.ar      1 <0>        -0.1208
     10 C8          3.2044   -5.4871   -0.0433 C.ar      1 <0>        -0.1017
     11 C9          3.7620   -4.2209   -0.0327 C.ar      1 <0>        -0.1208
     12 C10         2.9493   -3.1060   -0.0282 C.ar      1 <0>        -0.0902
     13 C11        -2.5133   -0.3814    0.0119 C.3       1 <0>         0.1464
     14 O2         -2.9758   -0.2362   -1.3324 O.3       1 <0>        -0.3085
     15 C12        -4.2665    0.1537   -1.5021 C.ar      1 <0>         0.1366
     16 C13        -5.0697    0.3972   -0.3974 C.ar      1 <0>        -0.2120
     17 C14        -6.3813    0.7940   -0.5726 C.ar      1 <0>        -0.0533
     18 C15        -6.8939    0.9479   -1.8474 C.ar      1 <0>        -0.1249
     19 C16        -6.0956    0.7054   -2.9500 C.ar      1 <0>        -0.0520
     20 C17        -4.7815    0.3145   -2.7802 C.ar      1 <0>        -0.1506
     21 C18        -8.3252    1.3804   -2.0356 C.3       1 <0>         0.1209
     22 O3         -8.3879    2.8067   -2.0960 O.3       1 <0>        -0.2225
     23 N2         -9.6962    3.3188   -2.2723 N.2       1 <0>        -0.3525
     24 C19        -9.8867    4.5960   -2.3425 C.2       1 <0>         0.1815
     25 C20        -8.7163    5.5394   -2.2367 C.3       1 <0>        -0.0873
     26 C21        -8.1481    5.8056   -3.6321 C.3       1 <0>        -0.1689
     27 C22        -6.9776    6.7489   -3.5263 C.2       1 <0>         0.4938
     28 O4         -6.6301    7.1694   -2.4359 O.co2     1 <0>        -0.6969
     29 O5         -6.3782    7.0917   -4.5311 O.co2     1 <0>        -0.7040
     30 C23       -11.2509    5.1299   -2.5263 C.ar      1 <0>        -0.0425
     31 C24       -11.4594    6.5080   -2.6083 C.ar      1 <0>        -0.0837
     32 C25       -12.7367    7.0001   -2.7800 C.ar      1 <0>        -0.1241
     33 C26       -13.8098    6.1314   -2.8706 C.ar      1 <0>        -0.1094
     34 C27       -13.6102    4.7647   -2.7902 C.ar      1 <0>        -0.1311
     35 C28       -12.3375    4.2588   -2.6247 C.ar      1 <0>        -0.0838
     36 H1          1.0042    1.8801    0.0026 H         1 <0>         0.0838
     37 H2         -0.5455    1.8639   -0.8728 H         1 <0>         0.0996
     38 H3         -0.5286    1.8543    0.9071 H         1 <0>         0.0952
     39 H4         -0.0670   -4.6619   -0.0326 H         1 <0>         0.1387
     40 H5          1.4008   -6.6354   -0.0508 H         1 <0>         0.1324
     41 H6          3.8450   -6.3565   -0.0513 H         1 <0>         0.1283
     42 H7          4.8357   -4.1050   -0.0321 H         1 <0>         0.1308
     43 H8          3.3858   -2.1181   -0.0249 H         1 <0>         0.1308
     44 H9         -3.1156   -1.1316    0.5243 H         1 <0>         0.0822
     45 H10        -2.6018    0.5726    0.5316 H         1 <0>         0.0834
     46 H11        -4.6700    0.2764    0.5986 H         1 <0>         0.1287
     47 H12        -7.0070    0.9836    0.2871 H         1 <0>         0.1268
     48 H13        -6.4984    0.8261   -3.9448 H         1 <0>         0.1323
     49 H14        -4.1571    0.1294   -3.6417 H         1 <0>         0.1324
     50 H15        -8.7128    0.9600   -2.9636 H         1 <0>         0.0610
     51 H16        -8.9251    1.0255   -1.1976 H         1 <0>         0.0597
     52 H17        -9.0458    6.4790   -1.7933 H         1 <0>         0.0794
     53 H18        -7.9449    5.0924   -1.6095 H         1 <0>         0.0841
     54 H19        -7.8185    4.8660   -4.0755 H         1 <0>         0.0577
     55 H20        -8.9194    6.2525   -4.2593 H         1 <0>         0.0579
     56 H21       -10.6227    7.1872   -2.5370 H         1 <0>         0.1375
     57 H22       -12.8994    8.0659   -2.8436 H         1 <0>         0.1270
     58 H23       -14.8077    6.5220   -3.0043 H         1 <0>         0.1214
     59 H24       -14.4523    4.0922   -2.8612 H         1 <0>         0.1227
     60 H25       -12.1825    3.1916   -2.5669 H         1 <0>         0.1302
@<TRIPOS>BOND
     1    1    2 1
     2    1   36 1
     3    1   37 1
     4    1   38 1
     5    2    6 1
     6    2    3 2
     7    3    4 1
     8    3   13 1
     9    4    5 2
    10    5    6 1
    11    5    7 1
    12    7   12 ar
    13    7    8 ar
    14    8    9 ar
    15    8   39 1
    16    9   10 ar
    17    9   40 1
    18   10   11 ar
    19   10   41 1
    20   11   12 ar
    21   11   42 1
    22   12   43 1
    23   13   14 1
    24   13   44 1
    25   13   45 1
    26   14   15 1
    27   15   20 ar
    28   15   16 ar
    29   16   17 ar
    30   16   46 1
    31   17   18 ar
    32   17   47 1
    33   18   19 ar
    34   18   21 1
    35   19   20 ar
    36   19   48 1
    37   20   49 1
    38   21   22 1
    39   21   50 1
    40   21   51 1
    41   22   23 1
    42   23   24 2
    43   24   25 1
    44   24   30 1
    45   25   26 1
    46   25   52 1
    47   25   53 1
    48   26   27 1
    49   26   54 1
    50   26   55 1
    51   27   28 2
    52   27   29 1
    53   30   35 ar
    54   30   31 ar
    55   31   32 ar
    56   31   56 1
    57   32   33 ar
    58   32   57 1
    59   33   34 ar
    60   33   58 1
    61   34   35 ar
    62   34   59 1
    63   35   60 1
@<TRIPOS>MOLECULE
CHEMBL118753
   70    73     0     0     0
SMALL
USER_CHARGES

@<TRIPOS>ATOM
      1 C1          0.3997    1.6980   -0.7289 C.3       1 <0>        -0.1525
      2 C2          0.3262    0.1851   -0.5126 C.3       1 <0>        -0.1160
      3 C3          0.9158   -0.5331   -1.7281 C.3       1 <0>        -0.0726
      4 C4          0.8434   -2.0232   -1.5150 C.ar      1 <0>        -0.0696
      5 C5          1.9296   -2.7002   -0.9949 C.ar      1 <0>        -0.1142
      6 C6          1.8629   -4.0713   -0.7984 C.ar      1 <0>         0.1034
      7 C7          0.7055   -4.7631   -1.1240 C.ar      1 <0>        -0.1748
      8 C8         -0.3804   -4.0864   -1.6439 C.ar      1 <0>        -0.1659
      9 C9         -0.3155   -2.7140   -1.8356 C.ar      1 <0>         0.0945
     10 O1         -1.3866   -2.0468   -2.3422 O.3       1 <0>        -0.3067
     11 C10        -2.5473   -2.8216   -2.6500 C.3       1 <0>         0.0646
     12 C11        -3.6398   -1.9053   -3.2047 C.3       1 <0>        -0.1195
     13 C12        -4.8825   -2.7349   -3.5342 C.3       1 <0>         0.0635
     14 O2         -5.9028   -1.8790   -4.0523 O.3       1 <0>        -0.3078
     15 C13        -7.0808   -2.4623   -4.3973 C.ar      1 <0>         0.1361
     16 C14        -7.2532   -3.8295   -4.2350 C.ar      1 <0>        -0.1914
     17 C15        -8.4516   -4.4198   -4.5860 C.ar      1 <0>        -0.0708
     18 C16        -9.4792   -3.6494   -5.0988 C.ar      1 <0>        -0.1323
     19 C17        -9.3098   -2.2871   -5.2619 C.ar      1 <0>        -0.0409
     20 C18        -8.1150   -1.6909   -4.9069 C.ar      1 <0>        -0.1186
     21 C19       -10.4315   -1.4506   -5.8214 C.3       1 <0>        -0.0337
     22 C20       -11.7303   -1.6872   -5.0634 C.2       1 <0>         0.5342
     23 O3        -11.8485   -1.4305   -3.8844 O.2       1 <0>        -0.4481
     24 N1        -12.7205   -2.1924   -5.7795 N.am      1 <0>        -0.6896
     25 C21       -12.6146   -2.4863   -7.0887 C.2       1 <0>         0.5629
     26 O4        -13.4644   -2.9498   -7.8242 O.2       1 <0>        -0.4136
     27 S1        -10.9336   -2.0354   -7.4937 S.3       1 <0>        -0.1363
     28 O5          2.9322   -4.7377   -0.2869 O.3       1 <0>        -0.3131
     29 C22         2.8392   -6.1623   -0.2237 C.3       1 <0>         0.0957
     30 C23         2.0759   -6.5566    1.0572 C.3       1 <0>        -0.1422
     31 C24         1.5370   -7.9506    0.8823 C.3       1 <0>        -0.1188
     32 C25         2.4808   -9.0238    1.4577 C.3       1 <0>        -0.1185
     33 C26         3.9633   -8.7467    1.1425 C.3       1 <0>        -0.1238
     34 C27         4.1721   -8.2669   -0.2683 C.3       1 <0>        -0.1093
     35 C28         4.1810   -6.7245   -0.2653 C.3       1 <0>        -0.1248
     36 H1          1.4400    1.9965   -0.8580 H         1 <0>         0.0538
     37 H2         -0.1684    1.9656   -1.6199 H         1 <0>         0.0549
     38 H3         -0.0203    2.2097    0.1370 H         1 <0>         0.0543
     39 H4          0.8943   -0.0825    0.3784 H         1 <0>         0.0606
     40 H5         -0.7141   -0.1133   -0.3835 H         1 <0>         0.0641
     41 H6          0.3477   -0.2655   -2.6191 H         1 <0>         0.0785
     42 H7          1.9561   -0.2346   -1.8572 H         1 <0>         0.0721
     43 H8          2.8309   -2.1616   -0.7418 H         1 <0>         0.1368
     44 H9          0.6536   -5.8310   -0.9713 H         1 <0>         0.1315
     45 H10        -1.2813   -4.6251   -1.8981 H         1 <0>         0.1286
     46 H11        -2.2935   -3.5763   -3.3943 H         1 <0>         0.0642
     47 H12        -2.9081   -3.3107   -1.7451 H         1 <0>         0.0643
     48 H13        -3.8936   -1.1506   -2.4603 H         1 <0>         0.0882
     49 H14        -3.2790   -1.4163   -4.1096 H         1 <0>         0.0881
     50 H15        -4.6286   -3.4896   -4.2785 H         1 <0>         0.0683
     51 H16        -5.2432   -3.2239   -2.6293 H         1 <0>         0.0681
     52 H17        -6.4508   -4.4316   -3.8349 H         1 <0>         0.1336
     53 H18        -8.5861   -5.4839   -4.4602 H         1 <0>         0.1336
     54 H19       -10.4154   -4.1128   -5.3726 H         1 <0>         0.1208
     55 H20        -7.9847   -0.6259   -5.0303 H         1 <0>         0.1407
     56 H21       -10.1657   -0.3936   -5.8341 H         1 <0>         0.1697
     57 H22       -13.5677   -2.3604   -5.3380 H         1 <0>         0.4203
     58 H23         2.2805   -6.5179   -1.0895 H         1 <0>         0.0677
     59 H24         2.7539   -6.5305    1.9102 H         1 <0>         0.0775
     60 H25         1.2510   -5.8629    1.2201 H         1 <0>         0.0718
     61 H26         0.5731   -8.0219    1.3862 H         1 <0>         0.0646
     62 H27         1.3920   -8.1419   -0.1809 H         1 <0>         0.0604
     63 H28         2.3525   -9.0614    2.5394 H         1 <0>         0.0611
     64 H29         2.2077   -9.9927    1.0397 H         1 <0>         0.0610
     65 H30         4.3345   -7.9882    1.8316 H         1 <0>         0.0635
     66 H31         4.5328   -9.6642    1.2908 H         1 <0>         0.0623
     67 H32         5.1258   -8.6378   -0.6438 H         1 <0>         0.0724
     68 H33         3.3612   -8.6271   -0.9014 H         1 <0>         0.0675
     69 H34         4.6834   -6.3725   -1.1662 H         1 <0>         0.0713
     70 H35         4.7367   -6.3764    0.6055 H         1 <0>         0.0747
@<TRIPOS>BOND
     1    1    2 1
     2    1   36 1
     3    1   37 1
     4    1   38 1
     5    2    3 1
     6    2   39 1
     7    2   40 1
     8    3    4 1
     9    3   41 1
    10    3   42 1
    11    4    9 ar
    12    4    5 ar
    13    5    6 ar
    14    5   43 1
    15    6    7 ar
    16    6   28 1
    17    7    8 ar
    18    7   44 1
    19    8    9 ar
    20    8   45 1
    21    9   10 1
    22   10   11 1
    23   11   12 1
    24   11   46 1
    25   11   47 1
    26   12   13 1
    27   12   48 1
    28   12   49 1
    29   13   14 1
    30   13   50 1
    31   13   51 1
    32   14   15 1
    33   15   20 ar
    34   15   16 ar
    35   16   17 ar
    36   16   52 1
    37   17   18 ar
    38   17   53 1
    39   18   19 ar
    40   18   54 1
    41   19   20 ar
    42   19   21 1
    43   20   55 1
    44   21   27 1
    45   21   22 1
    46   21   56 1
    47   22   23 2
    48   22   24 am
    49   24   25 am
    50   24   57 1
    51   25   26 2
    52   25   27 1
    53   28   29 1
    54   29   35 1
    55   29   30 1
    56   29   58 1
    57   30   31 1
    58   30   59 1
    59   30   60 1
    60   31   32 1
    61   31   61 1
    62   31   62 1
    63   32   33 1
    64   32   63 1
    65   32   64 1
    66   33   34 1
    67   33   65 1
    68   33   66 1
    69   34   35 1
    70   34   67 1
    71   34   68 1
    72   35   69 1
    73   35   70 1
@<TRIPOS>MOLECULE
CHEMBL118753__1
   70    73     0     0     0
SMALL
USER_CHARGES

@<TRIPOS>ATOM
      1 C1         -0.0862    1.4932   -0.5913 C.3       1 <0>        -0.1525
      2 C2         -0.0487   -0.0364   -0.5833 C.3       1 <0>        -0.1160
      3 C3          0.8930   -0.5291   -1.6839 C.3       1 <0>        -0.0726
      4 C4          0.9299   -2.0357   -1.6761 C.ar      1 <0>        -0.0695
      5 C5          1.9219   -2.6987   -0.9796 C.ar      1 <0>        -0.1140
      6 C6          1.9556   -4.0850   -0.9720 C.ar      1 <0>         0.1032
      7 C7          0.9933   -4.8060   -1.6638 C.ar      1 <0>        -0.1752
      8 C8          0.0017   -4.1432   -2.3600 C.ar      1 <0>        -0.1657
      9 C9         -0.0351   -2.7565   -2.3632 C.ar      1 <0>         0.0946
     10 O1         -1.0148   -2.1039   -3.0441 O.3       1 <0>        -0.3066
     11 C10        -1.9757   -2.9095   -3.7294 C.3       1 <0>         0.0647
     12 C11        -2.9907   -2.0058   -4.4321 C.3       1 <0>        -0.1195
     13 C12        -4.0195   -2.8683   -5.1658 C.3       1 <0>         0.0635
     14 O2         -4.9676   -2.0242   -5.8221 O.3       1 <0>        -0.3079
     15 C13        -5.9565   -2.6367   -6.5248 C.ar      1 <0>         0.1362
     16 C14        -6.0166   -4.0220   -6.5766 C.ar      1 <0>        -0.1914
     17 C15        -7.0230   -4.6421   -7.2911 C.ar      1 <0>        -0.0708
     18 C16        -7.9702   -3.8836   -7.9543 C.ar      1 <0>        -0.1324
     19 C17        -7.9122   -2.5033   -7.9045 C.ar      1 <0>        -0.0408
     20 C18        -6.9108   -1.8782   -7.1865 C.ar      1 <0>        -0.1187
     21 C19        -8.9457   -1.6797   -8.6289 C.3       1 <0>        -0.0337
     22 C20        -9.0710   -2.1044  -10.0853 C.2       1 <0>         0.5343
     23 O3         -8.1494   -2.0153  -10.8679 O.2       1 <0>        -0.4481
     24 N1        -10.2545   -2.5775  -10.4379 N.am      1 <0>        -0.6897
     25 C21       -11.2929   -2.6868   -9.5886 C.2       1 <0>         0.5628
     26 O4        -12.4099   -3.1071   -9.8203 O.2       1 <0>        -0.4137
     27 S1        -10.6463   -2.0707   -8.0410 S.3       1 <0>        -0.1364
     28 O5          2.9322   -4.7377   -0.2869 O.3       1 <0>        -0.3105
     29 C22         2.8392   -6.1623   -0.2237 C.3       1 <0>         0.0905
     30 C23         3.4747   -6.7651   -1.4472 C.3       1 <0>        -0.1459
     31 C24         2.7665   -8.0546   -1.9047 C.3       1 <0>        -0.1160
     32 C25         2.3799   -8.9730   -0.7297 C.3       1 <0>        -0.1241
     33 C26         3.4618   -9.0609    0.3125 C.3       1 <0>        -0.1218
     34 C27         3.1721   -8.0152    1.4086 C.3       1 <0>        -0.1182
     35 C28         3.5900   -6.6757    1.0219 C.3       1 <0>        -0.1120
     36 H1          0.9163    1.8821   -0.4127 H         1 <0>         0.0538
     37 H2         -0.4445    1.8428   -1.5595 H         1 <0>         0.0549
     38 H3         -0.7571    1.8442    0.1928 H         1 <0>         0.0543
     39 H4          0.3096   -0.3860    0.3849 H         1 <0>         0.0606
     40 H5         -1.0512   -0.4253   -0.7619 H         1 <0>         0.0641
     41 H6          0.5347   -0.1795   -2.6521 H         1 <0>         0.0785
     42 H7          1.8955   -0.1402   -1.5053 H         1 <0>         0.0722
     43 H8          2.6713   -2.1374   -0.4414 H         1 <0>         0.1370
     44 H9          1.0197   -5.8857   -1.6581 H         1 <0>         0.1315
     45 H10        -0.7471   -4.7045   -2.8991 H         1 <0>         0.1285
     46 H11        -1.4688   -3.5300   -4.4684 H         1 <0>         0.0641
     47 H12        -2.4924   -3.5475   -3.0124 H         1 <0>         0.0642
     48 H13        -3.4976   -1.3853   -3.6930 H         1 <0>         0.0882
     49 H14        -2.4740   -1.3678   -5.1491 H         1 <0>         0.0881
     50 H15        -3.5126   -3.4888   -5.9049 H         1 <0>         0.0681
     51 H16        -4.5363   -3.5063   -4.4488 H         1 <0>         0.0682
     52 H17        -5.2770   -4.6148   -6.0591 H         1 <0>         0.1336
     53 H18        -7.0701   -5.7203   -7.3320 H         1 <0>         0.1336
     54 H19        -8.7563   -4.3704   -8.5124 H         1 <0>         0.1208
     55 H20        -6.8686   -0.7998   -7.1443 H         1 <0>         0.1407
     56 H21        -8.7313   -0.6145   -8.5425 H         1 <0>         0.1697
     57 H22       -10.3809   -2.8603  -11.3571 H         1 <0>         0.4203
     58 H23         1.7918   -6.4586   -0.1679 H         1 <0>         0.0750
     59 H24         3.4399   -6.0370   -2.2577 H         1 <0>         0.0707
     60 H25         4.5171   -6.9946   -1.2264 H         1 <0>         0.0731
     61 H26         1.8631   -7.7844   -2.4516 H         1 <0>         0.0594
     62 H27         3.4301   -8.6013   -2.5747 H         1 <0>         0.0663
     63 H28         1.4726   -8.5876   -0.2646 H         1 <0>         0.0600
     64 H29         2.1792   -9.9728   -1.1148 H         1 <0>         0.0628
     65 H30         3.4677  -10.0588    0.7508 H         1 <0>         0.0661
     66 H31         4.4289   -8.8532   -0.1453 H         1 <0>         0.0685
     67 H32         2.1015   -8.0056    1.6132 H         1 <0>         0.0625
     68 H33         3.7008   -8.3012    2.3179 H         1 <0>         0.0700
     69 H34         4.6592   -6.6870    0.8099 H         1 <0>         0.0714
     70 H35         3.4039   -5.9944    1.8521 H         1 <0>         0.0729
@<TRIPOS>BOND
     1    1    2 1
     2    1   36 1
     3    1   37 1
     4    1   38 1
     5    2    3 1
     6    2   39 1
     7    2   40 1
     8    3    4 1
     9    3   41 1
    10    3   42 1
    11    4    9 ar
    12    4    5 ar
    13    5    6 ar
    14    5   43 1
    15    6    7 ar
    16    6   28 1
    17    7    8 ar
    18    7   44 1
    19    8    9 ar
    20    8   45 1
    21    9   10 1
    22   10   11 1
    23   11   12 1
    24   11   46 1
    25   11   47 1
    26   12   13 1
    27   12   48 1
    28   12   49 1
    29   13   14 1
    30   13   50 1
    31   13   51 1
    32   14   15 1
    33   15   20 ar
    34   15   16 ar
    35   16   17 ar
    36   16   52 1
    37   17   18 ar
    38   17   53 1
    39   18   19 ar
    40   18   54 1
    41   19   20 ar
    42   19   21 1
    43   20   55 1
    44   21   27 1
    45   21   22 1
    46   21   56 1
    47   22   23 2
    48   22   24 am
    49   24   25 am
    50   24   57 1
    51   25   26 2
    52   25   27 1
    53   28   29 1
    54   29   35 1
    55   29   30 1
    56   29   58 1
    57   30   31 1
    58   30   59 1
    59   30   60 1
    60   31   32 1
    61   31   61 1
    62   31   62 1
    63   32   33 1
    64   32   63 1
    65   32   64 1
    66   33   34 1
    67   33   65 1
    68   33   66 1
    69   34   35 1
    70   34   67 1
    71   34   68 1
    72   35   69 1
    73   35   70 1
@<TRIPOS>MOLECULE
CHEMBL1075732
   71    74     0     0     0
SMALL
USER_CHARGES

@<TRIPOS>ATOM
      1 C1         -0.4870    1.2967    0.2281 C.3       1 <0>        -0.1057
      2 C2         -0.4337   -0.2093    0.2423 C.ar      1 <0>        -0.0848
      3 C3         -0.4199   -0.9113   -0.9475 C.ar      1 <0>        -0.1068
      4 C4         -0.3704   -2.2971   -0.9344 C.ar      1 <0>         0.0746
      5 C5         -0.3348   -2.9785    0.2734 C.ar      1 <0>        -0.1690
      6 C6         -0.3487   -2.2767    1.4628 C.ar      1 <0>        -0.1754
      7 C7         -0.3929   -0.8903    1.4497 C.ar      1 <0>         0.1117
      8 O1         -0.4009   -0.1991    2.6207 O.3       1 <0>        -0.2771
      9 C8         -0.3571   -0.9650    3.8264 C.3       1 <0>        -0.0072
     10 C9         -0.3732   -0.0357    5.0126 C.2       1 <0>         0.5012
     11 O2         -0.4181    1.1706    4.8415 O.co2     1 <0>        -0.6703
     12 O3         -0.3414   -0.4902    6.1435 O.co2     1 <0>        -0.6882
     13 O4         -0.3572   -2.9881   -2.1055 O.3       1 <0>        -0.3118
     14 C10        -0.3056   -4.4134   -2.0173 C.3       1 <0>         0.1593
     15 C11        -0.2981   -5.0026   -3.4043 C.2       1 <0>         0.2048
     16 N1          0.7682   -5.2626   -4.1022 N.2       1 <0>        -0.4383
     17 C12         0.3963   -5.7818   -5.2925 C.2       1 <0>         0.0401
     18 C13        -0.9847   -5.8315   -5.2968 C.2       1 <0>         0.0230
     19 O5         -1.3891   -5.3440   -4.1041 O.3       1 <0>        -0.1774
     20 C14        -1.8471   -6.3251   -6.3871 C.ar      1 <0>        -0.0402
     21 C15        -1.5716   -7.5513   -6.9981 C.ar      1 <0>        -0.0444
     22 C16        -2.3799   -8.0084   -8.0163 C.ar      1 <0>        -0.1184
     23 C17        -3.4669   -7.2522   -8.4357 C.ar      1 <0>         0.1226
     24 C18        -3.7446   -6.0329   -7.8313 C.ar      1 <0>        -0.1894
     25 C19        -2.9455   -5.5707   -6.8081 C.ar      1 <0>        -0.0461
     26 O6         -4.2605   -7.7064   -9.4404 O.3       1 <0>        -0.3076
     27 C20        -5.3612   -6.8789   -9.8222 C.3       1 <0>         0.6038
     28 F1         -4.8833   -5.6367  -10.2530 F         1 <0>        -0.1626
     29 F2         -6.0676   -7.4930  -10.8621 F         1 <0>        -0.1290
     30 F3         -6.2104   -6.6971   -8.7254 F         1 <0>        -0.1628
     31 C21         1.2959   -6.2143   -6.3837 C.ar      1 <0>         0.0152
     32 C22         0.9867   -5.9003   -7.7095 C.ar      1 <0>        -0.1035
     33 C23         1.8175   -6.2992   -8.7177 C.ar      1 <0>        -0.0579
     34 C24         2.9774   -7.0218   -8.4228 C.ar      1 <0>        -0.1279
     35 C25         3.2864   -7.3359   -7.0959 C.ar      1 <0>        -0.0938
     36 C26         2.4577   -6.9319   -6.0879 C.ar      1 <0>        -0.0954
     37 C27         3.8752   -7.4535   -9.5117 C.2       1 <0>         0.5609
     38 O7          3.4193   -7.7123  -10.6088 O.2       1 <0>        -0.5344
     39 N2          5.2002   -7.5607   -9.2901 N.am      1 <0>        -0.6068
     40 C28         5.7645   -7.1399   -8.0053 C.3       1 <0>         0.0665
     41 C29         6.0764   -8.0982  -10.3340 C.3       1 <0>         0.1297
     42 C30         7.1200   -7.0463  -10.7154 C.3       1 <0>        -0.1627
     43 C31         6.7823   -9.3512   -9.8122 C.3       1 <0>        -0.1615
     44 H1          0.5271    1.6960    0.2103 H         1 <0>         0.0699
     45 H2         -1.0254    1.6329   -0.6580 H         1 <0>         0.0614
     46 H3         -1.0012    1.6506    1.1217 H         1 <0>         0.0811
     47 H4         -0.4479   -0.3808   -1.8878 H         1 <0>         0.1330
     48 H5         -0.2967   -4.0578    0.2836 H         1 <0>         0.1257
     49 H6         -0.3218   -2.8072    2.4031 H         1 <0>         0.1330
     50 H7         -1.2238   -1.6244    3.8696 H         1 <0>         0.0581
     51 H8          0.5548   -1.5618    3.8447 H         1 <0>         0.0584
     52 H9          0.6008   -4.7122   -1.4906 H         1 <0>         0.1093
     53 H10        -1.1780   -4.7756   -1.4733 H         1 <0>         0.0940
     54 H11        -0.7262   -8.1396   -6.6732 H         1 <0>         0.1440
     55 H12        -2.1677   -8.9559   -8.4891 H         1 <0>         0.1491
     56 H13        -4.5907   -5.4481   -8.1608 H         1 <0>         0.1417
     57 H14        -3.1650   -4.6248   -6.3355 H         1 <0>         0.1416
     58 H15         0.0905   -5.3423   -7.9373 H         1 <0>         0.1304
     59 H16         1.5782   -6.0567   -9.7426 H         1 <0>         0.1366
     60 H17         4.1821   -7.8944   -6.8675 H         1 <0>         0.1420
     61 H18         2.6984   -7.1709   -5.0626 H         1 <0>         0.1354
     62 H19         5.7986   -7.9923   -7.3268 H         1 <0>         0.0617
     63 H20         6.7735   -6.7576   -8.1593 H         1 <0>         0.0743
     64 H21         5.1411   -6.3567   -7.5738 H         1 <0>         0.0830
     65 H22         5.4818   -8.3547  -11.2109 H         1 <0>         0.1023
     66 H23         7.7145   -6.7898   -9.8386 H         1 <0>         0.0598
     67 H24         7.7718   -7.4462  -11.4921 H         1 <0>         0.0695
     68 H25         6.6170   -6.1536  -11.0872 H         1 <0>         0.0598
     69 H26         6.0389  -10.1006   -9.5405 H         1 <0>         0.0589
     70 H27         7.4342   -9.7511  -10.5889 H         1 <0>         0.0695
     71 H28         7.3769   -9.0947   -8.9354 H         1 <0>         0.0594
@<TRIPOS>BOND
     1    1    2 1
     2    1   44 1
     3    1   45 1
     4    1   46 1
     5    2    7 ar
     6    2    3 ar
     7    3    4 ar
     8    3   47 1
     9    4    5 ar
    10    4   13 1
    11    5    6 ar
    12    5   48 1
    13    6    7 ar
    14    6   49 1
    15    7    8 1
    16    8    9 1
    17    9   10 1
    18    9   50 1
    19    9   51 1
    20   10   11 2
    21   10   12 1
    22   13   14 1
    23   14   15 1
    24   14   52 1
    25   14   53 1
    26   15   19 1
    27   15   16 2
    28   16   17 1
    29   17   18 2
    30   17   31 1
    31   18   19 1
    32   18   20 1
    33   20   25 ar
    34   20   21 ar
    35   21   22 ar
    36   21   54 1
    37   22   23 ar
    38   22   55 1
    39   23   24 ar
    40   23   26 1
    41   24   25 ar
    42   24   56 1
    43   25   57 1
    44   26   27 1
    45   27   28 1
    46   27   29 1
    47   27   30 1
    48   31   36 ar
    49   31   32 ar
    50   32   33 ar
    51   32   58 1
    52   33   34 ar
    53   33   59 1
    54   34   35 ar
    55   34   37 1
    56   35   36 ar
    57   35   60 1
    58   36   61 1
    59   37   38 2
    60   37   39 am
    61   39   40 1
    62   39   41 1
    63   40   62 1
    64   40   63 1
    65   40   64 1
    66   41   42 1
    67   41   43 1
    68   41   65 1
    69   42   66 1
    70   42   67 1
    71   42   68 1
    72   43   69 1
    73   43   70 1
    74   43   71 1
@<TRIPOS>MOLECULE
CHEMBL59132
   49    52     0     0     0
SMALL
USER_CHARGES

@<TRIPOS>ATOM
      1 C1         -0.0184    1.5028    0.0103 C.3       1 <0>        -0.0725
      2 C2          0.0021   -0.0041    0.0020 C.2       1 <0>        -0.0315
      3 C3         -1.0705   -0.8164    0.0025 C.2       1 <0>        -0.0109
      4 N1         -0.6270   -2.0826   -0.0064 N.2       1 <0>        -0.4614
      5 C4          0.6851   -2.0676   -0.0123 C.2       1 <0>         0.2351
      6 O1          1.0981   -0.7883   -0.0131 O.3       1 <0>        -0.1919
      7 C5          1.5619   -3.2577   -0.0227 C.ar      1 <0>        -0.0217
      8 C6          1.0059   -4.5378   -0.0330 C.ar      1 <0>        -0.0703
      9 C7          1.8298   -5.6443   -0.0432 C.ar      1 <0>        -0.1206
     10 C8          3.2044   -5.4871   -0.0433 C.ar      1 <0>        -0.0984
     11 C9          3.7620   -4.2209   -0.0327 C.ar      1 <0>        -0.1204
     12 C10         2.9493   -3.1060   -0.0282 C.ar      1 <0>        -0.0895
     13 C11        -2.5133   -0.3814    0.0119 C.3       1 <0>        -0.0337
     14 C12        -3.0085   -0.2260   -1.4274 C.3       1 <0>         0.0671
     15 O2         -4.3766    0.1865   -1.4185 O.3       1 <0>        -0.3119
     16 C13        -4.9731    0.3716   -2.6255 C.ar      1 <0>         0.1390
     17 C14        -4.2580    0.1549   -3.7944 C.ar      1 <0>        -0.2084
     18 C15        -4.8667    0.3432   -5.0201 C.ar      1 <0>        -0.0663
     19 C16        -6.1874    0.7477   -5.0825 C.ar      1 <0>        -0.1373
     20 C17        -6.9021    0.9648   -3.9190 C.ar      1 <0>        -0.0602
     21 C18        -6.2998    0.7719   -2.6908 C.ar      1 <0>        -0.1487
     22 C19        -6.8489    0.9529   -6.4210 C.3       1 <0>        -0.0490
     23 C20        -7.4951   -0.3570   -6.8767 C.3       1 <0>        -0.0723
     24 C21        -8.2425   -0.1782   -8.1907 C.2       1 <0>         0.5304
     25 O3         -7.6820    0.1435   -9.2164 O.2       1 <0>        -0.4585
     26 N2         -9.5452   -0.3985   -8.1362 N.am      1 <0>        -0.6902
     27 C22       -10.1908   -0.7567   -7.0108 C.2       1 <0>         0.5599
     28 O4        -11.3771   -0.9794   -6.8654 O.2       1 <0>        -0.4170
     29 S1         -8.8970   -0.8294   -5.7804 S.3       1 <0>        -0.1392
     30 H1          1.0042    1.8801    0.0026 H         1 <0>         0.0820
     31 H2         -0.5455    1.8639   -0.8728 H         1 <0>         0.0907
     32 H3         -0.5286    1.8543    0.9071 H         1 <0>         0.0936
     33 H4         -0.0670   -4.6619   -0.0326 H         1 <0>         0.1383
     34 H5          1.4008   -6.6354   -0.0508 H         1 <0>         0.1334
     35 H6          3.8450   -6.3565   -0.0513 H         1 <0>         0.1298
     36 H7          4.8357   -4.1050   -0.0321 H         1 <0>         0.1319
     37 H8          3.3858   -2.1181   -0.0249 H         1 <0>         0.1303
     38 H9         -3.1156   -1.1316    0.5243 H         1 <0>         0.0959
     39 H10        -2.6018    0.5726    0.5316 H         1 <0>         0.0939
     40 H11        -2.4061    0.5242   -1.9398 H         1 <0>         0.0635
     41 H12        -2.9200   -1.1800   -1.9471 H         1 <0>         0.0680
     42 H13        -3.2262   -0.1604   -3.7462 H         1 <0>         0.1281
     43 H14        -4.3105    0.1747   -5.9304 H         1 <0>         0.1276
     44 H15        -7.9335    1.2810   -3.9704 H         1 <0>         0.1354
     45 H16        -6.8598    0.9373   -1.7823 H         1 <0>         0.1342
     46 H17        -7.6139    1.7243   -6.3338 H         1 <0>         0.0901
     47 H18        -6.1019    1.2629   -7.1517 H         1 <0>         0.1050
     48 H19        -6.7577   -1.1568   -6.9445 H         1 <0>         0.1608
     49 H20       -10.0630   -0.2961   -8.9501 H         1 <0>         0.4181
@<TRIPOS>BOND
     1    1    2 1
     2    1   30 1
     3    1   31 1
     4    1   32 1
     5    2    6 1
     6    2    3 2
     7    3    4 1
     8    3   13 1
     9    4    5 2
    10    5    6 1
    11    5    7 1
    12    7   12 ar
    13    7    8 ar
    14    8    9 ar
    15    8   33 1
    16    9   10 ar
    17    9   34 1
    18   10   11 ar
    19   10   35 1
    20   11   12 ar
    21   11   36 1
    22   12   37 1
    23   13   14 1
    24   13   38 1
    25   13   39 1
    26   14   15 1
    27   14   40 1
    28   14   41 1
    29   15   16 1
    30   16   21 ar
    31   16   17 ar
    32   17   18 ar
    33   17   42 1
    34   18   19 ar
    35   18   43 1
    36   19   20 ar
    37   19   22 1
    38   20   21 ar
    39   20   44 1
    40   21   45 1
    41   22   23 1
    42   22   46 1
    43   22   47 1
    44   23   29 1
    45   23   24 1
    46   23   48 1
    47   24   25 2
    48   24   26 am
    49   26   27 am
    50   26   49 1
    51   27   28 2
    52   27   29 1
@<TRIPOS>MOLECULE
CHEMBL59132__1
   49    52     0     0     0
SMALL
USER_CHARGES

@<TRIPOS>ATOM
      1 C1         -0.0184    1.5028    0.0103 C.3       1 <0>        -0.0725
      2 C2          0.0021   -0.0041    0.0020 C.2       1 <0>        -0.0316
      3 C3         -1.0705   -0.8164    0.0025 C.2       1 <0>        -0.0109
      4 N1         -0.6270   -2.0826   -0.0064 N.2       1 <0>        -0.4614
      5 C4          0.6851   -2.0676   -0.0123 C.2       1 <0>         0.2353
      6 O1          1.0981   -0.7883   -0.0131 O.3       1 <0>        -0.1919
      7 C5          1.5619   -3.2577   -0.0227 C.ar      1 <0>        -0.0218
      8 C6          1.0059   -4.5378   -0.0330 C.ar      1 <0>        -0.0702
      9 C7          1.8298   -5.6443   -0.0432 C.ar      1 <0>        -0.1206
     10 C8          3.2044   -5.4871   -0.0433 C.ar      1 <0>        -0.0984
     11 C9          3.7620   -4.2209   -0.0327 C.ar      1 <0>        -0.1204
     12 C10         2.9493   -3.1060   -0.0282 C.ar      1 <0>        -0.0895
     13 C11        -2.5133   -0.3814    0.0119 C.3       1 <0>        -0.0335
     14 C12        -3.0085   -0.2260   -1.4274 C.3       1 <0>         0.0668
     15 O2         -4.3766    0.1865   -1.4185 O.3       1 <0>        -0.3122
     16 C13        -4.9731    0.3716   -2.6255 C.ar      1 <0>         0.1391
     17 C14        -4.2580    0.1549   -3.7944 C.ar      1 <0>        -0.2066
     18 C15        -4.8667    0.3432   -5.0201 C.ar      1 <0>        -0.0588
     19 C16        -6.1874    0.7477   -5.0825 C.ar      1 <0>        -0.1377
     20 C17        -6.9021    0.9648   -3.9190 C.ar      1 <0>        -0.0672
     21 C18        -6.2998    0.7719   -2.6908 C.ar      1 <0>        -0.1507
     22 C19        -6.8489    0.9529   -6.4210 C.3       1 <0>        -0.0490
     23 C20        -7.4951   -0.3570   -6.8767 C.3       1 <0>        -0.0716
     24 C21        -8.1109   -0.2184   -8.2619 C.2       1 <0>         0.5303
     25 O3         -9.0180    0.5519   -8.4936 O.2       1 <0>        -0.4580
     26 N2         -7.5879   -0.9957   -9.1950 N.am      1 <0>        -0.6901
     27 C22        -6.5809   -1.8583   -8.9636 C.2       1 <0>         0.5602
     28 O4         -6.0392   -2.6076   -9.7529 O.2       1 <0>        -0.4173
     29 S1         -6.2257   -1.6445   -7.2254 S.3       1 <0>        -0.1417
     30 H1          1.0042    1.8801    0.0026 H         1 <0>         0.0819
     31 H2         -0.5455    1.8639   -0.8728 H         1 <0>         0.0906
     32 H3         -0.5286    1.8543    0.9071 H         1 <0>         0.0935
     33 H4         -0.0670   -4.6619   -0.0326 H         1 <0>         0.1384
     34 H5          1.4008   -6.6354   -0.0508 H         1 <0>         0.1335
     35 H6          3.8450   -6.3565   -0.0513 H         1 <0>         0.1298
     36 H7          4.8357   -4.1050   -0.0321 H         1 <0>         0.1318
     37 H8          3.3858   -2.1181   -0.0249 H         1 <0>         0.1303
     38 H9         -3.1156   -1.1316    0.5243 H         1 <0>         0.0957
     39 H10        -2.6018    0.5726    0.5316 H         1 <0>         0.0937
     40 H11        -2.4061    0.5242   -1.9398 H         1 <0>         0.0637
     41 H12        -2.9200   -1.1800   -1.9471 H         1 <0>         0.0685
     42 H13        -3.2262   -0.1604   -3.7462 H         1 <0>         0.1284
     43 H14        -4.3105    0.1747   -5.9304 H         1 <0>         0.1303
     44 H15        -7.9335    1.2810   -3.9704 H         1 <0>         0.1329
     45 H16        -6.8598    0.9373   -1.7823 H         1 <0>         0.1337
     46 H17        -7.6139    1.7243   -6.3338 H         1 <0>         0.1062
     47 H18        -6.1019    1.2629   -7.1517 H         1 <0>         0.0889
     48 H19        -8.2272   -0.7084   -6.1496 H         1 <0>         0.1618
     49 H20        -7.9492   -0.9417  -10.0936 H         1 <0>         0.4181
@<TRIPOS>BOND
     1    1    2 1
     2    1   30 1
     3    1   31 1
     4    1   32 1
     5    2    6 1
     6    2    3 2
     7    3    4 1
     8    3   13 1
     9    4    5 2
    10    5    6 1
    11    5    7 1
    12    7   12 ar
    13    7    8 ar
    14    8    9 ar
    15    8   33 1
    16    9   10 ar
    17    9   34 1
    18   10   11 ar
    19   10   35 1
    20   11   12 ar
    21   11   36 1
    22   12   37 1
    23   13   14 1
    24   13   38 1
    25   13   39 1
    26   14   15 1
    27   14   40 1
    28   14   41 1
    29   15   16 1
    30   16   21 ar
    31   16   17 ar
    32   17   18 ar
    33   17   42 1
    34   18   19 ar
    35   18   43 1
    36   19   20 ar
    37   19   22 1
    38   20   21 ar
    39   20   44 1
    40   21   45 1
    41   22   23 1
    42   22   46 1
    43   22   47 1
    44   23   29 1
    45   23   24 1
    46   23   48 1
    47   24   25 2
    48   24   26 am
    49   26   27 am
    50   26   49 1
    51   27   28 2
    52   27   29 1
@<TRIPOS>MOLECULE
CHEMBL219688
   56    59     0     0     0
SMALL
USER_CHARGES

@<TRIPOS>ATOM
      1 C1         -0.7729    2.4321    0.3697 C.3       1 <0>        -0.1084
      2 C2         -0.5073    0.9528    0.2595 C.ar      1 <0>        -0.1145
      3 C3         -0.3905    0.3650   -0.9820 C.ar      1 <0>        -0.0450
      4 C4         -0.1440   -1.0050   -1.0830 C.ar      1 <0>        -0.0803
      5 C5         -0.0167   -1.7750    0.0745 C.ar      1 <0>        -0.0164
      6 C6         -0.1346   -1.1803    1.3120 C.ar      1 <0>        -0.2095
      7 C7         -0.3747    0.1845    1.4086 C.ar      1 <0>         0.1696
      8 O1         -0.4848    0.7682    2.6302 O.3       1 <0>        -0.3006
      9 C8         -0.3378   -0.0805    3.7704 C.3       1 <0>         0.0595
     10 C9         -0.4921    0.7488    5.0468 C.3       1 <0>        -0.1187
     11 C10        -0.3347   -0.1599    6.2676 C.3       1 <0>         0.0653
     12 O2         -0.4789    0.6147    7.4597 O.3       1 <0>        -0.3152
     13 C11        -0.3658   -0.0458    8.6421 C.ar      1 <0>         0.1133
     14 C12        -0.1154   -1.4104    8.6555 C.ar      1 <0>        -0.2080
     15 C13        -0.0014   -2.0767    9.8586 C.ar      1 <0>        -0.0704
     16 C14        -0.1363   -1.3890   11.0538 C.ar      1 <0>        -0.1072
     17 C15        -0.3859   -0.0291   11.0430 C.ar      1 <0>        -0.0610
     18 C16        -0.4946    0.6430    9.8379 C.ar      1 <0>        -0.1398
     19 C17        -0.4905    0.4831   12.4637 C.3       1 <0>        -0.0829
     20 C18        -0.7138   -0.7739   13.3309 C.3       1 <0>        -0.1020
     21 C19        -0.0560   -1.8828   12.4826 C.3       1 <0>        -0.0269
     22 H1          0.9845   -2.0181   12.7781 H         1 <0>         0.0891
     23 C20        -0.8271   -3.1955   12.6347 C.3       1 <0>        -0.1740
     24 C21        -0.6196   -3.7420   14.0237 C.2       1 <0>         0.4907
     25 O3          0.1620   -3.1955   14.7833 O.co2     1 <0>        -0.6953
     26 O4         -1.2333   -4.7305   14.3879 O.co2     1 <0>        -0.7079
     27 C22        -0.0186   -1.6393   -2.4125 C.2       1 <0>         0.1195
     28 N1          0.2066   -2.9120   -2.7071 N.2       1 <0>        -0.5013
     29 C23         0.2772   -3.2402   -3.9748 C.2       1 <0>         0.1789
     30 N2          0.1217   -2.2953   -4.8710 N.2       1 <0>        -0.4402
     31 S1         -0.1330   -0.9301   -3.9319 S.3       1 <0>         0.3638
     32 C24         0.5310   -4.6662   -4.3911 C.3       1 <0>         0.5677
     33 F1         -0.6584   -5.2335   -4.8610 F         1 <0>        -0.1589
     34 F2          1.4928   -4.6914   -5.4067 F         1 <0>        -0.1569
     35 F3          0.9940   -5.3975   -3.2920 F         1 <0>        -0.1498
     36 H2          0.1746    2.9701    0.4008 H         1 <0>         0.0739
     37 H3         -1.3504    2.7629   -0.4936 H         1 <0>         0.0696
     38 H4         -1.3351    2.6333    1.2816 H         1 <0>         0.0763
     39 H5         -0.4900    0.9638   -1.8752 H         1 <0>         0.1379
     40 H6          0.1737   -2.8355    0.0003 H         1 <0>         0.1427
     41 H7         -0.0362   -1.7753    2.2079 H         1 <0>         0.1420
     42 H8         -1.1027   -0.8567    3.7466 H         1 <0>         0.0721
     43 H9          0.6493   -0.5426    3.7545 H         1 <0>         0.0720
     44 H10         0.2728    1.5249    5.0705 H         1 <0>         0.0874
     45 H11        -1.4792    1.2109    5.0627 H         1 <0>         0.0874
     46 H12        -1.0997   -0.9361    6.2438 H         1 <0>         0.0648
     47 H13         0.6524   -0.6220    6.2517 H         1 <0>         0.0646
     48 H14        -0.0103   -1.9503    7.7260 H         1 <0>         0.1233
     49 H15         0.1936   -3.1389    9.8686 H         1 <0>         0.1226
     50 H16        -0.6847    1.7061    9.8293 H         1 <0>         0.1241
     51 H17         0.4331    0.9838   12.7541 H         1 <0>         0.0795
     52 H18        -1.3367    1.1636   12.5590 H         1 <0>         0.0709
     53 H19        -0.2130   -0.6742   14.2939 H         1 <0>         0.0856
     54 H20        -1.7779   -0.9683   13.4647 H         1 <0>         0.0644
     55 H21        -1.8893   -3.0141   12.4706 H         1 <0>         0.0567
     56 H22        -0.4643   -3.9169   11.9025 H         1 <0>         0.0557
@<TRIPOS>BOND
     1    1    2 1
     2    1   36 1
     3    1   37 1
     4    1   38 1
     5    2    7 ar
     6    2    3 ar
     7    3    4 ar
     8    3   39 1
     9    4    5 ar
    10    4   27 1
    11    5    6 ar
    12    5   40 1
    13    6    7 ar
    14    6   41 1
    15    7    8 1
    16    8    9 1
    17    9   10 1
    18    9   42 1
    19    9   43 1
    20   10   11 1
    21   10   44 1
    22   10   45 1
    23   11   12 1
    24   11   46 1
    25   11   47 1
    26   12   13 1
    27   13   18 ar
    28   13   14 ar
    29   14   15 ar
    30   14   48 1
    31   15   16 ar
    32   15   49 1
    33   16   21 1
    34   16   17 ar
    35   17   18 ar
    36   17   19 1
    37   18   50 1
    38   19   20 1
    39   19   51 1
    40   19   52 1
    41   20   21 1
    42   20   53 1
    43   20   54 1
    44   21   22 1
    45   21   23 1
    46   23   24 1
    47   23   55 1
    48   23   56 1
    49   24   25 2
    50   24   26 1
    51   27   31 1
    52   27   28 2
    53   28   29 1
    54   29   30 2
    55   29   32 1
    56   30   31 1
    57   32   33 1
    58   32   34 1
    59   32   35 1
@<TRIPOS>MOLECULE
CHEMBL485188
   69    73     0     0     0
SMALL
USER_CHARGES

@<TRIPOS>ATOM
      1 C1         -0.0184    1.5028    0.0103 C.3       1 <0>        -0.0723
      2 C2          0.0021   -0.0041    0.0020 C.2       1 <0>        -0.0320
      3 C3         -1.0705   -0.8164    0.0025 C.2       1 <0>        -0.0072
      4 N1         -0.6270   -2.0826   -0.0064 N.2       1 <0>        -0.4600
      5 C4          0.6851   -2.0676   -0.0123 C.2       1 <0>         0.2312
      6 O1          1.0981   -0.7883   -0.0131 O.3       1 <0>        -0.1933
      7 C5          1.5619   -3.2577   -0.0227 C.ar      1 <0>        -0.0222
      8 C6          1.0059   -4.5378   -0.0330 C.ar      1 <0>        -0.0659
      9 C7          1.8298   -5.6443   -0.0432 C.ar      1 <0>        -0.1190
     10 C8          3.2044   -5.4871   -0.0433 C.ar      1 <0>        -0.0569
     11 C9          3.7620   -4.2209   -0.0327 C.ar      1 <0>        -0.1165
     12 C10         2.9493   -3.1060   -0.0282 C.ar      1 <0>        -0.0862
     13 C11         4.0982   -6.7003   -0.0544 C.3       1 <0>        -0.0606
     14 C12         4.9801   -6.6726   -1.3044 C.3       1 <0>        -0.1460
     15 C13         4.9827   -6.6937    1.1940 C.3       1 <0>        -0.1454
     16 C14        -2.5133   -0.3814    0.0119 C.3       1 <0>        -0.0332
     17 C15        -3.0085   -0.2260   -1.4274 C.3       1 <0>         0.0661
     18 O2         -4.3766    0.1865   -1.4185 O.3       1 <0>        -0.3117
     19 C16        -4.9730    0.3715   -2.6253 C.ar      1 <0>         0.1601
     20 C17        -4.2582    0.1550   -3.7797 C.ar      1 <0>        -0.2172
     21 C18        -4.8347    0.3345   -5.0292 C.ar      1 <0>        -0.0621
     22 C19        -6.1519    0.7379   -5.1202 C.ar      1 <0>        -0.0581
     23 C20        -6.8814    0.9584   -3.9707 C.ar      1 <0>        -0.0609
     24 C21        -6.3302    0.7810   -2.6843 C.ar      1 <0>        -0.1206
     25 C22        -7.2476    1.0535   -1.5875 C.2       1 <0>        -0.1270
     26 C23        -8.5035    1.4337   -1.8611 C.2       1 <0>        -0.1892
     27 S1         -8.5491    1.4681   -3.6429 S.3       1 <0>         0.0913
     28 C24        -6.7902    0.9370   -6.4708 C.3       1 <0>        -0.0609
     29 C25        -6.6934    2.4113   -6.8682 C.3       1 <0>         0.0323
     30 H1         -5.6521    2.7308   -6.8283 H         1 <0>         0.0484
     31 C26        -7.2203    2.5896   -8.2688 C.2       1 <0>         0.4783
     32 O3         -8.2261    3.2510   -8.4622 O.co2     1 <0>        -0.6757
     33 O4         -6.6407    2.0725   -9.2086 O.co2     1 <0>        -0.7011
     34 O5         -7.4687    3.2004   -5.9636 O.3       1 <0>        -0.3540
     35 C27        -6.9698    4.5260   -5.7741 C.3       1 <0>         0.1026
     36 C28        -7.8726    5.2752   -4.7920 C.3       1 <0>        -0.1376
     37 C29        -8.6245    6.5000   -5.3170 C.3       1 <0>        -0.1738
     38 C30        -7.4402    6.6793   -4.3651 C.3       1 <0>        -0.1835
     39 H2          1.0042    1.8801    0.0026 H         1 <0>         0.0807
     40 H3         -0.5455    1.8639   -0.8728 H         1 <0>         0.0925
     41 H4         -0.5286    1.8543    0.9071 H         1 <0>         0.0928
     42 H5         -0.0670   -4.6619   -0.0326 H         1 <0>         0.1389
     43 H6          1.4008   -6.6354   -0.0508 H         1 <0>         0.1316
     44 H7          4.8357   -4.1050   -0.0321 H         1 <0>         0.1293
     45 H8          3.3858   -2.1181   -0.0249 H         1 <0>         0.1299
     46 H9          3.4864   -7.6023   -0.0614 H         1 <0>         0.0808
     47 H10         5.5920   -5.7705   -1.2974 H         1 <0>         0.0577
     48 H11         5.6266   -7.5501   -1.3125 H         1 <0>         0.0598
     49 H12         4.3500   -6.6773   -2.1938 H         1 <0>         0.0578
     50 H13         4.3544   -6.7134    2.0845 H         1 <0>         0.0570
     51 H14         5.6292   -7.5712    1.1859 H         1 <0>         0.0597
     52 H15         5.5946   -5.7916    1.2010 H         1 <0>         0.0576
     53 H16        -3.1156   -1.1316    0.5243 H         1 <0>         0.0942
     54 H17        -2.6018    0.5726    0.5316 H         1 <0>         0.0925
     55 H18        -2.4061    0.5242   -1.9398 H         1 <0>         0.0624
     56 H19        -2.9200   -1.1800   -1.9471 H         1 <0>         0.0669
     57 H20        -3.2275   -0.1606   -3.7127 H         1 <0>         0.1264
     58 H21        -4.2565    0.1600   -5.9246 H         1 <0>         0.1353
     59 H22        -6.9198    0.9500   -0.5637 H         1 <0>         0.1302
     60 H23        -9.2967    1.6698   -1.1673 H         1 <0>         0.1823
     61 H24        -6.2727    0.3265   -7.2108 H         1 <0>         0.0922
     62 H25        -7.8383    0.6412   -6.4245 H         1 <0>         0.0747
     63 H26        -5.9571    4.4792   -5.3735 H         1 <0>         0.0323
     64 H27        -6.9586    5.0501   -6.7297 H         1 <0>         0.0471
     65 H28        -8.3754    4.6558   -4.0493 H         1 <0>         0.1108
     66 H29        -8.4758    6.7720   -6.3621 H         1 <0>         0.0955
     67 H30        -9.6222    6.6865   -4.9198 H         1 <0>         0.0907
     68 H31        -7.6588    6.9839   -3.3416 H         1 <0>         0.0909
     69 H32        -6.5125    7.0693   -4.7838 H         1 <0>         0.0895
@<TRIPOS>BOND
     1    1    2 1
     2    1   39 1
     3    1   40 1
     4    1   41 1
     5    2    6 1
     6    2    3 2
     7    3    4 1
     8    3   16 1
     9    4    5 2
    10    5    6 1
    11    5    7 1
    12    7   12 ar
    13    7    8 ar
    14    8    9 ar
    15    8   42 1
    16    9   10 ar
    17    9   43 1
    18   10   11 ar
    19   10   13 1
    20   11   12 ar
    21   11   44 1
    22   12   45 1
    23   13   14 1
    24   13   15 1
    25   13   46 1
    26   14   47 1
    27   14   48 1
    28   14   49 1
    29   15   50 1
    30   15   51 1
    31   15   52 1
    32   16   17 1
    33   16   53 1
    34   16   54 1
    35   17   18 1
    36   17   55 1
    37   17   56 1
    38   18   19 1
    39   19   24 ar
    40   19   20 ar
    41   20   21 ar
    42   20   57 1
    43   21   22 ar
    44   21   58 1
    45   22   23 ar
    46   22   28 1
    47   23   27 1
    48   23   24 ar
    49   24   25 1
    50   25   26 2
    51   25   59 1
    52   26   27 1
    53   26   60 1
    54   28   29 1
    55   28   61 1
    56   28   62 1
    57   29   30 1
    58   29   31 1
    59   29   34 1
    60   31   32 2
    61   31   33 1
    62   34   35 1
    63   35   36 1
    64   35   63 1
    65   35   64 1
    66   36   38 1
    67   36   37 1
    68   36   65 1
    69   37   38 1
    70   37   66 1
    71   37   67 1
    72   38   68 1
    73   38   69 1
@<TRIPOS>MOLECULE
CHEMBL214295
   52    54     0     0     0
SMALL
USER_CHARGES

@<TRIPOS>ATOM
      1 C1         -0.0184    1.5028    0.0103 C.3       1 <0>        -0.0957
      2 C2          0.0021   -0.0041    0.0020 C.2       1 <0>         0.1235
      3 C3         -1.0924   -0.8180    0.0026 C.2       1 <0>        -0.3019
      4 C4         -0.5925   -2.2012   -0.0077 C.2       1 <0>         0.1894
      5 N1          0.7147   -2.1331   -0.0136 N.2       1 <0>        -0.2834
      6 O1          1.0949   -0.7716   -0.0130 O.3       1 <0>        -0.0814
      7 C5         -1.4126   -3.4367   -0.0109 C.ar      1 <0>        -0.0712
      8 C6         -2.8040   -3.3530   -0.0095 C.ar      1 <0>        -0.0675
      9 C7         -3.5621   -4.5058   -0.0124 C.ar      1 <0>        -0.1151
     10 C8         -2.9444   -5.7440   -0.0167 C.ar      1 <0>         0.0231
     11 C9         -1.5647   -5.8344   -0.0177 C.ar      1 <0>        -0.1120
     12 C10        -0.7948   -4.6871   -0.0211 C.ar      1 <0>         0.0061
     13 Cl1         0.9374   -4.8016   -0.0301 Cl        1 <0>        -0.0490
     14 C11        -3.7788   -6.9989   -0.0199 C.3       1 <0>        -0.1648
     15 C12        -4.0581   -7.4129   -1.4417 C.2       1 <0>         0.4977
     16 O2         -3.6202   -6.7503   -2.3668 O.co2     1 <0>        -0.6829
     17 O3         -4.7219   -8.4104   -1.6670 O.co2     1 <0>        -0.6957
     18 C13        -2.5027   -0.3936    0.0126 C.2       1 <0>         0.6025
     19 O4         -3.0906   -0.2123   -1.0366 O.2       1 <0>        -0.5161
     20 N2         -3.1418   -0.2063    1.1843 N.am      1 <0>        -0.7226
     21 C14        -4.5446    0.2158    1.1942 C.3       1 <0>         0.1226
     22 C15        -5.0253    0.3543    2.6401 C.3       1 <0>         0.0330
     23 O5         -4.3081    1.4109    3.2813 O.3       1 <0>        -0.2705
     24 C16        -4.6168    1.6669    4.5798 C.ar      1 <0>         0.2297
     25 C17        -5.5862    0.9126    5.2253 C.ar      1 <0>        -0.2119
     26 C18        -5.8978    1.1744    6.5452 C.ar      1 <0>         0.0192
     27 C19        -5.2447    2.1872    7.2233 C.ar      1 <0>        -0.2262
     28 C20        -4.2788    2.9405    6.5823 C.ar      1 <0>         0.0333
     29 C21        -3.9594    2.6788    5.2638 C.ar      1 <0>        -0.0895
     30 N3         -2.9209    3.4816    4.5799 N.pl3     1 <0>         0.0402
     31 O6         -2.3482    4.3634    5.1766 O.2       1 <0>        -0.1703
     32 O7         -2.6453    3.2554    3.4247 O.3       1 <0>        -0.1201
     33 C22        -5.5866    2.4707    8.6634 C.3       1 <0>         0.5191
     34 F1         -6.5839    1.5864    9.0886 F         1 <0>        -0.1713
     35 F2         -4.4457    2.3027    9.4554 F         1 <0>        -0.1703
     36 F3         -6.0478    3.7860    8.7830 F         1 <0>        -0.1710
     37 H1          1.0042    1.8801    0.0026 H         1 <0>         0.0910
     38 H2         -0.5455    1.8639   -0.8728 H         1 <0>         0.1004
     39 H3         -0.5286    1.8543    0.9071 H         1 <0>         0.1036
     40 H4         -3.2877   -2.3874   -0.0058 H         1 <0>         0.1273
     41 H5         -4.6402   -4.4417   -0.0109 H         1 <0>         0.1306
     42 H6         -1.0880   -6.8035   -0.0203 H         1 <0>         0.1359
     43 H7         -3.2384   -7.7958    0.4911 H         1 <0>         0.0767
     44 H8         -4.7206   -6.8103    0.4953 H         1 <0>         0.0771
     45 H9         -2.6729   -0.3509    2.0210 H         1 <0>         0.4059
     46 H10        -4.6388    1.1757    0.6864 H         1 <0>         0.0899
     47 H11        -5.1517   -0.5288    0.6792 H         1 <0>         0.1026
     48 H12        -6.0914    0.5815    2.6483 H         1 <0>         0.0956
     49 H13        -4.8489   -0.5801    3.1727 H         1 <0>         0.0864
     50 H14        -6.0968    0.1217    4.6961 H         1 <0>         0.1665
     51 H15        -6.6525    0.5878    7.0480 H         1 <0>         0.1623
     52 H16        -3.7703    3.7312    7.1140 H         1 <0>         0.1697
@<TRIPOS>BOND
     1    1    2 1
     2    1   37 1
     3    1   38 1
     4    1   39 1
     5    2    6 1
     6    2    3 2
     7    3    4 1
     8    3   18 1
     9    4    5 2
    10    4    7 1
    11    5    6 1
    12    7   12 ar
    13    7    8 ar
    14    8    9 ar
    15    8   40 1
    16    9   10 ar
    17    9   41 1
    18   10   11 ar
    19   10   14 1
    20   11   12 ar
    21   11   42 1
    22   12   13 1
    23   14   15 1
    24   14   43 1
    25   14   44 1
    26   15   16 2
    27   15   17 1
    28   18   19 2
    29   18   20 am
    30   20   21 1
    31   20   45 1
    32   21   22 1
    33   21   46 1
    34   21   47 1
    35   22   23 1
    36   22   48 1
    37   22   49 1
    38   23   24 1
    39   24   29 ar
    40   24   25 ar
    41   25   26 ar
    42   25   50 1
    43   26   27 ar
    44   26   51 1
    45   27   28 ar
    46   27   33 1
    47   28   29 ar
    48   28   52 1
    49   29   30 1
    50   30   31 2
    51   30   32 1
    52   33   34 1
    53   33   35 1
    54   33   36 1
@<TRIPOS>MOLECULE
CHEMBL119791
   57    59     0     0     0
SMALL
USER_CHARGES

@<TRIPOS>ATOM
      1 C1         -0.0187    1.5258    0.0104 C.3       1 <0>        -0.1447
      2 C2          0.0021   -0.0041    0.0020 C.3       1 <0>        -0.0998
      3 C3         -1.4333   -0.5336    0.0129 C.3       1 <0>        -0.1565
      4 C4         -1.4133   -2.0590    0.1302 C.3       1 <0>        -0.0568
      5 C5         -2.8242   -2.5711    0.2645 C.ar      1 <0>        -0.1073
      6 C6         -3.3919   -2.7070    1.5210 C.ar      1 <0>        -0.0508
      7 C7         -4.6835   -3.1750    1.6569 C.ar      1 <0>        -0.2235
      8 C8         -5.4227   -3.5124    0.5328 C.ar      1 <0>         0.1721
      9 C9         -4.8523   -3.3760   -0.7400 C.ar      1 <0>        -0.1738
     10 C10        -3.5458   -2.8966   -0.8633 C.ar      1 <0>        -0.0216
     11 C11        -5.6288   -3.7317   -1.9430 C.2       1 <0>         0.5689
     12 O1         -6.7670   -4.1446   -1.8319 O.2       1 <0>        -0.5315
     13 N1         -5.0764   -3.5990   -3.1652 N.am      1 <0>        -0.7261
     14 C12        -5.8473   -3.9522   -4.3598 C.3       1 <0>         0.1652
     15 C13        -5.0076   -3.7139   -5.5882 C.ar      1 <0>        -0.1029
     16 C14        -5.0334   -2.4795   -6.2117 C.ar      1 <0>        -0.0896
     17 C15        -4.2663   -2.2558   -7.3371 C.ar      1 <0>        -0.1070
     18 C16        -3.4649   -3.2762   -7.8450 C.ar      1 <0>        -0.0434
     19 C17        -3.4428   -4.5178   -7.2129 C.ar      1 <0>        -0.1128
     20 C18        -4.2096   -4.7288   -6.0848 C.ar      1 <0>        -0.0976
     21 C19        -2.6384   -3.0418   -9.0549 C.ar      1 <0>        -0.0403
     22 C20        -2.6565   -1.7986   -9.6838 C.ar      1 <0>        -0.1095
     23 C21        -1.8854   -1.5859  -10.8086 C.ar      1 <0>        -0.1178
     24 C22        -1.0961   -2.6042  -11.3119 C.ar      1 <0>        -0.1229
     25 C23        -1.0747   -3.8404  -10.6917 C.ar      1 <0>        -0.1195
     26 C24        -1.8371   -4.0622   -9.5628 C.ar      1 <0>        -0.1115
     27 O2         -6.6919   -3.9729    0.6648 O.3       1 <0>        -0.2847
     28 C25        -7.2061   -4.0859    1.9933 C.3       1 <0>         0.0234
     29 C26        -2.1247   -0.1373   -1.2662 C.2       1 <0>         0.5056
     30 O3         -1.6815   -0.5094   -2.3393 O.co2     1 <0>        -0.7004
     31 O4         -3.1272    0.5556   -1.2278 O.co2     1 <0>        -0.6987
     32 H1          1.0039    1.9031    0.0027 H         1 <0>         0.0417
     33 H2         -0.5459    1.8868   -0.8726 H         1 <0>         0.0585
     34 H3         -0.5289    1.8773    0.9072 H         1 <0>         0.0456
     35 H4          0.5123   -0.3556   -0.8948 H         1 <0>         0.0634
     36 H5          0.5293   -0.3651    0.8851 H         1 <0>         0.0434
     37 H6         -1.9701   -0.1109    0.8621 H         1 <0>         0.0579
     38 H7         -0.9551   -2.4861   -0.7619 H         1 <0>         0.0744
     39 H8         -0.8366   -2.3483    1.0088 H         1 <0>         0.0573
     40 H9         -2.8204   -2.4456    2.3993 H         1 <0>         0.1248
     41 H10        -5.1189   -3.2789    2.6398 H         1 <0>         0.1295
     42 H11        -3.1007   -2.7852   -1.8409 H         1 <0>         0.1362
     43 H12        -4.1683   -3.2696   -3.2538 H         1 <0>         0.4065
     44 H13        -6.1306   -5.0037   -4.3116 H         1 <0>         0.0745
     45 H14        -6.7451   -3.3359   -4.4082 H         1 <0>         0.0750
     46 H15        -5.6551   -1.6893   -5.8174 H         1 <0>         0.1290
     47 H16        -4.2874   -1.2917   -7.8233 H         1 <0>         0.1271
     48 H17        -2.8238   -5.3123   -7.6026 H         1 <0>         0.1252
     49 H18        -4.1896   -5.6892   -5.5914 H         1 <0>         0.1258
     50 H19        -3.2729   -1.0030   -9.2922 H         1 <0>         0.1269
     51 H20        -1.8986   -0.6226  -11.2969 H         1 <0>         0.1233
     52 H21        -0.4945   -2.4335  -12.1924 H         1 <0>         0.1206
     53 H22        -0.4569   -4.6321  -11.0891 H         1 <0>         0.1223
     54 H23        -1.8162   -5.0265   -9.0768 H         1 <0>         0.1251
     55 H24        -6.5840   -4.7734    2.5665 H         1 <0>         0.0516
     56 H25        -7.1990   -3.1058    2.4703 H         1 <0>         0.0532
     57 H26        -8.2275   -4.4647    1.9566 H         1 <0>         0.0967
@<TRIPOS>BOND
     1    1    2 1
     2    1   32 1
     3    1   33 1
     4    1   34 1
     5    2    3 1
     6    2   35 1
     7    2   36 1
     8    3    4 1
     9    3   29 1
    10    3   37 1
    11    4    5 1
    12    4   38 1
    13    4   39 1
    14    5   10 ar
    15    5    6 ar
    16    6    7 ar
    17    6   40 1
    18    7    8 ar
    19    7   41 1
    20    8    9 ar
    21    8   27 1
    22    9   10 ar
    23    9   11 1
    24   10   42 1
    25   11   12 2
    26   11   13 am
    27   13   14 1
    28   13   43 1
    29   14   15 1
    30   14   44 1
    31   14   45 1
    32   15   20 ar
    33   15   16 ar
    34   16   17 ar
    35   16   46 1
    36   17   18 ar
    37   17   47 1
    38   18   19 ar
    39   18   21 1
    40   19   20 ar
    41   19   48 1
    42   20   49 1
    43   21   26 ar
    44   21   22 ar
    45   22   23 ar
    46   22   50 1
    47   23   24 ar
    48   23   51 1
    49   24   25 ar
    50   24   52 1
    51   25   26 ar
    52   25   53 1
    53   26   54 1
    54   27   28 1
    55   28   55 1
    56   28   56 1
    57   28   57 1
    58   29   30 2
    59   29   31 1
@<TRIPOS>MOLECULE
CHEMBL119791__1
   57    59     0     0     0
SMALL
USER_CHARGES

@<TRIPOS>ATOM
      1 C1         -0.0187    1.5258    0.0104 C.3       1 <0>        -0.1508
      2 C2          0.0021   -0.0041    0.0020 C.3       1 <0>        -0.0911
      3 C3         -1.4333   -0.5336    0.0129 C.3       1 <0>        -0.1569
      4 C4         -1.4157   -2.0577   -0.1212 C.3       1 <0>        -0.0529
      5 C5         -2.8290   -2.5684   -0.2340 C.ar      1 <0>        -0.1027
      6 C6         -3.5348   -2.9026    0.9104 C.ar      1 <0>         0.0318
      7 C7         -4.8301   -3.3715    0.8201 C.ar      1 <0>        -0.2261
      8 C8         -5.4342   -3.5108   -0.4207 C.ar      1 <0>         0.1776
      9 C9         -4.7238   -3.1735   -1.5806 C.ar      1 <0>        -0.1944
     10 C10        -3.4153   -2.6956   -1.4744 C.ar      1 <0>        -0.0520
     11 C11        -5.3558   -3.3174   -2.9060 C.2       1 <0>         0.5696
     12 O1         -6.4962   -3.7297   -2.9942 O.2       1 <0>        -0.5292
     13 N1         -4.6690   -2.9918   -4.0190 N.am      1 <0>        -0.7324
     14 C12        -5.2965   -3.1347   -5.3350 C.3       1 <0>         0.1639
     15 C13        -4.3243   -2.7074   -6.4042 C.ar      1 <0>        -0.1023
     16 C14        -4.2880   -1.3869   -6.8146 C.ar      1 <0>        -0.0957
     17 C15        -3.3995   -0.9901   -7.7934 C.ar      1 <0>        -0.1108
     18 C16        -2.5382   -1.9223   -8.3684 C.ar      1 <0>        -0.0422
     19 C17        -2.5791   -3.2511   -7.9512 C.ar      1 <0>        -0.1120
     20 C18        -3.4677   -3.6359   -6.9676 C.ar      1 <0>        -0.0969
     21 C19        -1.5812   -1.5016   -9.4216 C.ar      1 <0>        -0.0442
     22 C20        -1.5366   -0.1717   -9.8350 C.ar      1 <0>        -0.1102
     23 C21        -0.6442    0.2141  -10.8146 C.ar      1 <0>        -0.1178
     24 C22         0.2046   -0.7166  -11.3860 C.ar      1 <0>        -0.1206
     25 C23         0.1642   -2.0382  -10.9797 C.ar      1 <0>        -0.1184
     26 C24        -0.7199   -2.4339   -9.9965 C.ar      1 <0>        -0.1108
     27 O2         -6.7068   -3.9719   -0.5111 O.3       1 <0>        -0.2889
     28 C25        -7.3679   -4.2960    0.7137 C.3       1 <0>         0.0235
     29 C26        -2.1001   -0.1511    1.3091 C.2       1 <0>         0.4960
     30 O3         -1.4843    0.4861    2.1465 O.co2     1 <0>        -0.6939
     31 O4         -3.2553   -0.4788    1.5203 O.co2     1 <0>        -0.6879
     32 H1          1.0039    1.9031    0.0027 H         1 <0>         0.0343
     33 H2         -0.5459    1.8868   -0.8726 H         1 <0>         0.0336
     34 H3         -0.5289    1.8773    0.9072 H         1 <0>         0.0844
     35 H4          0.5123   -0.3556   -0.8948 H         1 <0>         0.0347
     36 H5          0.5293   -0.3651    0.8851 H         1 <0>         0.0580
     37 H6         -1.9862   -0.1019   -0.8214 H         1 <0>         0.0600
     38 H7         -0.8559   -2.3374   -1.0137 H         1 <0>         0.0567
     39 H8         -0.9406   -2.4942    0.7573 H         1 <0>         0.0628
     40 H9         -3.0689   -2.7959    1.8789 H         1 <0>         0.1268
     41 H10        -5.3737   -3.6306    1.7167 H         1 <0>         0.1267
     42 H11        -2.8627   -2.4300   -2.3635 H         1 <0>         0.1198
     43 H12        -3.7592   -2.6629   -3.9486 H         1 <0>         0.3997
     44 H13        -5.5758   -4.1764   -5.4932 H         1 <0>         0.0746
     45 H14        -6.1874   -2.5084   -5.3827 H         1 <0>         0.0748
     46 H15        -4.9562   -0.6653   -6.3686 H         1 <0>         0.1283
     47 H16        -3.3722    0.0411   -8.1134 H         1 <0>         0.1269
     48 H17        -1.9140   -3.9779   -8.3937 H         1 <0>         0.1263
     49 H18        -3.4969   -4.6646   -6.6400 H         1 <0>         0.1274
     50 H19        -2.1994    0.5557   -9.3900 H         1 <0>         0.1261
     51 H20        -0.6088    1.2447  -11.1358 H         1 <0>         0.1240
     52 H21         0.9011   -0.4104  -12.1525 H         1 <0>         0.1218
     53 H22         0.8290   -2.7609  -11.4294 H         1 <0>         0.1236
     54 H23        -0.7475   -3.4651   -9.6768 H         1 <0>         0.1256
     55 H24        -6.8100   -5.0756    1.2325 H         1 <0>         0.0518
     56 H25        -7.4222   -3.4078    1.3433 H         1 <0>         0.0552
     57 H26        -8.3757   -4.6517    0.4995 H         1 <0>         0.0949
@<TRIPOS>BOND
     1    1    2 1
     2    1   32 1
     3    1   33 1
     4    1   34 1
     5    2    3 1
     6    2   35 1
     7    2   36 1
     8    3    4 1
     9    3   29 1
    10    3   37 1
    11    4    5 1
    12    4   38 1
    13    4   39 1
    14    5   10 ar
    15    5    6 ar
    16    6    7 ar
    17    6   40 1
    18    7    8 ar
    19    7   41 1
    20    8    9 ar
    21    8   27 1
    22    9   10 ar
    23    9   11 1
    24   10   42 1
    25   11   12 2
    26   11   13 am
    27   13   14 1
    28   13   43 1
    29   14   15 1
    30   14   44 1
    31   14   45 1
    32   15   20 ar
    33   15   16 ar
    34   16   17 ar
    35   16   46 1
    36   17   18 ar
    37   17   47 1
    38   18   19 ar
    39   18   21 1
    40   19   20 ar
    41   19   48 1
    42   20   49 1
    43   21   26 ar
    44   21   22 ar
    45   22   23 ar
    46   22   50 1
    47   23   24 ar
    48   23   51 1
    49   24   25 ar
    50   24   52 1
    51   25   26 ar
    52   25   53 1
    53   26   54 1
    54   27   28 1
    55   28   55 1
    56   28   56 1
    57   28   57 1
    58   29   30 2
    59   29   31 1
@<TRIPOS>MOLECULE
CHEMBL199855
   53    56     0     0     0
SMALL
USER_CHARGES

@<TRIPOS>ATOM
      1 C1         -0.0187    1.5258    0.0104 C.3       1 <0>        -0.1443
      2 C2          0.0021   -0.0041    0.0020 C.3       1 <0>        -0.1046
      3 C3         -1.4333   -0.5336    0.0129 C.3       1 <0>        -0.1399
      4 C4         -1.4133   -2.0590    0.1302 C.3       1 <0>        -0.0272
      5 C5         -2.8531   -2.6087    0.2133 C.3       1 <0>        -0.1158
      6 C6         -3.0960   -2.6732    1.7361 C.3       1 <0>        -0.0787
      7 C7         -1.7213   -2.8306    2.3502 C.ar      1 <0>        -0.0574
      8 C8         -0.7538   -2.4774    1.4271 C.ar      1 <0>        -0.1034
      9 C9          0.5862   -2.5438    1.7707 C.ar      1 <0>        -0.0685
     10 C10         0.9619   -2.9620    3.0316 C.ar      1 <0>        -0.2095
     11 C11        -0.0066   -3.3168    3.9590 C.ar      1 <0>         0.1177
     12 C12        -1.3479   -3.2496    3.6149 C.ar      1 <0>        -0.1405
     13 O1          0.3584   -3.7297    5.2013 O.3       1 <0>        -0.3161
     14 C13         1.7582   -3.7745    5.4848 C.3       1 <0>         0.0684
     15 C14         1.9726   -4.2594    6.9200 C.3       1 <0>        -0.0353
     16 C15         3.4489   -4.3067    7.2191 C.2       1 <0>        -0.0046
     17 C16         4.2641   -5.3577    7.0182 C.2       1 <0>        -0.0242
     18 O2          5.4996   -4.9893    7.4141 O.3       1 <0>        -0.1824
     19 C17         5.4265   -3.7192    7.8521 C.2       1 <0>         0.2564
     20 N1          4.1840   -3.3061    7.7274 N.2       1 <0>        -0.4436
     21 C18         6.5473   -2.9252    8.3759 C.2       1 <0>         0.0535
     22 C19         7.8386   -3.3452    8.4962 C.2       1 <0>        -0.1522
     23 C20         8.5655   -2.2691    9.0382 C.2       1 <0>        -0.2159
     24 C21         7.6950   -1.2552    9.2211 C.2       1 <0>        -0.0080
     25 O3          6.4788   -1.6528    8.8156 O.3       1 <0>        -0.1464
     26 C22         3.8697   -6.6988    6.4553 C.3       1 <0>        -0.0724
     27 C23        -2.1247   -0.1373   -1.2662 C.2       1 <0>         0.5047
     28 O4         -1.6815   -0.5094   -2.3393 O.co2     1 <0>        -0.6986
     29 O5         -3.1272    0.5556   -1.2278 O.co2     1 <0>        -0.7028
     30 H1          1.0039    1.9031    0.0027 H         1 <0>         0.0407
     31 H2         -0.5459    1.8868   -0.8726 H         1 <0>         0.0580
     32 H3         -0.5289    1.8773    0.9072 H         1 <0>         0.0453
     33 H4          0.5123   -0.3556   -0.8948 H         1 <0>         0.0611
     34 H5          0.5293   -0.3651    0.8851 H         1 <0>         0.0491
     35 H6         -1.9701   -0.1109    0.8621 H         1 <0>         0.0583
     36 H7         -0.8884   -2.4962   -0.7192 H         1 <0>         0.0800
     37 H8         -3.5566   -1.9256   -0.2627 H         1 <0>         0.0872
     38 H9         -2.9148   -3.6020   -0.2313 H         1 <0>         0.0648
     39 H10        -3.5624   -1.7515    2.0840 H         1 <0>         0.0826
     40 H11        -3.7211   -3.5312    1.9833 H         1 <0>         0.0711
     41 H12         1.3406   -2.2676    1.0489 H         1 <0>         0.1223
     42 H13         2.0079   -3.0131    3.2953 H         1 <0>         0.1220
     43 H14        -2.1033   -3.5255    4.3358 H         1 <0>         0.1242
     44 H15         2.2473   -4.4601    4.7928 H         1 <0>         0.0613
     45 H16         2.1842   -2.7777    5.3706 H         1 <0>         0.0653
     46 H17         1.4835   -3.5738    7.6120 H         1 <0>         0.0961
     47 H18         1.5467   -5.2562    7.0343 H         1 <0>         0.0946
     48 H19         8.2283   -4.3161    8.2279 H         1 <0>         0.1592
     49 H20         9.6213   -2.2574    9.2652 H         1 <0>         0.1596
     50 H21         7.9373   -0.2828    9.6238 H         1 <0>         0.2153
     51 H22         3.9773   -6.6836    5.3707 H         1 <0>         0.0912
     52 H23         4.5140   -7.4721    6.8735 H         1 <0>         0.0832
     53 H24         2.8324   -6.9108    6.7145 H         1 <0>         0.0990
@<TRIPOS>BOND
     1    1    2 1
     2    1   30 1
     3    1   31 1
     4    1   32 1
     5    2    3 1
     6    2   33 1
     7    2   34 1
     8    3    4 1
     9    3   27 1
    10    3   35 1
    11    4    8 1
    12    4    5 1
    13    4   36 1
    14    5    6 1
    15    5   37 1
    16    5   38 1
    17    6    7 1
    18    6   39 1
    19    6   40 1
    20    7   12 ar
    21    7    8 ar
    22    8    9 ar
    23    9   10 ar
    24    9   41 1
    25   10   11 ar
    26   10   42 1
    27   11   12 ar
    28   11   13 1
    29   12   43 1
    30   13   14 1
    31   14   15 1
    32   14   44 1
    33   14   45 1
    34   15   16 1
    35   15   46 1
    36   15   47 1
    37   16   20 1
    38   16   17 2
    39   17   18 1
    40   17   26 1
    41   18   19 1
    42   19   20 2
    43   19   21 1
    44   21   25 1
    45   21   22 2
    46   22   23 1
    47   22   48 1
    48   23   24 2
    49   23   49 1
    50   24   25 1
    51   24   50 1
    52   26   51 1
    53   26   52 1
    54   26   53 1
    55   27   28 2
    56   27   29 1
@<TRIPOS>MOLECULE
CHEMBL199855__1
   53    56     0     0     0
SMALL
USER_CHARGES

@<TRIPOS>ATOM
      1 C1         -0.0187    1.5258    0.0104 C.3       1 <0>        -0.1450
      2 C2          0.0021   -0.0041    0.0020 C.3       1 <0>        -0.1006
      3 C3         -1.4333   -0.5336    0.0129 C.3       1 <0>        -0.1489
      4 C4         -1.4133   -2.0590    0.1302 C.3       1 <0>        -0.0284
      5 C5         -0.7712   -2.4848    1.4676 C.3       1 <0>        -0.1156
      6 C6         -1.5777   -3.7484    1.8351 C.3       1 <0>        -0.0756
      7 C7         -2.9205   -3.5718    1.1588 C.ar      1 <0>        -0.0719
      8 C8         -2.8261   -2.6007    0.1786 C.ar      1 <0>        -0.1053
      9 C9         -3.9396   -2.2691   -0.5753 C.ar      1 <0>        -0.0499
     10 C10        -5.1451   -2.9041   -0.3533 C.ar      1 <0>        -0.2071
     11 C11        -5.2423   -3.8783    0.6293 C.ar      1 <0>         0.1168
     12 C12        -4.1276   -4.2098    1.3840 C.ar      1 <0>        -0.1493
     13 O1         -6.4271   -4.5056    0.8520 O.3       1 <0>        -0.3179
     14 C13        -7.5328   -4.1122    0.0368 C.3       1 <0>         0.0667
     15 C14        -8.7701   -4.9215    0.4304 C.3       1 <0>        -0.0336
     16 C15        -9.9362   -4.5065   -0.4293 C.2       1 <0>        -0.0050
     17 C16       -10.8120   -3.5232   -0.1546 C.2       1 <0>        -0.0223
     18 O2        -11.6956   -3.4761   -1.1725 O.3       1 <0>        -0.1823
     19 C17       -11.3510   -4.4297   -2.0570 C.2       1 <0>         0.2543
     20 N1        -10.2812   -5.0486   -1.6071 N.2       1 <0>        -0.4430
     21 C18       -12.0488   -4.7257   -3.3165 C.2       1 <0>         0.0561
     22 C19       -13.1507   -4.0794   -3.7923 C.2       1 <0>        -0.1533
     23 C20       -13.4774   -4.6858   -5.0193 C.2       1 <0>        -0.2156
     24 C21       -12.5711   -5.6616   -5.2327 C.2       1 <0>        -0.0097
     25 O3        -11.7073   -5.6797   -4.2055 O.3       1 <0>        -0.1465
     26 C22       -10.8071   -2.6381    1.0651 C.3       1 <0>        -0.0730
     27 C23        -2.1247   -0.1373   -1.2662 C.2       1 <0>         0.5060
     28 O4         -1.6815   -0.5094   -2.3393 O.co2     1 <0>        -0.6991
     29 O5         -3.1272    0.5556   -1.2278 O.co2     1 <0>        -0.7016
     30 H1          1.0039    1.9031    0.0027 H         1 <0>         0.0415
     31 H2         -0.5459    1.8868   -0.8726 H         1 <0>         0.0578
     32 H3         -0.5289    1.8773    0.9072 H         1 <0>         0.0456
     33 H4          0.5123   -0.3556   -0.8948 H         1 <0>         0.0622
     34 H5          0.5293   -0.3651    0.8851 H         1 <0>         0.0463
     35 H6         -1.9701   -0.1109    0.8621 H         1 <0>         0.0586
     36 H7         -0.8695   -2.4951   -0.7078 H         1 <0>         0.0848
     37 H8          0.2835   -2.7242    1.3321 H         1 <0>         0.0714
     38 H9         -0.8997   -1.7098    2.2232 H         1 <0>         0.0701
     39 H10        -1.0777   -4.6397    1.4562 H         1 <0>         0.0767
     40 H11        -1.7043   -3.8153    2.9156 H         1 <0>         0.0700
     41 H12        -3.8643   -1.5107   -1.3405 H         1 <0>         0.1486
     42 H13        -6.0110   -2.6426   -0.9433 H         1 <0>         0.1215
     43 H14        -4.2014   -4.9681    2.1494 H         1 <0>         0.1208
     44 H15        -7.7318   -3.0504    0.1822 H         1 <0>         0.0628
     45 H16        -7.2958   -4.2973   -1.0109 H         1 <0>         0.0656
     46 H17        -8.5712   -5.9832    0.2850 H         1 <0>         0.0949
     47 H18        -9.0072   -4.7363    1.4781 H         1 <0>         0.0938
     48 H19       -13.6723   -3.2607   -3.3189 H         1 <0>         0.1592
     49 H20       -14.2991   -4.4202   -5.6678 H         1 <0>         0.1592
     50 H21       -12.5429   -6.3176   -6.0901 H         1 <0>         0.2148
     51 H22       -10.2041   -1.7516    0.8684 H         1 <0>         0.0929
     52 H23       -11.8282   -2.3381    1.3005 H         1 <0>         0.0828
     53 H24       -10.3854   -3.1845    1.9088 H         1 <0>         0.0988
@<TRIPOS>BOND
     1    1    2 1
     2    1   30 1
     3    1   31 1
     4    1   32 1
     5    2    3 1
     6    2   33 1
     7    2   34 1
     8    3    4 1
     9    3   27 1
    10    3   35 1
    11    4    8 1
    12    4    5 1
    13    4   36 1
    14    5    6 1
    15    5   37 1
    16    5   38 1
    17    6    7 1
    18    6   39 1
    19    6   40 1
    20    7   12 ar
    21    7    8 ar
    22    8    9 ar
    23    9   10 ar
    24    9   41 1
    25   10   11 ar
    26   10   42 1
    27   11   12 ar
    28   11   13 1
    29   12   43 1
    30   13   14 1
    31   14   15 1
    32   14   44 1
    33   14   45 1
    34   15   16 1
    35   15   46 1
    36   15   47 1
    37   16   20 1
    38   16   17 2
    39   17   18 1
    40   17   26 1
    41   18   19 1
    42   19   20 2
    43   19   21 1
    44   21   25 1
    45   21   22 2
    46   22   23 1
    47   22   48 1
    48   23   24 2
    49   23   49 1
    50   24   25 1
    51   24   50 1
    52   26   51 1
    53   26   52 1
    54   26   53 1
    55   27   28 2
    56   27   29 1
@<TRIPOS>MOLECULE
CHEMBL199855__2
   53    56     0     0     0
SMALL
USER_CHARGES

@<TRIPOS>ATOM
      1 C1         -0.0187    1.5258    0.0104 C.3       1 <0>        -0.1509
      2 C2          0.0021   -0.0041    0.0020 C.3       1 <0>        -0.0924
      3 C3         -1.4333   -0.5336    0.0129 C.3       1 <0>        -0.1452
      4 C4         -1.4157   -2.0577   -0.1212 C.3       1 <0>        -0.0259
      5 C5         -0.7993   -2.4690   -1.4751 C.3       1 <0>        -0.1209
      6 C6         -2.0414   -2.5821   -2.3841 C.3       1 <0>        -0.0735
      7 C7         -3.1888   -2.9005   -1.4494 C.ar      1 <0>        -0.0711
      8 C8         -2.8292   -2.5990   -0.1484 C.ar      1 <0>        -0.0979
      9 C9         -3.7280   -2.8107    0.8838 C.ar      1 <0>         0.0074
     10 C10        -4.9828   -3.3226    0.6205 C.ar      1 <0>        -0.2190
     11 C11        -5.3456   -3.6259   -0.6835 C.ar      1 <0>         0.1184
     12 C12        -4.4459   -3.4132   -1.7166 C.ar      1 <0>        -0.1580
     13 O1         -6.5795   -4.1307   -0.9475 O.3       1 <0>        -0.3196
     14 C13        -7.4534   -4.3240    0.1665 C.3       1 <0>         0.0687
     15 C14        -8.7856   -4.8949   -0.3235 C.3       1 <0>        -0.0348
     16 C15        -9.7072   -5.0987    0.8513 C.2       1 <0>        -0.0024
     17 C16        -9.8021   -6.2128    1.5992 C.2       1 <0>        -0.0258
     18 O2        -10.7382   -5.9847    2.5429 O.3       1 <0>        -0.1830
     19 C17       -11.2048   -4.7357    2.3621 C.2       1 <0>         0.2545
     20 N1        -10.5743   -4.1990    1.3401 N.2       1 <0>        -0.4420
     21 C18       -12.2401   -4.0795    3.1735 C.2       1 <0>         0.0561
     22 C19       -12.8880   -4.6275    4.2404 C.2       1 <0>        -0.1538
     23 C20       -13.7877   -3.6535    4.7115 C.2       1 <0>        -0.2163
     24 C21       -13.6490   -2.5702    3.9203 C.2       1 <0>        -0.0087
     25 O3        -12.7105   -2.8287    2.9961 O.3       1 <0>        -0.1458
     26 C22        -9.0094   -7.4813    1.4161 C.3       1 <0>        -0.0713
     27 C23        -2.1001   -0.1511    1.3091 C.2       1 <0>         0.4956
     28 O4         -1.4843    0.4861    2.1465 O.co2     1 <0>        -0.6952
     29 O5         -3.2553   -0.4788    1.5203 O.co2     1 <0>        -0.6873
     30 H1          1.0039    1.9031    0.0027 H         1 <0>         0.0339
     31 H2         -0.5459    1.8868   -0.8726 H         1 <0>         0.0334
     32 H3         -0.5289    1.8773    0.9072 H         1 <0>         0.0840
     33 H4          0.5123   -0.3556   -0.8948 H         1 <0>         0.0388
     34 H5          0.5293   -0.3651    0.8851 H         1 <0>         0.0571
     35 H6         -1.9862   -0.1019   -0.8214 H         1 <0>         0.0593
     36 H7         -0.8561   -2.5026    0.7016 H         1 <0>         0.0667
     37 H8         -0.1199   -1.6993   -1.8413 H         1 <0>         0.0776
     38 H9         -0.2904   -3.4294   -1.3932 H         1 <0>         0.0648
     39 H10        -2.2222   -1.6372   -2.8967 H         1 <0>         0.0752
     40 H11        -1.9086   -3.3864   -3.1077 H         1 <0>         0.0672
     41 H12        -3.4459   -2.5747    1.8992 H         1 <0>         0.1292
     42 H13        -5.6804   -3.4870    1.4284 H         1 <0>         0.1171
     43 H14        -4.7268   -3.6488   -2.7325 H         1 <0>         0.1169
     44 H15        -6.9966   -5.0199    0.8701 H         1 <0>         0.0600
     45 H16        -7.6276   -3.3687    0.6616 H         1 <0>         0.0659
     46 H17        -9.2424   -4.1989   -1.0271 H         1 <0>         0.0951
     47 H18        -8.6114   -5.8502   -0.8186 H         1 <0>         0.0932
     48 H19       -12.7396   -5.6176    4.6455 H         1 <0>         0.1589
     49 H20       -14.4625   -3.7546    5.5487 H         1 <0>         0.1591
     50 H21       -14.1994   -1.6460    4.0166 H         1 <0>         0.2148
     51 H22        -8.0929   -7.4250    2.0034 H         1 <0>         0.0913
     52 H23        -9.6032   -8.3322    1.7500 H         1 <0>         0.0821
     53 H24        -8.7587   -7.6042    0.3624 H         1 <0>         0.0986
@<TRIPOS>BOND
     1    1    2 1
     2    1   30 1
     3    1   31 1
     4    1   32 1
     5    2    3 1
     6    2   33 1
     7    2   34 1
     8    3    4 1
     9    3   27 1
    10    3   35 1
    11    4    8 1
    12    4    5 1
    13    4   36 1
    14    5    6 1
    15    5   37 1
    16    5   38 1
    17    6    7 1
    18    6   39 1
    19    6   40 1
    20    7   12 ar
    21    7    8 ar
    22    8    9 ar
    23    9   10 ar
    24    9   41 1
    25   10   11 ar
    26   10   42 1
    27   11   12 ar
    28   11   13 1
    29   12   43 1
    30   13   14 1
    31   14   15 1
    32   14   44 1
    33   14   45 1
    34   15   16 1
    35   15   46 1
    36   15   47 1
    37   16   20 1
    38   16   17 2
    39   17   18 1
    40   17   26 1
    41   18   19 1
    42   19   20 2
    43   19   21 1
    44   21   25 1
    45   21   22 2
    46   22   23 1
    47   22   48 1
    48   23   24 2
    49   23   49 1
    50   24   25 1
    51   24   50 1
    52   26   51 1
    53   26   52 1
    54   26   53 1
    55   27   28 2
    56   27   29 1
@<TRIPOS>MOLECULE
CHEMBL199855__3
   53    56     0     0     0
SMALL
USER_CHARGES

@<TRIPOS>ATOM
      1 C1         -2.0665    1.3644    1.5092 C.3       1 <0>        -0.1491
      2 C2         -2.0793   -0.1570    1.3477 C.3       1 <0>        -0.0913
      3 C3         -1.4333   -0.5336    0.0129 C.3       1 <0>        -0.1536
      4 C4         -1.2979   -2.0550   -0.0769 C.3       1 <0>        -0.0274
      5 C5         -2.6890   -2.7092   -0.2150 C.3       1 <0>        -0.1152
      6 C6         -2.3989   -3.9137   -1.1354 C.3       1 <0>        -0.0759
      7 C7         -1.1841   -3.5110   -1.9439 C.ar      1 <0>        -0.0606
      8 C8         -0.5510   -2.4425   -1.3354 C.ar      1 <0>        -0.0709
      9 C9          0.5914   -1.9021   -1.9021 C.ar      1 <0>        -0.0468
     10 C10         1.1023   -2.4254   -3.0729 C.ar      1 <0>        -0.2042
     11 C11         0.4690   -3.4969   -3.6851 C.ar      1 <0>         0.1139
     12 C12        -0.6746   -4.0375   -3.1177 C.ar      1 <0>        -0.1398
     13 O1          0.9679   -4.0150   -4.8382 O.3       1 <0>        -0.3183
     14 C13         2.1488   -3.4069   -5.3652 C.3       1 <0>         0.0690
     15 C14         2.5571   -4.1199   -6.6558 C.3       1 <0>        -0.0349
     16 C15         3.8024   -3.4786   -7.2116 C.2       1 <0>        -0.0048
     17 C16         3.8444   -2.4476   -8.0747 C.2       1 <0>        -0.0206
     18 O2          5.1436   -2.1803   -8.3184 O.3       1 <0>        -0.1826
     19 C17         5.8808   -3.0492   -7.6029 C.2       1 <0>         0.2515
     20 N1          5.0657   -3.8310   -6.9287 N.2       1 <0>        -0.4428
     21 C18         7.3492   -3.1107   -7.5748 C.2       1 <0>         0.0572
     22 C19         8.1979   -2.2954   -8.2628 C.2       1 <0>        -0.1542
     23 C20         9.5044   -2.7071   -7.9411 C.2       1 <0>        -0.2152
     24 C21         9.3938   -3.7415   -7.0826 C.2       1 <0>        -0.0108
     25 O3          8.0917   -3.9793   -6.8597 O.3       1 <0>        -0.1468
     26 C22         2.6589   -1.7253   -8.6611 C.3       1 <0>        -0.0740
     27 C23        -2.2951   -0.0383   -1.1198 C.2       1 <0>         0.5016
     28 O4         -3.3301    0.5604   -0.8815 O.co2     1 <0>        -0.6993
     29 O5         -1.9574   -0.2363   -2.2745 O.co2     1 <0>        -0.6876
     30 H1         -2.5267    1.6327    2.4601 H         1 <0>         0.0344
     31 H2         -1.0374    1.7231    1.4896 H         1 <0>         0.0330
     32 H3         -2.6261    1.8212    0.6930 H         1 <0>         0.0819
     33 H4         -1.5197   -0.6138    2.1639 H         1 <0>         0.0333
     34 H5         -3.1084   -0.5158    1.3673 H         1 <0>         0.0605
     35 H6         -0.4462   -0.0764   -0.0548 H         1 <0>         0.0565
     36 H7         -0.7825   -2.4408    0.8027 H         1 <0>         0.0678
     37 H8         -3.0582   -3.0428    0.7548 H         1 <0>         0.0653
     38 H9         -3.3945   -2.0238   -0.6845 H         1 <0>         0.0865
     39 H10        -2.1804   -4.8004   -0.5404 H         1 <0>         0.0723
     40 H11        -3.2473   -4.0990   -1.7943 H         1 <0>         0.0703
     41 H12         1.0848   -1.0678   -1.4258 H         1 <0>         0.1123
     42 H13         1.9933   -2.0011   -3.5116 H         1 <0>         0.1174
     43 H14        -1.1690   -4.8718   -3.5930 H         1 <0>         0.1192
     44 H15         1.9526   -2.3559   -5.5771 H         1 <0>         0.0617
     45 H16         2.9548   -3.4861   -4.6357 H         1 <0>         0.0626
     46 H17         2.7533   -5.1709   -6.4438 H         1 <0>         0.0947
     47 H18         1.7511   -4.0407   -7.3853 H         1 <0>         0.0947
     48 H19         7.9211   -1.4896   -8.9265 H         1 <0>         0.1592
     49 H20        10.4227   -2.2763   -8.3119 H         1 <0>         0.1591
     50 H21        10.2169   -4.2860   -6.6441 H         1 <0>         0.2146
     51 H22         2.3849   -0.8918   -8.0143 H         1 <0>         0.0935
     52 H23         2.9165   -1.3478   -9.6507 H         1 <0>         0.0829
     53 H24         1.8178   -2.4137   -8.7425 H         1 <0>         0.1001
@<TRIPOS>BOND
     1    1    2 1
     2    1   30 1
     3    1   31 1
     4    1   32 1
     5    2    3 1
     6    2   33 1
     7    2   34 1
     8    3    4 1
     9    3   27 1
    10    3   35 1
    11    4    8 1
    12    4    5 1
    13    4   36 1
    14    5    6 1
    15    5   37 1
    16    5   38 1
    17    6    7 1
    18    6   39 1
    19    6   40 1
    20    7   12 ar
    21    7    8 ar
    22    8    9 ar
    23    9   10 ar
    24    9   41 1
    25   10   11 ar
    26   10   42 1
    27   11   12 ar
    28   11   13 1
    29   12   43 1
    30   13   14 1
    31   14   15 1
    32   14   44 1
    33   14   45 1
    34   15   16 1
    35   15   46 1
    36   15   47 1
    37   16   20 1
    38   16   17 2
    39   17   18 1
    40   17   26 1
    41   18   19 1
    42   19   20 2
    43   19   21 1
    44   21   25 1
    45   21   22 2
    46   22   23 1
    47   22   48 1
    48   23   24 2
    49   23   49 1
    50   24   25 1
    51   24   50 1
    52   26   51 1
    53   26   52 1
    54   26   53 1
    55   27   28 2
    56   27   29 1
@<TRIPOS>MOLECULE
CHEMBL23296
   52    54     0     0     0
SMALL
USER_CHARGES

@<TRIPOS>ATOM
      1 C1         -0.0187    1.5258    0.0104 C.3       1 <0>        -0.1518
      2 C2          0.0021   -0.0041    0.0020 C.3       1 <0>        -0.1173
      3 C3          0.7182   -0.4975   -1.2568 C.3       1 <0>        -0.0692
      4 C4          0.7386   -2.0043   -1.2651 C.ar      1 <0>        -0.1238
      5 C5          1.7874   -2.6879   -0.6752 C.ar      1 <0>         0.2033
      6 C6          1.8138   -4.0805   -0.6786 C.ar      1 <0>        -0.2160
      7 C7          0.8051   -4.7902   -1.2640 C.ar      1 <0>         0.0018
      8 C8         -0.2622   -4.1169   -1.8640 C.ar      1 <0>        -0.2136
      9 C9         -0.2971   -2.7116   -1.8592 C.ar      1 <0>         0.1305
     10 O1         -1.4279   -2.3410   -2.4934 O.3       1 <0>        -0.0563
     11 N1         -2.1323   -3.4949   -2.9061 N.2       1 <0>        -0.2266
     12 C10        -1.4728   -4.5582   -2.5610 C.2       1 <0>         0.0488
     13 C11        -1.8852   -5.9851   -2.8158 C.3       1 <0>         0.5553
     14 F1         -2.6666   -6.4423   -1.7492 F         1 <0>        -0.1559
     15 F2         -2.6274   -6.0518   -3.9998 F         1 <0>        -0.1568
     16 F3         -0.7443   -6.7860   -2.9349 F         1 <0>        -0.1546
     17 O2          2.7986   -1.9959   -0.0891 O.3       1 <0>        -0.2942
     18 C12         3.8511   -2.7608    0.5018 C.3       1 <0>         0.0597
     19 C13         4.8906   -1.8155    1.1073 C.3       1 <0>        -0.1007
     20 C14         6.0175   -2.6345    1.7400 C.3       1 <0>        -0.1177
     21 S1          7.2500   -1.5137    2.4579 S.3       1 <0>        -0.0907
     22 C15         8.4645   -2.5945    3.1373 C.ar      1 <0>        -0.1058
     23 C16         8.3122   -3.9710    3.0260 C.ar      1 <0>        -0.1173
     24 C17         9.2662   -4.8152    3.5591 C.ar      1 <0>        -0.0943
     25 C18        10.3725   -4.2924    4.2040 C.ar      1 <0>        -0.0040
     26 C19        10.5280   -2.9230    4.3175 C.ar      1 <0>        -0.0905
     27 C20         9.5807   -2.0718    3.7811 C.ar      1 <0>        -0.0095
     28 Cl1         9.7802   -0.3527    3.9171 Cl        1 <0>        -0.0679
     29 C21        11.4108   -5.2175    4.7847 C.3       1 <0>        -0.1611
     30 C22        12.4647   -5.5046    3.7466 C.2       1 <0>         0.4971
     31 O3         12.3806   -5.0044    2.6379 O.co2     1 <0>        -0.6855
     32 O4         13.4016   -6.2370    4.0154 O.co2     1 <0>        -0.6979
     33 H1          1.0039    1.9031    0.0027 H         1 <0>         0.0570
     34 H2         -0.5459    1.8868   -0.8726 H         1 <0>         0.0541
     35 H3         -0.5289    1.8773    0.9072 H         1 <0>         0.0551
     36 H4          0.5293   -0.3651    0.8851 H         1 <0>         0.0655
     37 H5         -1.0205   -0.3814    0.0098 H         1 <0>         0.0592
     38 H6          0.1910   -0.1364   -2.1398 H         1 <0>         0.0749
     39 H7          1.7408   -0.1202   -1.2645 H         1 <0>         0.0862
     40 H8          2.6380   -4.6024   -0.2152 H         1 <0>         0.1494
     41 H9          0.8322   -5.8699   -1.2636 H         1 <0>         0.1449
     42 H10         3.4411   -3.3992    1.2844 H         1 <0>         0.0731
     43 H11         4.3234   -3.3793   -0.2614 H         1 <0>         0.0738
     44 H12         5.3007   -1.1771    0.3248 H         1 <0>         0.0883
     45 H13         4.4184   -1.1969    1.8705 H         1 <0>         0.0876
     46 H14         5.6075   -3.2729    2.5226 H         1 <0>         0.0905
     47 H15         6.4898   -3.2530    0.9768 H         1 <0>         0.0920
     48 H16         7.4484   -4.3804    2.5233 H         1 <0>         0.1239
     49 H17         9.1481   -5.8853    3.4728 H         1 <0>         0.1260
     50 H18        11.3929   -2.5183    4.8220 H         1 <0>         0.1325
     51 H19        11.8735   -4.7458    5.6515 H         1 <0>         0.0741
     52 H20        10.9366   -6.1507    5.0888 H         1 <0>         0.0744
@<TRIPOS>BOND
     1    1    2 1
     2    1   33 1
     3    1   34 1
     4    1   35 1
     5    2    3 1
     6    2   36 1
     7    2   37 1
     8    3    4 1
     9    3   38 1
    10    3   39 1
    11    4    9 ar
    12    4    5 ar
    13    5    6 ar
    14    5   17 1
    15    6    7 ar
    16    6   40 1
    17    7    8 ar
    18    7   41 1
    19    8   12 1
    20    8    9 ar
    21    9   10 1
    22   10   11 1
    23   11   12 2
    24   12   13 1
    25   13   14 1
    26   13   15 1
    27   13   16 1
    28   17   18 1
    29   18   19 1
    30   18   42 1
    31   18   43 1
    32   19   20 1
    33   19   44 1
    34   19   45 1
    35   20   21 1
    36   20   46 1
    37   20   47 1
    38   21   22 1
    39   22   27 ar
    40   22   23 ar
    41   23   24 ar
    42   23   48 1
    43   24   25 ar
    44   24   49 1
    45   25   26 ar
    46   25   29 1
    47   26   27 ar
    48   26   50 1
    49   27   28 1
    50   29   30 1
    51   29   51 1
    52   29   52 1
    53   30   31 2
    54   30   32 1
@<TRIPOS>MOLECULE
CHEMBL355695
   54    57     0     0     0
SMALL
USER_CHARGES

@<TRIPOS>ATOM
      1 C1         -0.0187    1.5258    0.0104 C.3       1 <0>        -0.1432
      2 C2          0.0021   -0.0041    0.0020 C.3       1 <0>         0.0661
      3 O1         -1.3386   -0.4987    0.0122 O.3       1 <0>        -0.3679
      4 C3         -1.4321   -1.9246    0.0054 C.3       1 <0>         0.0329
      5 H1         -0.5629   -2.3481    0.5087 H         1 <0>         0.0489
      6 C4         -2.7050   -2.3557    0.7365 C.3       1 <0>        -0.0617
      7 C5         -2.6049   -1.9696    2.1898 C.ar      1 <0>        -0.0917
      8 C6         -2.0530   -2.8506    3.1014 C.ar      1 <0>        -0.0824
      9 C7         -1.9604   -2.4992    4.4343 C.ar      1 <0>        -0.1479
     10 C8         -2.4214   -1.2611    4.8576 C.ar      1 <0>         0.1082
     11 C9         -2.9743   -0.3788    3.9408 C.ar      1 <0>        -0.2049
     12 C10        -3.0599   -0.7329    2.6083 C.ar      1 <0>        -0.0618
     13 O2         -2.3319   -0.9133    6.1683 O.3       1 <0>        -0.3156
     14 C11        -2.8265    0.3770    6.5324 C.3       1 <0>         0.0440
     15 C12        -2.6419    0.5882    8.0365 C.3       1 <0>         0.1161
     16 N1         -3.1490    1.9110    8.4097 N.pl3     1 <0>        -0.4955
     17 C13        -2.3976    3.0731    8.4168 C.ar      1 <0>         0.1580
     18 C14        -1.0657    3.3293    8.1059 C.ar      1 <0>        -0.1310
     19 C15        -0.5684    4.6110    8.2031 C.ar      1 <0>        -0.0529
     20 C16        -1.3853    5.6556    8.6099 C.ar      1 <0>        -0.1189
     21 C17        -2.7080    5.4213    8.9219 C.ar      1 <0>        -0.0279
     22 C18        -3.2227    4.1305    8.8277 C.ar      1 <0>        -0.0963
     23 C19        -4.5540    3.5490    9.0801 C.ar      1 <0>        -0.0959
     24 C20        -4.4494    2.1785    8.7999 C.ar      1 <0>         0.1582
     25 C21        -5.5694    1.3658    8.9463 C.ar      1 <0>        -0.1314
     26 C22        -6.7671    1.9088    9.3591 C.ar      1 <0>        -0.0534
     27 C23        -6.8701    3.2649    9.6318 C.ar      1 <0>        -0.1194
     28 C24        -5.7685    4.0845    9.5021 C.ar      1 <0>        -0.0277
     29 Br1        -8.5228    3.9898   10.1964 Br        1 <0>        -0.0466
     30 Br2        -0.6828    7.4066    8.7378 Br        1 <0>        -0.0463
     31 C25        -1.4785   -2.4182   -1.4177 C.2       1 <0>         0.4774
     32 O3         -1.4355   -1.6227   -2.3406 O.co2     1 <0>        -0.6798
     33 O4         -1.5590   -3.6131   -1.6462 O.co2     1 <0>        -0.6994
     34 H2          1.0039    1.9031    0.0027 H         1 <0>         0.0601
     35 H3         -0.5459    1.8868   -0.8726 H         1 <0>         0.0627
     36 H4         -0.5289    1.8773    0.9072 H         1 <0>         0.0527
     37 H5          0.5123   -0.3556   -0.8948 H         1 <0>         0.0476
     38 H6          0.5293   -0.3651    0.8851 H         1 <0>         0.0289
     39 H7         -3.5668   -1.8615    0.2879 H         1 <0>         0.0734
     40 H8         -2.8227   -3.4363    0.6549 H         1 <0>         0.0893
     41 H9         -1.6943   -3.8143    2.7713 H         1 <0>         0.1304
     42 H10        -1.5299   -3.1879    5.1461 H         1 <0>         0.1265
     43 H11        -3.3339    0.5856    4.2680 H         1 <0>         0.1197
     44 H12        -3.4862   -0.0446    1.8934 H         1 <0>         0.1271
     45 H13        -2.2761    1.1441    5.9876 H         1 <0>         0.0677
     46 H14        -3.8855    0.4437    6.2833 H         1 <0>         0.0673
     47 H15        -3.1923   -0.1789    8.5813 H         1 <0>         0.1035
     48 H16        -1.5829    0.5215    8.2855 H         1 <0>         0.1035
     49 H17        -0.4210    2.5231    7.7885 H         1 <0>         0.1361
     50 H18         0.4662    4.8036    7.9608 H         1 <0>         0.1415
     51 H19        -3.3425    6.2358    9.2388 H         1 <0>         0.1373
     52 H20        -5.5003    0.3087    8.7360 H         1 <0>         0.1359
     53 H21        -7.6329    1.2729    9.4710 H         1 <0>         0.1412
     54 H22        -5.8508    5.1404    9.7136 H         1 <0>         0.1373
@<TRIPOS>BOND
     1    1    2 1
     2    1   34 1
     3    1   35 1
     4    1   36 1
     5    2    3 1
     6    2   37 1
     7    2   38 1
     8    3    4 1
     9    4    5 1
    10    4    6 1
    11    4   31 1
    12    6    7 1
    13    6   39 1
    14    6   40 1
    15    7   12 ar
    16    7    8 ar
    17    8    9 ar
    18    8   41 1
    19    9   10 ar
    20    9   42 1
    21   10   11 ar
    22   10   13 1
    23   11   12 ar
    24   11   43 1
    25   12   44 1
    26   13   14 1
    27   14   15 1
    28   14   45 1
    29   14   46 1
    30   15   16 1
    31   15   47 1
    32   15   48 1
    33   16   24 1
    34   16   17 1
    35   17   22 ar
    36   17   18 ar
    37   18   19 ar
    38   18   49 1
    39   19   20 ar
    40   19   50 1
    41   20   21 ar
    42   20   30 1
    43   21   22 ar
    44   21   51 1
    45   22   23 1
    46   23   28 ar
    47   23   24 ar
    48   24   25 ar
    49   25   26 ar
    50   25   52 1
    51   26   27 ar
    52   26   53 1
    53   27   28 ar
    54   27   29 1
    55   28   54 1
    56   31   32 2
    57   31   33 1
@<TRIPOS>MOLECULE
CHEMBL210973
   52    54     0     0     0
SMALL
USER_CHARGES

@<TRIPOS>ATOM
      1 C1         -0.0187    1.5258    0.0104 C.3       1 <0>        -0.1518
      2 C2          0.0021   -0.0041    0.0020 C.3       1 <0>        -0.1174
      3 C3          0.7182   -0.4975   -1.2568 C.3       1 <0>        -0.0695
      4 C4          0.7386   -2.0043   -1.2651 C.ar      1 <0>        -0.1235
      5 C5          1.7874   -2.6879   -0.6752 C.ar      1 <0>         0.2030
      6 C6          1.8138   -4.0805   -0.6786 C.ar      1 <0>        -0.2160
      7 C7          0.8051   -4.7902   -1.2640 C.ar      1 <0>         0.0019
      8 C8         -0.2622   -4.1169   -1.8640 C.ar      1 <0>        -0.2136
      9 C9         -0.2971   -2.7116   -1.8592 C.ar      1 <0>         0.1305
     10 O1         -1.4279   -2.3410   -2.4934 O.3       1 <0>        -0.0562
     11 N1         -2.1323   -3.4949   -2.9061 N.2       1 <0>        -0.2266
     12 C10        -1.4728   -4.5582   -2.5610 C.2       1 <0>         0.0488
     13 C11        -1.8852   -5.9851   -2.8158 C.3       1 <0>         0.5554
     14 F1         -2.6666   -6.4423   -1.7492 F         1 <0>        -0.1559
     15 F2         -2.6274   -6.0518   -3.9998 F         1 <0>        -0.1568
     16 F3         -0.7443   -6.7860   -2.9349 F         1 <0>        -0.1546
     17 O2          2.7986   -1.9959   -0.0891 O.3       1 <0>        -0.2933
     18 C12         3.8511   -2.7608    0.5018 C.3       1 <0>         0.0589
     19 C13         4.8906   -1.8155    1.1073 C.3       1 <0>        -0.1187
     20 C14         6.0175   -2.6345    1.7400 C.3       1 <0>         0.0657
     21 O3          6.9884   -1.7516    2.3056 O.3       1 <0>        -0.3173
     22 C15         8.0627   -2.3224    2.9114 C.ar      1 <0>         0.0982
     23 C16         8.1828   -3.7038    2.9555 C.ar      1 <0>        -0.2024
     24 C17         9.2760   -4.2816    3.5716 C.ar      1 <0>        -0.0800
     25 C18        10.2497   -3.4843    4.1443 C.ar      1 <0>        -0.0495
     26 C19        10.1321   -2.1073    4.1020 C.ar      1 <0>        -0.0792
     27 C20         9.0439   -1.5246    3.4818 C.ar      1 <0>        -0.1447
     28 C21        11.4409   -4.1173    4.8161 C.3       1 <0>        -0.1564
     29 C22        12.5448   -4.3062    3.8076 C.2       1 <0>         0.4954
     30 O4         12.3794   -3.9590    2.6506 O.co2     1 <0>        -0.6874
     31 O5         13.6031   -4.8062    4.1488 O.co2     1 <0>        -0.7031
     32 H1          1.0039    1.9031    0.0027 H         1 <0>         0.0571
     33 H2         -0.5459    1.8868   -0.8726 H         1 <0>         0.0542
     34 H3         -0.5289    1.8773    0.9072 H         1 <0>         0.0551
     35 H4          0.5293   -0.3651    0.8851 H         1 <0>         0.0655
     36 H5         -1.0205   -0.3814    0.0098 H         1 <0>         0.0593
     37 H6          0.1910   -0.1364   -2.1398 H         1 <0>         0.0751
     38 H7          1.7408   -0.1202   -1.2645 H         1 <0>         0.0863
     39 H8          2.6380   -4.6024   -0.2152 H         1 <0>         0.1496
     40 H9          0.8322   -5.8699   -1.2636 H         1 <0>         0.1451
     41 H10         3.4411   -3.3992    1.2844 H         1 <0>         0.0738
     42 H11         4.3234   -3.3793   -0.2614 H         1 <0>         0.0745
     43 H12         5.3007   -1.1771    0.3248 H         1 <0>         0.0881
     44 H13         4.4184   -1.1969    1.8705 H         1 <0>         0.0872
     45 H14         5.6075   -3.2729    2.5226 H         1 <0>         0.0624
     46 H15         6.4898   -3.2530    0.9768 H         1 <0>         0.0641
     47 H16         7.4221   -4.3269    2.5090 H         1 <0>         0.1183
     48 H17         9.3699   -5.3569    3.6062 H         1 <0>         0.1175
     49 H18        10.8938   -1.4867    4.5504 H         1 <0>         0.1228
     50 H19         8.9547   -0.4489    3.4451 H         1 <0>         0.1231
     51 H20        11.7906   -3.4703    5.6206 H         1 <0>         0.0690
     52 H21        11.1545   -5.0854    5.2269 H         1 <0>         0.0680
@<TRIPOS>BOND
     1    1    2 1
     2    1   32 1
     3    1   33 1
     4    1   34 1
     5    2    3 1
     6    2   35 1
     7    2   36 1
     8    3    4 1
     9    3   37 1
    10    3   38 1
    11    4    9 ar
    12    4    5 ar
    13    5    6 ar
    14    5   17 1
    15    6    7 ar
    16    6   39 1
    17    7    8 ar
    18    7   40 1
    19    8   12 1
    20    8    9 ar
    21    9   10 1
    22   10   11 1
    23   11   12 2
    24   12   13 1
    25   13   14 1
    26   13   15 1
    27   13   16 1
    28   17   18 1
    29   18   19 1
    30   18   41 1
    31   18   42 1
    32   19   20 1
    33   19   43 1
    34   19   44 1
    35   20   21 1
    36   20   45 1
    37   20   46 1
    38   21   22 1
    39   22   27 ar
    40   22   23 ar
    41   23   24 ar
    42   23   47 1
    43   24   25 ar
    44   24   48 1
    45   25   26 ar
    46   25   28 1
    47   26   27 ar
    48   26   49 1
    49   27   50 1
    50   28   29 1
    51   28   51 1
    52   28   52 1
    53   29   30 2
    54   29   31 1
@<TRIPOS>MOLECULE
CHEMBL526371
   65    68     0     0     0
SMALL
USER_CHARGES

@<TRIPOS>ATOM
      1 C1         -0.7160    2.4344    0.2423 C.3       1 <0>        -0.0891
      2 C2         -0.4321    0.9561    0.1724 C.2       1 <0>         0.0737
      3 C3         -1.3531   -0.0254    0.1229 C.2       1 <0>        -0.2644
      4 C4         -0.6770   -1.2573    0.0653 C.2       1 <0>         0.1073
      5 N1          0.6035   -1.0167    0.0800 N.2       1 <0>        -0.3161
      6 O1          0.7825    0.3868    0.1426 O.3       1 <0>        -0.0727
      7 C5         -1.3211   -2.6181   -0.0013 C.3       1 <0>         0.1314
      8 O2         -2.7427   -2.4729    0.0026 O.3       1 <0>        -0.2835
      9 C6         -3.4801   -3.6143   -0.0537 C.ar      1 <0>         0.1738
     10 C7         -2.8495   -4.8462   -0.1056 C.ar      1 <0>        -0.1925
     11 C8         -3.6005   -6.0061   -0.1624 C.ar      1 <0>        -0.0352
     12 C9         -4.9818   -5.9407   -0.1675 C.ar      1 <0>        -0.1364
     13 C10        -5.6191   -4.7156   -0.1165 C.ar      1 <0>        -0.0295
     14 C11        -4.8722   -3.5474   -0.0535 C.ar      1 <0>        -0.1541
     15 S1         -5.6816   -1.9840    0.0190 S.3       1 <0>         0.0054
     16 C12        -5.5235   -1.5000    1.7059 C.ar      1 <0>        -0.1459
     17 C13        -4.9691   -2.3757    2.6314 C.ar      1 <0>        -0.0762
     18 C14        -4.8458   -1.9955    3.9528 C.ar      1 <0>        -0.2032
     19 C15        -5.2756   -0.7397    4.3569 C.ar      1 <0>         0.1447
     20 C16        -5.8296    0.1350    3.4341 C.ar      1 <0>        -0.1118
     21 C17        -5.9478   -0.2407    2.1104 C.ar      1 <0>        -0.0286
     22 C18        -6.5437    0.7124    1.1066 C.3       1 <0>        -0.1151
     23 C19        -6.2964    1.4985    3.8746 C.3       1 <0>        -0.1042
     24 O3         -5.1541   -0.3664    5.6590 O.3       1 <0>        -0.2755
     25 C20        -4.5751   -1.3171    6.5551 C.3       1 <0>        -0.0071
     26 C21        -4.5223   -0.7319    7.9429 C.2       1 <0>         0.5019
     27 O4         -4.9417    0.3948    8.1457 O.co2     1 <0>        -0.6700
     28 O5         -4.0603   -1.3853    8.8628 O.co2     1 <0>        -0.6874
     29 C22        -2.9116   -7.3452   -0.2192 C.3       1 <0>         0.0963
     30 O6         -2.7013   -7.8295    1.1086 O.3       1 <0>        -0.2983
     31 C23        -2.0864   -9.0348    1.2357 C.ar      1 <0>         0.1651
     32 C24        -1.6883   -9.7342    0.1056 C.ar      1 <0>        -0.2133
     33 C25        -1.0630  -10.9590    0.2375 C.ar      1 <0>        -0.0281
     34 C26        -0.8342  -11.4880    1.4943 C.ar      1 <0>        -0.2256
     35 C27        -1.2304  -10.7930    2.6220 C.ar      1 <0>        -0.0285
     36 C28        -1.8505   -9.5651    2.4957 C.ar      1 <0>        -0.1504
     37 C29        -0.1523  -12.8245    1.6351 C.3       1 <0>         0.5123
     38 F1          1.2314  -12.6355    1.7188 F         1 <0>        -0.1775
     39 F2         -0.6072  -13.4601    2.7954 F         1 <0>        -0.1772
     40 F3         -0.4480  -13.6185    0.5219 F         1 <0>        -0.1790
     41 H1          0.2249    2.9843    0.2661 H         1 <0>         0.0845
     42 H2         -1.2909    2.7358   -0.6333 H         1 <0>         0.0971
     43 H3         -1.2871    2.6524    1.1447 H         1 <0>         0.0998
     44 H4         -2.4246    0.1100    0.1270 H         1 <0>         0.1672
     45 H5         -1.0099   -3.1230   -0.9159 H         1 <0>         0.0950
     46 H6         -1.0138   -3.2082    0.8621 H         1 <0>         0.0953
     47 H7         -1.7709   -4.9012   -0.1021 H         1 <0>         0.1355
     48 H8         -5.5639   -6.8493   -0.2119 H         1 <0>         0.1342
     49 H9         -6.6981   -4.6674   -0.1213 H         1 <0>         0.1454
     50 H10        -4.6352   -3.3535    2.3172 H         1 <0>         0.1138
     51 H11        -4.4149   -2.6760    4.6724 H         1 <0>         0.1279
     52 H12        -7.6225    0.5641    1.0607 H         1 <0>         0.0739
     53 H13        -6.3304    1.7379    1.4083 H         1 <0>         0.0742
     54 H14        -6.1090    0.5246    0.1248 H         1 <0>         0.0704
     55 H15        -5.4759    2.2103    3.7839 H         1 <0>         0.0662
     56 H16        -7.1268    1.8190    3.2454 H         1 <0>         0.0620
     57 H17        -6.6242    1.4523    4.9131 H         1 <0>         0.0783
     58 H18        -5.1815   -2.2228    6.5655 H         1 <0>         0.0584
     59 H19        -3.5652   -1.5598    6.2245 H         1 <0>         0.0574
     60 H20        -3.5342   -8.0511   -0.7691 H         1 <0>         0.0814
     61 H21        -1.9511   -7.2386   -0.7235 H         1 <0>         0.0781
     62 H22        -1.8675   -9.3218   -0.8763 H         1 <0>         0.1402
     63 H23        -0.7529  -11.5039   -0.6419 H         1 <0>         0.1386
     64 H24        -1.0508  -11.2085    3.6026 H         1 <0>         0.1441
     65 H25        -2.1558   -9.0206    3.3771 H         1 <0>         0.1461
@<TRIPOS>BOND
     1    1    2 1
     2    1   41 1
     3    1   42 1
     4    1   43 1
     5    2    6 1
     6    2    3 2
     7    3    4 1
     8    3   44 1
     9    4    5 2
    10    4    7 1
    11    5    6 1
    12    7    8 1
    13    7   45 1
    14    7   46 1
    15    8    9 1
    16    9   14 ar
    17    9   10 ar
    18   10   11 ar
    19   10   47 1
    20   11   12 ar
    21   11   29 1
    22   12   13 ar
    23   12   48 1
    24   13   14 ar
    25   13   49 1
    26   14   15 1
    27   15   16 1
    28   16   21 ar
    29   16   17 ar
    30   17   18 ar
    31   17   50 1
    32   18   19 ar
    33   18   51 1
    34   19   20 ar
    35   19   24 1
    36   20   21 ar
    37   20   23 1
    38   21   22 1
    39   22   52 1
    40   22   53 1
    41   22   54 1
    42   23   55 1
    43   23   56 1
    44   23   57 1
    45   24   25 1
    46   25   26 1
    47   25   58 1
    48   25   59 1
    49   26   27 2
    50   26   28 1
    51   29   30 1
    52   29   60 1
    53   29   61 1
    54   30   31 1
    55   31   36 ar
    56   31   32 ar
    57   32   33 ar
    58   32   62 1
    59   33   34 ar
    60   33   63 1
    61   34   35 ar
    62   34   37 1
    63   35   36 ar
    64   35   64 1
    65   36   65 1
    66   37   38 1
    67   37   39 1
    68   37   40 1
@<TRIPOS>MOLECULE
CHEMBL207103
   53    55     0     0     0
SMALL
USER_CHARGES

@<TRIPOS>ATOM
      1 C1         -0.0187    1.5258    0.0104 C.3       1 <0>        -0.1517
      2 C2          0.0021   -0.0041    0.0020 C.3       1 <0>        -0.1173
      3 C3          0.7421   -0.5109    1.2415 C.3       1 <0>        -0.0689
      4 C4          0.7625   -2.0177    1.2333 C.ar      1 <0>        -0.1246
      5 C5         -0.2618   -2.7295    1.8327 C.ar      1 <0>         0.2033
      6 C6         -0.2503   -4.1223    1.8294 C.ar      1 <0>        -0.2157
      7 C7          0.7717   -4.8044    1.2346 C.ar      1 <0>         0.0019
      8 C8          1.8143   -4.1024    0.6239 C.ar      1 <0>        -0.2137
      9 C9          1.8057   -2.6968    0.6194 C.ar      1 <0>         0.1303
     10 O1          2.9142   -2.2956   -0.0353 O.3       1 <0>        -0.0566
     11 N1          3.6416   -3.4301   -0.4619 N.2       1 <0>        -0.2268
     12 C10         3.0298   -4.5107   -0.0846 C.2       1 <0>         0.0489
     13 C11         3.4787   -5.9260   -0.3428 C.3       1 <0>         0.5554
     14 F1          2.9526   -6.3671   -1.5617 F         1 <0>        -0.1558
     15 F2          4.8760   -5.9698   -0.3949 F         1 <0>        -0.1568
     16 F3          3.0242   -6.7548    0.6885 F         1 <0>        -0.1545
     17 O2         -1.2855   -2.0651    2.4291 O.3       1 <0>        -0.2956
     18 C12        -2.3113   -2.8583    3.0296 C.3       1 <0>         0.0583
     19 C13        -3.3699   -1.9415    3.6458 C.3       1 <0>        -0.1294
     20 C14        -4.4682   -2.7907    4.2888 C.3       1 <0>         0.1348
     21 N2         -5.4818   -1.9128    4.8788 N.pl3     1 <0>        -0.7564
     22 C15        -6.5901   -2.4628    5.5270 C.ar      1 <0>         0.1849
     23 C16        -6.7299   -3.8418    5.6181 C.ar      1 <0>        -0.1901
     24 C17        -7.8267   -4.3822    6.2602 C.ar      1 <0>        -0.0735
     25 C18        -8.7855   -3.5522    6.8116 C.ar      1 <0>        -0.0672
     26 C19        -8.6494   -2.1789    6.7227 C.ar      1 <0>        -0.0724
     27 C20        -7.5522   -1.6318    6.0871 C.ar      1 <0>        -0.1868
     28 C21        -9.9815   -4.1455    7.5105 C.3       1 <0>        -0.1528
     29 C22        -9.6664   -4.3350    8.9720 C.2       1 <0>         0.4946
     30 O3         -8.5720   -4.0176    9.4058 O.co2     1 <0>        -0.6879
     31 O4        -10.5058   -4.8056    9.7206 O.co2     1 <0>        -0.7066
     32 H1          1.0039    1.9031    0.0027 H         1 <0>         0.0543
     33 H2         -0.5459    1.8868   -0.8726 H         1 <0>         0.0551
     34 H3         -0.5289    1.8773    0.9072 H         1 <0>         0.0565
     35 H4         -1.0205   -0.3814    0.0098 H         1 <0>         0.0652
     36 H5          0.5123   -0.3556   -0.8948 H         1 <0>         0.0595
     37 H6          1.7647   -0.1336    1.2338 H         1 <0>         0.0749
     38 H7          0.2319   -0.1594    2.1383 H         1 <0>         0.0855
     39 H8         -1.0553   -4.6663    2.3009 H         1 <0>         0.1500
     40 H9          0.7747   -5.8844    1.2363 H         1 <0>         0.1451
     41 H10        -2.7742   -3.4889    2.2706 H         1 <0>         0.0734
     42 H11        -1.8767   -3.4858    3.8077 H         1 <0>         0.0741
     43 H12        -2.9070   -1.3108    4.4049 H         1 <0>         0.0826
     44 H13        -3.8045   -1.3139    2.8677 H         1 <0>         0.0818
     45 H14        -4.9311   -3.4213    3.5298 H         1 <0>         0.0582
     46 H15        -4.0336   -3.4182    5.0669 H         1 <0>         0.0595
     47 H16        -5.3833   -0.9497    4.8194 H         1 <0>         0.3951
     48 H17        -5.9818   -4.4907    5.1871 H         1 <0>         0.1104
     49 H18        -7.9359   -5.4543    6.3313 H         1 <0>         0.1127
     50 H19        -9.4000   -1.5335    7.1544 H         1 <0>         0.1135
     51 H20        -7.4443   -0.5592    6.0219 H         1 <0>         0.1110
     52 H21       -10.8334   -3.4735    7.4067 H         1 <0>         0.0652
     53 H22       -10.2226   -5.1097    7.0629 H         1 <0>         0.0650
@<TRIPOS>BOND
     1    1    2 1
     2    1   32 1
     3    1   33 1
     4    1   34 1
     5    2    3 1
     6    2   35 1
     7    2   36 1
     8    3    4 1
     9    3   37 1
    10    3   38 1
    11    4    9 ar
    12    4    5 ar
    13    5    6 ar
    14    5   17 1
    15    6    7 ar
    16    6   39 1
    17    7    8 ar
    18    7   40 1
    19    8   12 1
    20    8    9 ar
    21    9   10 1
    22   10   11 1
    23   11   12 2
    24   12   13 1
    25   13   14 1
    26   13   15 1
    27   13   16 1
    28   17   18 1
    29   18   19 1
    30   18   41 1
    31   18   42 1
    32   19   20 1
    33   19   43 1
    34   19   44 1
    35   20   21 1
    36   20   45 1
    37   20   46 1
    38   21   22 1
    39   21   47 1
    40   22   27 ar
    41   22   23 ar
    42   23   24 ar
    43   23   48 1
    44   24   25 ar
    45   24   49 1
    46   25   26 ar
    47   25   28 1
    48   26   27 ar
    49   26   50 1
    50   27   51 1
    51   28   29 1
    52   28   52 1
    53   28   53 1
    54   29   30 2
    55   29   31 1
@<TRIPOS>MOLECULE
CHEMBL184133
   67    70     0     0     0
SMALL
USER_CHARGES

@<TRIPOS>ATOM
      1 C1         -0.6681   -1.9622    1.8872 C.3       1 <0>        -0.0716
      2 C2         -0.7924   -3.3758    1.3799 C.2       1 <0>        -0.0328
      3 C3         -1.9272   -3.9892    0.9974 C.2       1 <0>        -0.0070
      4 N1         -1.6116   -5.2355    0.6141 N.2       1 <0>        -0.4584
      5 C4         -0.3172   -5.4015    0.7511 C.2       1 <0>         0.2302
      6 O1          0.2133   -4.2585    1.2196 O.3       1 <0>        -0.1931
      7 C5          0.4328   -6.6361    0.4371 C.ar      1 <0>        -0.0177
      8 C6         -0.2370   -7.7564   -0.0570 C.ar      1 <0>        -0.0700
      9 C7          0.4690   -8.9054   -0.3485 C.ar      1 <0>        -0.1202
     10 C8          1.8378   -8.9485   -0.1521 C.ar      1 <0>        -0.1007
     11 C9          2.5077   -7.8415    0.3378 C.ar      1 <0>        -0.1214
     12 C10         1.8145   -6.6845    0.6279 C.ar      1 <0>        -0.0905
     13 C11        -3.3073   -3.3840    0.9998 C.3       1 <0>        -0.0333
     14 C12        -3.5719   -2.7122   -0.3492 C.3       1 <0>         0.0677
     15 O2         -4.8807   -2.1384   -0.3470 O.3       1 <0>        -0.3161
     16 C13        -5.2757   -1.4987   -1.4790 C.ar      1 <0>         0.1175
     17 C14        -4.4235   -1.4297   -2.5716 C.ar      1 <0>        -0.2022
     18 C15        -4.8277   -0.7792   -3.7213 C.ar      1 <0>        -0.0718
     19 C16        -6.0801   -0.1968   -3.7836 C.ar      1 <0>        -0.1037
     20 C17        -6.9312   -0.2638   -2.6959 C.ar      1 <0>        -0.0780
     21 C18        -6.5341   -0.9184   -1.5461 C.ar      1 <0>        -0.1483
     22 C19        -6.5182    0.5126   -5.0389 C.3       1 <0>        -0.0732
     23 C20        -7.2153   -0.4817   -5.9698 C.3       1 <0>         0.0593
     24 H1         -8.0331   -0.9666   -5.4367 H         1 <0>         0.0814
     25 C21        -7.7613    0.2504   -7.1685 C.2       1 <0>         0.4863
     26 O3         -7.0723    0.3876   -8.1650 O.co2     1 <0>        -0.6717
     27 O4         -8.8921    0.7056   -7.1419 O.co2     1 <0>        -0.6933
     28 N2         -6.2528   -1.4936   -6.4123 N.pl3     1 <0>        -0.6366
     29 C22        -6.6897   -2.7266   -6.8024 C.2       1 <0>         0.2986
     30 C23        -8.1417   -3.0969   -6.6425 C.3       1 <0>        -0.1365
     31 C24        -5.8196   -3.6157   -7.3323 C.2       1 <0>        -0.4470
     32 C25        -4.5037   -3.2130   -7.6490 C.2       1 <0>         0.4227
     33 C26        -3.5111   -4.2148   -8.0984 C.ar      1 <0>        -0.1316
     34 C27        -3.8741   -5.5571   -8.2157 C.ar      1 <0>        -0.0795
     35 C28        -2.9444   -6.4859   -8.6356 C.ar      1 <0>        -0.1365
     36 C29        -1.6543   -6.0890   -8.9397 C.ar      1 <0>        -0.1095
     37 C30        -1.2879   -4.7597   -8.8250 C.ar      1 <0>        -0.1354
     38 C31        -2.2099   -3.8201   -8.4121 C.ar      1 <0>        -0.0759
     39 O5         -4.1855   -2.0412   -7.5524 O.2       1 <0>        -0.5171
     40 H2          0.3765   -1.7476    2.1128 H         1 <0>         0.0806
     41 H3         -1.0247   -1.2698    1.1246 H         1 <0>         0.0919
     42 H4         -1.2662   -1.8466    2.7911 H         1 <0>         0.0928
     43 H5         -1.3055   -7.7242   -0.2104 H         1 <0>         0.1391
     44 H6         -0.0481   -9.7731   -0.7306 H         1 <0>         0.1330
     45 H7          2.3858   -9.8503   -0.3819 H         1 <0>         0.1285
     46 H8          3.5763   -7.8819    0.4895 H         1 <0>         0.1305
     47 H9          2.3393   -5.8195    1.0057 H         1 <0>         0.1298
     48 H10        -4.0471   -4.1669    1.1671 H         1 <0>         0.0945
     49 H11        -3.3774   -2.6420    1.7951 H         1 <0>         0.0923
     50 H12        -2.8322   -1.9293   -0.5165 H         1 <0>         0.0604
     51 H13        -3.5019   -3.4543   -1.1445 H         1 <0>         0.0658
     52 H14        -3.4449   -1.8838   -2.5231 H         1 <0>         0.1218
     53 H15        -4.1646   -0.7252   -4.5721 H         1 <0>         0.1221
     54 H16        -7.9088    0.1922   -2.7469 H         1 <0>         0.1310
     55 H17        -7.2009   -0.9743   -0.6983 H         1 <0>         0.1280
     56 H18        -7.2097    1.3146   -4.7806 H         1 <0>         0.0887
     57 H19        -5.6470    0.9320   -5.5421 H         1 <0>         0.0766
     58 H20        -8.6889   -2.8191   -7.5433 H         1 <0>         0.0907
     59 H21        -8.2271   -4.1717   -6.4824 H         1 <0>         0.0809
     60 H22        -8.5594   -2.5677   -5.7860 H         1 <0>         0.0760
     61 H23        -6.1310   -4.6339   -7.5134 H         1 <0>         0.1232
     62 H24        -4.8806   -5.8683   -7.9780 H         1 <0>         0.1314
     63 H25        -3.2241   -7.5251   -8.7268 H         1 <0>         0.1218
     64 H26        -0.9300   -6.8199   -9.2676 H         1 <0>         0.1189
     65 H27        -0.2792   -4.4562   -9.0635 H         1 <0>         0.1210
     66 H28        -1.9240   -2.7821   -8.3274 H         1 <0>         0.1296
     67 H29        -5.3051   -1.2875   -6.4281 H         1 <0>         0.4159
@<TRIPOS>BOND
     1    1    2 1
     2    1   40 1
     3    1   41 1
     4    1   42 1
     5    2    6 1
     6    2    3 2
     7    3    4 1
     8    3   13 1
     9    4    5 2
    10    5    6 1
    11    5    7 1
    12    7   12 ar
    13    7    8 ar
    14    8    9 ar
    15    8   43 1
    16    9   10 ar
    17    9   44 1
    18   10   11 ar
    19   10   45 1
    20   11   12 ar
    21   11   46 1
    22   12   47 1
    23   13   14 1
    24   13   48 1
    25   13   49 1
    26   14   15 1
    27   14   50 1
    28   14   51 1
    29   15   16 1
    30   16   21 ar
    31   16   17 ar
    32   17   18 ar
    33   17   52 1
    34   18   19 ar
    35   18   53 1
    36   19   20 ar
    37   19   22 1
    38   20   21 ar
    39   20   54 1
    40   21   55 1
    41   22   23 1
    42   22   56 1
    43   22   57 1
    44   23   24 1
    45   23   25 1
    46   23   28 1
    47   25   26 2
    48   25   27 1
    49   28   29 1
    50   28   67 1
    51   29   31 2
    52   29   30 1
    53   30   58 1
    54   30   59 1
    55   30   60 1
    56   31   32 1
    57   31   61 1
    58   32   39 2
    59   32   33 1
    60   33   38 ar
    61   33   34 ar
    62   34   35 ar
    63   34   62 1
    64   35   36 ar
    65   35   63 1
    66   36   37 ar
    67   36   64 1
    68   37   38 ar
    69   37   65 1
    70   38   66 1
@<TRIPOS>MOLECULE
CHEMBL184133__1
   67    70     0     0     0
SMALL
USER_CHARGES

@<TRIPOS>ATOM
      1 C1          1.1038    2.3510   -2.0156 C.3       1 <0>        -0.0715
      2 C2          1.1536    0.8593   -1.8074 C.2       1 <0>        -0.0333
      3 C3          0.1164    0.0631   -1.4899 C.2       1 <0>        -0.0068
      4 N1          0.5767   -1.1935   -1.3957 N.2       1 <0>        -0.4585
      5 C4          1.8648   -1.1884   -1.6464 C.2       1 <0>         0.2307
      6 O1          2.2440    0.0740   -1.9104 O.3       1 <0>        -0.1932
      7 C5          2.7491   -2.3729   -1.6450 C.ar      1 <0>        -0.0183
      8 C6          2.2273   -3.6368   -1.3651 C.ar      1 <0>        -0.0698
      9 C7          3.0580   -4.7383   -1.3659 C.ar      1 <0>        -0.1200
     10 C8          4.4056   -4.5921   -1.6432 C.ar      1 <0>        -0.1005
     11 C9          4.9293   -3.3420   -1.9210 C.ar      1 <0>        -0.1215
     12 C10         4.1084   -2.2331   -1.9291 C.ar      1 <0>        -0.0906
     13 C11        -1.3087    0.5045   -1.2774 C.3       1 <0>        -0.0340
     14 C12        -2.0633    0.4496   -2.6073 C.3       1 <0>         0.0683
     15 O2         -3.4147    0.8682   -2.4058 O.3       1 <0>        -0.3158
     16 C13        -4.2267    0.8774   -3.4954 C.ar      1 <0>         0.1186
     17 C14        -3.7346    0.4860   -4.7321 C.ar      1 <0>        -0.2027
     18 C15        -4.5621    0.4958   -5.8381 C.ar      1 <0>        -0.0745
     19 C16        -5.8799    0.8957   -5.7136 C.ar      1 <0>        -0.1042
     20 C17        -6.3727    1.2866   -4.4823 C.ar      1 <0>        -0.0771
     21 C18        -5.5508    1.2727   -3.3720 C.ar      1 <0>        -0.1466
     22 C19        -6.7803    0.9059   -6.9219 C.3       1 <0>        -0.0731
     23 C20        -7.4721   -0.4524   -7.0539 C.3       1 <0>         0.0677
     24 H1         -7.9931   -0.6866   -6.1256 H         1 <0>         0.0858
     25 C21        -8.4635   -0.4031   -8.1878 C.2       1 <0>         0.4874
     26 O3         -8.1134   -0.7005   -9.3171 O.co2     1 <0>        -0.6791
     27 O4         -9.6158   -0.0658   -7.9757 O.co2     1 <0>        -0.6889
     28 N2         -6.4703   -1.4862   -7.3258 N.pl3     1 <0>        -0.6626
     29 C22        -6.7213   -2.7851   -6.9895 C.2       1 <0>         0.3109
     30 C23        -8.0290   -3.1556   -6.3385 C.3       1 <0>        -0.1292
     31 C24        -5.7967   -3.7393   -7.2405 C.2       1 <0>        -0.4403
     32 C25        -6.1133   -5.1002   -7.0366 C.2       1 <0>         0.4316
     33 C26        -5.0644   -6.1342   -7.1838 C.ar      1 <0>        -0.1335
     34 C27        -3.7604   -5.7668   -7.5182 C.ar      1 <0>        -0.0793
     35 C28        -2.7872   -6.7353   -7.6534 C.ar      1 <0>        -0.1362
     36 C29        -3.1020   -8.0685   -7.4586 C.ar      1 <0>        -0.1089
     37 C30        -4.3932   -8.4393   -7.1273 C.ar      1 <0>        -0.1354
     38 C31        -5.3741   -7.4800   -6.9830 C.ar      1 <0>        -0.0754
     39 O5         -7.2496   -5.4233   -6.7397 O.2       1 <0>        -0.5115
     40 H2          2.0995    2.7161   -2.2674 H         1 <0>         0.0806
     41 H3          0.4158    2.5816   -2.8290 H         1 <0>         0.0917
     42 H4          0.7602    2.8343   -1.1010 H         1 <0>         0.0928
     43 H5          1.1757   -3.7522   -1.1482 H         1 <0>         0.1392
     44 H6          2.6556   -5.7168   -1.1492 H         1 <0>         0.1332
     45 H7          5.0516   -5.4576   -1.6426 H         1 <0>         0.1286
     46 H8          5.9822   -3.2345   -2.1360 H         1 <0>         0.1306
     47 H9          4.5175   -1.2585   -2.1508 H         1 <0>         0.1297
     48 H10        -1.7909   -0.1579   -0.5585 H         1 <0>         0.0949
     49 H11        -1.3198    1.5253   -0.8953 H         1 <0>         0.0924
     50 H12        -1.5812    1.1120   -3.3262 H         1 <0>         0.0603
     51 H13        -2.0522   -0.5711   -2.9894 H         1 <0>         0.0660
     52 H14        -2.7052    0.1743   -4.8301 H         1 <0>         0.1223
     53 H15        -4.1795    0.1913   -6.8011 H         1 <0>         0.1200
     54 H16        -7.4022    1.5988   -4.3876 H         1 <0>         0.1313
     55 H17        -5.9374    1.5739   -2.4096 H         1 <0>         0.1285
     56 H18        -7.5321    1.6869   -6.8082 H         1 <0>         0.0896
     57 H19        -6.1871    1.0999   -7.8155 H         1 <0>         0.0760
     58 H20        -8.7301   -3.4970   -7.1001 H         1 <0>         0.0918
     59 H21        -7.8614   -3.9535   -5.6151 H         1 <0>         0.0976
     60 H22        -8.4412   -2.2844   -5.8296 H         1 <0>         0.0627
     61 H23        -4.8160   -3.4606   -7.5968 H         1 <0>         0.1125
     62 H24        -3.5136   -4.7266   -7.6713 H         1 <0>         0.1296
     63 H25        -1.7776   -6.4522   -7.9122 H         1 <0>         0.1212
     64 H26        -2.3367   -8.8229   -7.5660 H         1 <0>         0.1192
     65 H27        -4.6326   -9.4817   -6.9769 H         1 <0>         0.1216
     66 H28        -6.3805   -7.7703   -6.7200 H         1 <0>         0.1303
     67 H29        -5.6286   -1.2477   -7.7448 H         1 <0>         0.3969
@<TRIPOS>BOND
     1    1    2 1
     2    1   40 1
     3    1   41 1
     4    1   42 1
     5    2    6 1
     6    2    3 2
     7    3    4 1
     8    3   13 1
     9    4    5 2
    10    5    6 1
    11    5    7 1
    12    7   12 ar
    13    7    8 ar
    14    8    9 ar
    15    8   43 1
    16    9   10 ar
    17    9   44 1
    18   10   11 ar
    19   10   45 1
    20   11   12 ar
    21   11   46 1
    22   12   47 1
    23   13   14 1
    24   13   48 1
    25   13   49 1
    26   14   15 1
    27   14   50 1
    28   14   51 1
    29   15   16 1
    30   16   21 ar
    31   16   17 ar
    32   17   18 ar
    33   17   52 1
    34   18   19 ar
    35   18   53 1
    36   19   20 ar
    37   19   22 1
    38   20   21 ar
    39   20   54 1
    40   21   55 1
    41   22   23 1
    42   22   56 1
    43   22   57 1
    44   23   24 1
    45   23   25 1
    46   23   28 1
    47   25   26 2
    48   25   27 1
    49   28   29 1
    50   28   67 1
    51   29   31 2
    52   29   30 1
    53   30   58 1
    54   30   59 1
    55   30   60 1
    56   31   32 1
    57   31   61 1
    58   32   39 2
    59   32   33 1
    60   33   38 ar
    61   33   34 ar
    62   34   35 ar
    63   34   62 1
    64   35   36 ar
    65   35   63 1
    66   36   37 ar
    67   36   64 1
    68   37   38 ar
    69   37   65 1
    70   38   66 1
@<TRIPOS>MOLECULE
CHEMBL278994
   60    63     0     0     0
SMALL
USER_CHARGES

@<TRIPOS>ATOM
      1 C1         -0.0187    1.5258    0.0104 C.3       1 <0>        -0.1513
      2 C2          0.0021   -0.0041    0.0020 C.3       1 <0>        -0.1155
      3 C3          0.7421   -0.5109    1.2415 C.3       1 <0>        -0.0680
      4 C4          0.7625   -2.0177    1.2333 C.ar      1 <0>        -0.1094
      5 C5         -0.2622   -2.7274    1.8330 C.ar      1 <0>         0.1620
      6 C6         -0.2540   -4.1189    1.8315 C.ar      1 <0>        -0.2108
      7 C7          0.7782   -4.8047    1.2302 C.ar      1 <0>        -0.0330
      8 C8          1.8138   -4.0993    0.6236 C.ar      1 <0>        -0.1491
      9 C9          1.8073   -2.6955    0.6185 C.ar      1 <0>         0.0956
     10 O1          2.9140   -2.2868   -0.0352 O.3       1 <0>        -0.1848
     11 C10         3.6401   -3.3342   -0.4612 C.2       1 <0>         0.0145
     12 C11         3.0420   -4.4901   -0.0933 C.2       1 <0>        -0.1334
     13 C12         3.5163   -5.8679   -0.3673 C.ar      1 <0>        -0.0149
     14 C13         3.5794   -6.8041    0.6637 C.ar      1 <0>        -0.1048
     15 C14         4.0217   -8.0850    0.4028 C.ar      1 <0>        -0.1169
     16 C15         4.4021   -8.4406   -0.8788 C.ar      1 <0>        -0.1199
     17 C16         4.3420   -7.5157   -1.9057 C.ar      1 <0>        -0.1176
     18 C17         3.8955   -6.2337   -1.6579 C.ar      1 <0>        -0.1102
     19 O2         -1.2854   -2.0601    2.4291 O.3       1 <0>        -0.3024
     20 C18        -2.3126   -2.8507    3.0304 C.3       1 <0>         0.0641
     21 C19        -3.3696   -1.9314    3.6457 C.3       1 <0>        -0.1000
     22 C20        -4.4694   -2.7779    4.2895 C.3       1 <0>        -0.1165
     23 S1         -5.7226   -1.6879    5.0190 S.3       1 <0>        -0.0919
     24 C21        -6.9030   -2.7983    5.7105 C.ar      1 <0>        -0.1051
     25 C22        -6.7115   -4.1707    5.6082 C.ar      1 <0>        -0.1175
     26 C23        -7.6384   -5.0382    6.1516 C.ar      1 <0>        -0.0943
     27 C24        -8.7569   -4.5429    6.7970 C.ar      1 <0>        -0.0048
     28 C25        -8.9519   -3.1778    6.9008 C.ar      1 <0>        -0.0905
     29 C26        -8.0256   -2.3034    6.3649 C.ar      1 <0>        -0.0097
     30 Cl1        -8.2668   -0.5897    6.5023 Cl        1 <0>        -0.0682
     31 C27        -9.7661   -5.4933    7.3882 C.3       1 <0>        -0.1608
     32 C28        -9.3898   -5.8023    8.8144 C.2       1 <0>         0.4972
     33 O3         -8.3944   -5.2975    9.3052 O.co2     1 <0>        -0.6854
     34 O4        -10.0807   -6.5570    9.4773 O.co2     1 <0>        -0.6983
     35 H1          1.0039    1.9031    0.0027 H         1 <0>         0.0526
     36 H2         -0.5459    1.8868   -0.8726 H         1 <0>         0.0536
     37 H3         -0.5289    1.8773    0.9072 H         1 <0>         0.0562
     38 H4         -1.0205   -0.3814    0.0098 H         1 <0>         0.0643
     39 H5          0.5123   -0.3556   -0.8948 H         1 <0>         0.0577
     40 H6          1.7647   -0.1336    1.2338 H         1 <0>         0.0699
     41 H7          0.2319   -0.1594    2.1383 H         1 <0>         0.0809
     42 H8         -1.0590   -4.6627    2.3035 H         1 <0>         0.1379
     43 H9          0.7843   -5.8847    1.2297 H         1 <0>         0.1304
     44 H10         4.5681   -3.2634   -1.0091 H         1 <0>         0.2095
     45 H11         3.2830   -6.5274    1.6647 H         1 <0>         0.1233
     46 H12         4.0713   -8.8110    1.2008 H         1 <0>         0.1247
     47 H13         4.7476   -9.4442   -1.0783 H         1 <0>         0.1226
     48 H14         4.6406   -7.7989   -2.9042 H         1 <0>         0.1242
     49 H15         3.8444   -5.5138   -2.4614 H         1 <0>         0.1232
     50 H16        -2.7767   -3.4813    2.2720 H         1 <0>         0.0679
     51 H17        -1.8792   -3.4782    3.8092 H         1 <0>         0.0686
     52 H18        -2.9056   -1.3008    4.4041 H         1 <0>         0.0867
     53 H19        -3.8030   -1.3039    2.8669 H         1 <0>         0.0860
     54 H20        -4.9335   -3.4085    3.5312 H         1 <0>         0.0898
     55 H21        -4.0360   -3.4054    5.0683 H         1 <0>         0.0913
     56 H22        -5.8389   -4.5586    5.1038 H         1 <0>         0.1239
     57 H23        -7.4899   -6.1050    6.0723 H         1 <0>         0.1258
     58 H24        -9.8266   -2.7945    7.4052 H         1 <0>         0.1323
     59 H25       -10.7546   -5.0346    7.3644 H         1 <0>         0.0740
     60 H26        -9.7796   -6.4159    6.8079 H         1 <0>         0.0742
@<TRIPOS>BOND
     1    1    2 1
     2    1   35 1
     3    1   36 1
     4    1   37 1
     5    2    3 1
     6    2   38 1
     7    2   39 1
     8    3    4 1
     9    3   40 1
    10    3   41 1
    11    4    9 ar
    12    4    5 ar
    13    5    6 ar
    14    5   19 1
    15    6    7 ar
    16    6   42 1
    17    7    8 ar
    18    7   43 1
    19    8   12 1
    20    8    9 ar
    21    9   10 1
    22   10   11 1
    23   11   12 2
    24   11   44 1
    25   12   13 1
    26   13   18 ar
    27   13   14 ar
    28   14   15 ar
    29   14   45 1
    30   15   16 ar
    31   15   46 1
    32   16   17 ar
    33   16   47 1
    34   17   18 ar
    35   17   48 1
    36   18   49 1
    37   19   20 1
    38   20   21 1
    39   20   50 1
    40   20   51 1
    41   21   22 1
    42   21   52 1
    43   21   53 1
    44   22   23 1
    45   22   54 1
    46   22   55 1
    47   23   24 1
    48   24   29 ar
    49   24   25 ar
    50   25   26 ar
    51   25   56 1
    52   26   27 ar
    53   26   57 1
    54   27   28 ar
    55   27   31 1
    56   28   29 ar
    57   28   58 1
    58   29   30 1
    59   31   32 1
    60   31   59 1
    61   31   60 1
    62   32   33 2
    63   32   34 1
@<TRIPOS>MOLECULE
CHEMBL1079489
   51    54     0     0     0
SMALL
USER_CHARGES

@<TRIPOS>ATOM
      1 C1         -0.0184    1.5028    0.0103 C.3       1 <0>        -0.1054
      2 C2          0.0021   -0.0041    0.0020 C.ar      1 <0>        -0.0851
      3 C3          0.0058   -0.6883   -1.1982 C.ar      1 <0>        -0.1083
      4 C4          0.0251   -2.0749   -1.2058 C.ar      1 <0>         0.0754
      5 C5          0.0406   -2.7749   -0.0083 C.ar      1 <0>        -0.1697
      6 C6          0.0369   -2.0909    1.1915 C.ar      1 <0>        -0.1754
      7 C7          0.0229   -0.7038    1.1991 C.ar      1 <0>         0.1103
      8 O1          0.0250   -0.0303    2.3804 O.3       1 <0>        -0.2775
      9 C8          0.0470   -0.8150    3.5745 C.3       1 <0>        -0.0071
     10 C9          0.0459    0.0965    4.7746 C.2       1 <0>         0.5013
     11 O2          0.0280    1.3060    4.6215 O.co2     1 <0>        -0.6704
     12 O3          0.0630   -0.3755    5.8986 O.co2     1 <0>        -0.6884
     13 O4          0.0283   -2.7483   -2.3872 O.3       1 <0>        -0.3104
     14 C10         0.0485   -4.1756   -2.3202 C.3       1 <0>         0.1521
     15 C11         0.0491   -4.7440   -3.7159 C.2       1 <0>         0.0539
     16 N1          1.0760   -5.0398   -4.4689 N.2       1 <0>        -0.4892
     17 C12         0.9177   -5.5377   -5.6873 C.2       1 <0>         0.1027
     18 C13        -0.3726   -5.7226   -6.1083 C.2       1 <0>        -0.2219
     19 S1         -1.2716   -5.1558   -4.6736 S.3       1 <0>         0.1506
     20 C14         2.0759   -5.8759   -6.5489 C.ar      1 <0>        -0.0193
     21 C15         1.8667   -6.3920   -7.8277 C.ar      1 <0>        -0.0998
     22 C16         2.9428   -6.7057   -8.6282 C.ar      1 <0>        -0.1110
     23 C17         4.2414   -6.5074   -8.1601 C.ar      1 <0>        -0.0410
     24 C18         4.4507   -5.9913   -6.8816 C.ar      1 <0>        -0.1113
     25 C19         3.3748   -5.6726   -6.0829 C.ar      1 <0>        -0.0803
     26 C20         5.4000   -6.8457   -9.0220 C.ar      1 <0>        -0.0453
     27 C21         5.1939   -7.3566  -10.3023 C.ar      1 <0>        -0.1110
     28 C22         6.2757   -7.6692  -11.1001 C.ar      1 <0>        -0.1185
     29 C23         7.5628   -7.4763  -10.6313 C.ar      1 <0>        -0.1199
     30 C24         7.7734   -6.9695   -9.3615 C.ar      1 <0>        -0.1174
     31 C25         6.6991   -6.6484   -8.5569 C.ar      1 <0>        -0.1100
     32 H1          1.0042    1.8801    0.0026 H         1 <0>         0.0694
     33 H2         -0.5455    1.8639   -0.8728 H         1 <0>         0.0613
     34 H3         -0.5286    1.8543    0.9071 H         1 <0>         0.0809
     35 H4         -0.0067   -0.1432   -2.1305 H         1 <0>         0.1326
     36 H5          0.0553   -3.8548   -0.0143 H         1 <0>         0.1250
     37 H6          0.0483   -2.6360    2.1238 H         1 <0>         0.1323
     38 H7         -0.8341   -1.4560    3.6044 H         1 <0>         0.0579
     39 H8          0.9456   -1.4317    3.5875 H         1 <0>         0.0580
     40 H9          0.9459   -4.5020   -1.7946 H         1 <0>         0.0953
     41 H10        -0.8339   -4.5268   -1.7853 H         1 <0>         0.0897
     42 H11        -0.7434   -6.1085   -7.0464 H         1 <0>         0.2001
     43 H12         0.8610   -6.5460   -8.1901 H         1 <0>         0.1273
     44 H13         2.7809   -7.1057   -9.6183 H         1 <0>         0.1291
     45 H14         5.4565   -5.8381   -6.5191 H         1 <0>         0.1289
     46 H15         3.5368   -5.2691   -5.0943 H         1 <0>         0.1364
     47 H16         4.1894   -7.5079  -10.6692 H         1 <0>         0.1255
     48 H17         6.1172   -8.0654  -12.0922 H         1 <0>         0.1239
     49 H18         8.4065   -7.7226  -11.2589 H         1 <0>         0.1223
     50 H19         8.7804   -6.8213   -9.0005 H         1 <0>         0.1246
     51 H20         6.8646   -6.2490   -7.5672 H         1 <0>         0.1266
@<TRIPOS>BOND
     1    1    2 1
     2    1   32 1
     3    1   33 1
     4    1   34 1
     5    2    7 ar
     6    2    3 ar
     7    3    4 ar
     8    3   35 1
     9    4    5 ar
    10    4   13 1
    11    5    6 ar
    12    5   36 1
    13    6    7 ar
    14    6   37 1
    15    7    8 1
    16    8    9 1
    17    9   10 1
    18    9   38 1
    19    9   39 1
    20   10   11 2
    21   10   12 1
    22   13   14 1
    23   14   15 1
    24   14   40 1
    25   14   41 1
    26   15   19 1
    27   15   16 2
    28   16   17 1
    29   17   18 2
    30   17   20 1
    31   18   19 1
    32   18   42 1
    33   20   25 ar
    34   20   21 ar
    35   21   22 ar
    36   21   43 1
    37   22   23 ar
    38   22   44 1
    39   23   24 ar
    40   23   26 1
    41   24   25 ar
    42   24   45 1
    43   25   46 1
    44   26   31 ar
    45   26   27 ar
    46   27   28 ar
    47   27   47 1
    48   28   29 ar
    49   28   48 1
    50   29   30 ar
    51   29   49 1
    52   30   31 ar
    53   30   50 1
    54   31   51 1
@<TRIPOS>MOLECULE
CHEMBL474295
   63    66     0     0     0
SMALL
USER_CHARGES

@<TRIPOS>ATOM
      1 C1         -0.1066    1.6312   -0.0050 C.3       1 <0>        -0.0716
      2 C2         -0.0793    0.1245    0.0079 C.2       1 <0>        -0.0328
      3 C3         -1.1482   -0.6927    0.0101 C.2       1 <0>        -0.0066
      4 N1         -0.6990   -1.9568    0.0229 N.2       1 <0>        -0.4584
      5 C4          0.6130   -1.9358    0.0286 C.2       1 <0>         0.2296
      6 O1          1.0203   -0.6548    0.0136 O.3       1 <0>        -0.1932
      7 C5          1.4952   -3.1219    0.0426 C.ar      1 <0>        -0.0174
      8 C6          0.9451   -4.4046    0.0452 C.ar      1 <0>        -0.0703
      9 C7          1.7740   -5.5073    0.0579 C.ar      1 <0>        -0.1202
     10 C8          3.1478   -5.3438    0.0680 C.ar      1 <0>        -0.1009
     11 C9          3.6996   -4.0750    0.0659 C.ar      1 <0>        -0.1214
     12 C10         2.8819   -2.9640    0.0475 C.ar      1 <0>        -0.0907
     13 C11        -2.5930   -0.2643    0.0004 C.3       1 <0>        -0.0335
     14 C12        -3.0757   -0.1311   -1.4453 C.3       1 <0>         0.0683
     15 O2         -4.4457    0.2751   -1.4545 O.3       1 <0>        -0.3165
     16 C13        -5.0321    0.4406   -2.6693 C.ar      1 <0>         0.1161
     17 C14        -4.3055    0.2110   -3.8286 C.ar      1 <0>        -0.2031
     18 C15        -4.9039    0.3794   -5.0622 C.ar      1 <0>        -0.0692
     19 C16        -6.2258    0.7769   -5.1422 C.ar      1 <0>        -0.1010
     20 C17        -6.9520    1.0068   -3.9882 C.ar      1 <0>        -0.0781
     21 C18        -6.3599    0.8339   -2.7521 C.ar      1 <0>        -0.1487
     22 C19        -6.8760    0.9604   -6.4892 C.3       1 <0>        -0.0723
     23 C20        -7.5121   -0.3587   -6.9324 C.3       1 <0>         0.0740
     24 H1         -8.1997   -0.7074   -6.1618 H         1 <0>         0.0768
     25 C21        -8.2665   -0.1452   -8.2194 C.2       1 <0>         0.4870
     26 O3         -7.7011   -0.2941   -9.2893 O.co2     1 <0>        -0.6797
     27 O4         -9.4422    0.1765   -8.1907 O.co2     1 <0>        -0.6947
     28 N2         -6.4638   -1.3605   -7.1412 N.pl3     1 <0>        -0.6736
     29 C22        -6.7636   -2.7105   -7.0344 C.ar      1 <0>         0.3007
     30 C23        -8.0292   -3.1154   -6.6278 C.ar      1 <0>        -0.2120
     31 C24        -8.3247   -4.4585   -6.5218 C.ar      1 <0>        -0.0369
     32 C25        -7.3659   -5.4157   -6.8191 C.ar      1 <0>        -0.2179
     33 C26        -6.1061   -5.0372   -7.2236 C.ar      1 <0>        -0.0255
     34 C27        -5.7900   -3.6779   -7.3424 C.ar      1 <0>        -0.2824
     35 C28        -4.4518   -3.2661   -7.7786 C.2       1 <0>         0.4028
     36 O5         -4.1487   -2.0915   -7.7793 O.2       1 <0>        -0.4855
     37 C29        -3.4531   -4.3023   -8.2260 C.3       1 <0>        -0.1955
     38 H2          0.9143    2.0131   -0.0088 H         1 <0>         0.0806
     39 H3         -0.6274    1.9775   -0.8977 H         1 <0>         0.0921
     40 H4         -0.6265    1.9928    0.8822 H         1 <0>         0.0929
     41 H5         -0.1272   -4.5336    0.0377 H         1 <0>         0.1392
     42 H6          1.3496   -6.5004    0.0603 H         1 <0>         0.1330
     43 H7          3.7923   -6.2103    0.0779 H         1 <0>         0.1285
     44 H8          4.7728   -3.9542    0.0746 H         1 <0>         0.1306
     45 H9          3.3139   -1.9741    0.0410 H         1 <0>         0.1298
     46 H10        -3.1965   -1.0100    0.5178 H         1 <0>         0.0945
     47 H11        -2.6904    0.6965    0.5059 H         1 <0>         0.0923
     48 H12        -2.4722    0.6146   -1.9627 H         1 <0>         0.0601
     49 H13        -2.9783   -1.0919   -1.9509 H         1 <0>         0.0650
     50 H14        -3.2727   -0.0989   -3.7667 H         1 <0>         0.1207
     51 H15        -4.3387    0.2008   -5.9650 H         1 <0>         0.1235
     52 H16        -7.9843    1.3176   -4.0533 H         1 <0>         0.1304
     53 H17        -6.9289    1.0093   -1.8511 H         1 <0>         0.1273
     54 H18        -7.6453    1.7294   -6.4197 H         1 <0>         0.0872
     55 H19        -6.1238    1.2637   -7.2175 H         1 <0>         0.0745
     56 H20        -5.5601   -1.0797   -7.3542 H         1 <0>         0.4119
     57 H21        -8.7823   -2.3774   -6.3942 H         1 <0>         0.1280
     58 H22        -9.3099   -4.7672   -6.2047 H         1 <0>         0.1183
     59 H23        -7.6094   -6.4643   -6.7324 H         1 <0>         0.1155
     60 H24        -5.3636   -5.7872   -7.4530 H         1 <0>         0.1228
     61 H25        -3.9020   -5.2932   -8.1570 H         1 <0>         0.0808
     62 H26        -3.1633   -4.1057   -9.2582 H         1 <0>         0.0890
     63 H27        -2.5717   -4.2573   -7.5863 H         1 <0>         0.0861
@<TRIPOS>BOND
     1    1    2 1
     2    1   38 1
     3    1   39 1
     4    1   40 1
     5    2    6 1
     6    2    3 2
     7    3    4 1
     8    3   13 1
     9    4    5 2
    10    5    6 1
    11    5    7 1
    12    7   12 ar
    13    7    8 ar
    14    8    9 ar
    15    8   41 1
    16    9   10 ar
    17    9   42 1
    18   10   11 ar
    19   10   43 1
    20   11   12 ar
    21   11   44 1
    22   12   45 1
    23   13   14 1
    24   13   46 1
    25   13   47 1
    26   14   15 1
    27   14   48 1
    28   14   49 1
    29   15   16 1
    30   16   21 ar
    31   16   17 ar
    32   17   18 ar
    33   17   50 1
    34   18   19 ar
    35   18   51 1
    36   19   20 ar
    37   19   22 1
    38   20   21 ar
    39   20   52 1
    40   21   53 1
    41   22   23 1
    42   22   54 1
    43   22   55 1
    44   23   24 1
    45   23   25 1
    46   23   28 1
    47   25   26 2
    48   25   27 1
    49   28   29 1
    50   28   56 1
    51   29   34 ar
    52   29   30 ar
    53   30   31 ar
    54   30   57 1
    55   31   32 ar
    56   31   58 1
    57   32   33 ar
    58   32   59 1
    59   33   34 ar
    60   33   60 1
    61   34   35 1
    62   35   36 2
    63   35   37 1
    64   37   61 1
    65   37   62 1
    66   37   63 1
@<TRIPOS>MOLECULE
CHEMBL220533
   56    59     0     0     0
SMALL
USER_CHARGES

@<TRIPOS>ATOM
      1 C1         -0.0184    1.5028    0.0103 C.3       1 <0>        -0.0728
      2 C2          0.0021   -0.0041    0.0020 C.2       1 <0>        -0.0293
      3 C3         -1.0705   -0.8164    0.0025 C.2       1 <0>        -0.0037
      4 N1         -0.6270   -2.0826   -0.0064 N.2       1 <0>        -0.4572
      5 C4          0.6851   -2.0676   -0.0123 C.2       1 <0>         0.2234
      6 O1          1.0981   -0.7883   -0.0131 O.3       1 <0>        -0.1938
      7 C5          1.5619   -3.2577   -0.0227 C.ar      1 <0>        -0.0133
      8 C6          1.0059   -4.5378   -0.0330 C.ar      1 <0>        -0.0716
      9 C7          1.8298   -5.6443   -0.0432 C.ar      1 <0>        -0.1208
     10 C8          3.2044   -5.4871   -0.0433 C.ar      1 <0>        -0.1032
     11 C9          3.7620   -4.2209   -0.0327 C.ar      1 <0>        -0.1213
     12 C10         2.9493   -3.1060   -0.0282 C.ar      1 <0>        -0.0914
     13 C11        -2.5133   -0.3814    0.0119 C.3       1 <0>        -0.0367
     14 C12        -3.0085   -0.2260   -1.4274 C.3       1 <0>         0.0815
     15 O2         -4.3766    0.1865   -1.4185 O.3       1 <0>        -0.3094
     16 C13        -4.9721    0.3713   -2.6235 C.ar      1 <0>         0.3057
     17 C14        -6.2993    0.7777   -2.6799 C.ar      1 <0>        -0.1858
     18 C15        -6.8947    0.9630   -3.9152 C.ar      1 <0>        -0.0175
     19 C16        -6.1377    0.7339   -5.0562 C.ar      1 <0>        -0.1407
     20 C17        -4.8238    0.3313   -4.9253 C.ar      1 <0>         0.1421
     21 N2         -4.2819    0.1679   -3.7332 N.ar      1 <0>        -0.5426
     22 C18        -6.7440    0.9223   -6.4229 C.3       1 <0>        -0.0827
     23 C19        -6.5273    2.3655   -6.8825 C.3       1 <0>         0.0537
     24 C20        -7.2485    2.5910   -8.2140 C.3       1 <0>        -0.1268
     25 C21        -6.6426    1.6689   -9.2765 C.3       1 <0>        -0.1221
     26 C22        -5.1387    1.9422   -9.3763 C.3       1 <0>        -0.1526
     27 C23        -4.4990    1.7417   -8.0000 C.3       1 <0>         0.0453
     28 O3         -5.1291    2.6065   -7.0528 O.3       1 <0>        -0.3404
     29 C24        -7.0778    3.3109   -5.8461 C.2       1 <0>         0.5175
     30 O4         -6.3409    4.1164   -5.3031 O.co2     1 <0>        -0.6715
     31 O5         -8.2599    3.2704   -5.5506 O.co2     1 <0>        -0.6915
     32 H1          1.0042    1.8801    0.0026 H         1 <0>         0.0799
     33 H2         -0.5455    1.8639   -0.8728 H         1 <0>         0.0949
     34 H3         -0.5286    1.8543    0.9071 H         1 <0>         0.0931
     35 H4         -0.0670   -4.6619   -0.0326 H         1 <0>         0.1389
     36 H5          1.4008   -6.6354   -0.0508 H         1 <0>         0.1319
     37 H6          3.8450   -6.3565   -0.0513 H         1 <0>         0.1276
     38 H7          4.8357   -4.1050   -0.0321 H         1 <0>         0.1300
     39 H8          3.3858   -2.1181   -0.0249 H         1 <0>         0.1301
     40 H9         -3.1156   -1.1316    0.5243 H         1 <0>         0.0918
     41 H10        -2.6018    0.5726    0.5316 H         1 <0>         0.0915
     42 H11        -2.4061    0.5242   -1.9398 H         1 <0>         0.0640
     43 H12        -2.9200   -1.1800   -1.9471 H         1 <0>         0.0663
     44 H13        -6.8590    0.9466   -1.7718 H         1 <0>         0.1359
     45 H14        -7.9250    1.2782   -3.9901 H         1 <0>         0.1475
     46 H15        -4.2305    0.1518   -5.8097 H         1 <0>         0.1479
     47 H16        -6.2683    0.2410   -7.1284 H         1 <0>         0.0658
     48 H17        -7.8125    0.7116   -6.3786 H         1 <0>         0.0830
     49 H18        -8.3083    2.3649   -8.0970 H         1 <0>         0.0742
     50 H19        -7.1284    3.6297   -8.5218 H         1 <0>         0.0634
     51 H20        -6.8062    0.6292   -8.9931 H         1 <0>         0.0605
     52 H21        -7.1134    1.8640  -10.2400 H         1 <0>         0.0585
     53 H22        -4.6897    1.2521  -10.0906 H         1 <0>         0.0618
     54 H23        -4.9760    2.9678   -9.7077 H         1 <0>         0.0668
     55 H24        -4.6268    0.7054   -7.6872 H         1 <0>         0.0421
     56 H25        -3.4360    1.9763   -8.0555 H         1 <0>         0.0821
@<TRIPOS>BOND
     1    1    2 1
     2    1   32 1
     3    1   33 1
     4    1   34 1
     5    2    6 1
     6    2    3 2
     7    3    4 1
     8    3   13 1
     9    4    5 2
    10    5    6 1
    11    5    7 1
    12    7   12 ar
    13    7    8 ar
    14    8    9 ar
    15    8   35 1
    16    9   10 ar
    17    9   36 1
    18   10   11 ar
    19   10   37 1
    20   11   12 ar
    21   11   38 1
    22   12   39 1
    23   13   14 1
    24   13   40 1
    25   13   41 1
    26   14   15 1
    27   14   42 1
    28   14   43 1
    29   15   16 1
    30   16   21 ar
    31   16   17 ar
    32   17   18 ar
    33   17   44 1
    34   18   19 ar
    35   18   45 1
    36   19   20 ar
    37   19   22 1
    38   20   21 ar
    39   20   46 1
    40   22   23 1
    41   22   47 1
    42   22   48 1
    43   23   28 1
    44   23   24 1
    45   23   29 1
    46   24   25 1
    47   24   49 1
    48   24   50 1
    49   25   26 1
    50   25   51 1
    51   25   52 1
    52   26   27 1
    53   26   53 1
    54   26   54 1
    55   27   28 1
    56   27   55 1
    57   27   56 1
    58   29   30 2
    59   29   31 1
@<TRIPOS>MOLECULE
CHEMBL220533__1
   56    59     0     0     0
SMALL
USER_CHARGES

@<TRIPOS>ATOM
      1 C1         -0.0184    1.5028    0.0103 C.3       1 <0>        -0.0730
      2 C2          0.0021   -0.0041    0.0020 C.2       1 <0>        -0.0285
      3 C3         -1.0705   -0.8164    0.0025 C.2       1 <0>        -0.0047
      4 N1         -0.6270   -2.0826   -0.0064 N.2       1 <0>        -0.4572
      5 C4          0.6851   -2.0676   -0.0123 C.2       1 <0>         0.2237
      6 O1          1.0981   -0.7883   -0.0131 O.3       1 <0>        -0.1935
      7 C5          1.5619   -3.2577   -0.0227 C.ar      1 <0>        -0.0130
      8 C6          1.0059   -4.5378   -0.0330 C.ar      1 <0>        -0.0715
      9 C7          1.8298   -5.6443   -0.0432 C.ar      1 <0>        -0.1209
     10 C8          3.2044   -5.4871   -0.0433 C.ar      1 <0>        -0.1034
     11 C9          3.7620   -4.2209   -0.0327 C.ar      1 <0>        -0.1213
     12 C10         2.9493   -3.1060   -0.0282 C.ar      1 <0>        -0.0912
     13 C11        -2.5133   -0.3814    0.0119 C.3       1 <0>        -0.0351
     14 C12        -3.0085   -0.2260   -1.4274 C.3       1 <0>         0.0801
     15 O2         -4.3766    0.1865   -1.4185 O.3       1 <0>        -0.3113
     16 C13        -4.9721    0.3713   -2.6235 C.ar      1 <0>         0.3048
     17 C14        -6.2993    0.7777   -2.6799 C.ar      1 <0>        -0.1963
     18 C15        -6.8947    0.9630   -3.9152 C.ar      1 <0>        -0.0246
     19 C16        -6.1377    0.7339   -5.0562 C.ar      1 <0>        -0.1430
     20 C17        -4.8238    0.3313   -4.9253 C.ar      1 <0>         0.1599
     21 N2         -4.2819    0.1679   -3.7332 N.ar      1 <0>        -0.5386
     22 C18        -6.7440    0.9223   -6.4229 C.3       1 <0>        -0.0426
     23 C19        -6.5273    2.3655   -6.8825 C.3       1 <0>         0.0483
     24 C20        -7.1444    2.5574   -8.2703 C.3       1 <0>        -0.1247
     25 C21        -6.9765    4.0188   -8.6975 C.3       1 <0>        -0.1177
     26 C22        -7.6217    4.9245   -7.6441 C.3       1 <0>        -0.1492
     27 C23        -6.9862    4.6411   -6.2804 C.3       1 <0>         0.0441
     28 O3         -7.1508    3.2588   -5.9577 O.3       1 <0>        -0.3695
     29 C24        -5.0500    2.6567   -6.9444 C.2       1 <0>         0.4920
     30 O4         -4.3300    2.0025   -7.6792 O.co2     1 <0>        -0.6934
     31 O5         -4.5749    3.5466   -6.2597 O.co2     1 <0>        -0.6789
     32 H1          1.0042    1.8801    0.0026 H         1 <0>         0.0801
     33 H2         -0.5455    1.8639   -0.8728 H         1 <0>         0.0955
     34 H3         -0.5286    1.8543    0.9071 H         1 <0>         0.0924
     35 H4         -0.0670   -4.6619   -0.0326 H         1 <0>         0.1389
     36 H5          1.4008   -6.6354   -0.0508 H         1 <0>         0.1318
     37 H6          3.8450   -6.3565   -0.0513 H         1 <0>         0.1274
     38 H7          4.8357   -4.1050   -0.0321 H         1 <0>         0.1299
     39 H8          3.3858   -2.1181   -0.0249 H         1 <0>         0.1302
     40 H9         -3.1156   -1.1316    0.5243 H         1 <0>         0.0912
     41 H10        -2.6018    0.5726    0.5316 H         1 <0>         0.0905
     42 H11        -2.4061    0.5242   -1.9398 H         1 <0>         0.0655
     43 H12        -2.9200   -1.1800   -1.9471 H         1 <0>         0.0674
     44 H13        -6.8590    0.9466   -1.7718 H         1 <0>         0.1333
     45 H14        -7.9250    1.2782   -3.9901 H         1 <0>         0.1365
     46 H15        -4.2305    0.1518   -5.8097 H         1 <0>         0.1612
     47 H16        -6.2683    0.2410   -7.1284 H         1 <0>         0.0868
     48 H17        -7.8125    0.7116   -6.3786 H         1 <0>         0.0660
     49 H18        -6.6400    1.9084   -8.9862 H         1 <0>         0.0719
     50 H19        -8.2048    2.3077   -8.2352 H         1 <0>         0.0533
     51 H20        -5.9156    4.2548   -8.7808 H         1 <0>         0.0665
     52 H21        -7.4629    4.1755   -9.6603 H         1 <0>         0.0532
     53 H22        -7.4587    5.9684   -7.9120 H         1 <0>         0.0596
     54 H23        -8.6918    4.7227   -7.5963 H         1 <0>         0.0549
     55 H24        -5.9237    4.8817   -6.3175 H         1 <0>         0.0970
     56 H25        -7.4712    5.2524   -5.5193 H         1 <0>         0.0689
@<TRIPOS>BOND
     1    1    2 1
     2    1   32 1
     3    1   33 1
     4    1   34 1
     5    2    6 1
     6    2    3 2
     7    3    4 1
     8    3   13 1
     9    4    5 2
    10    5    6 1
    11    5    7 1
    12    7   12 ar
    13    7    8 ar
    14    8    9 ar
    15    8   35 1
    16    9   10 ar
    17    9   36 1
    18   10   11 ar
    19   10   37 1
    20   11   12 ar
    21   11   38 1
    22   12   39 1
    23   13   14 1
    24   13   40 1
    25   13   41 1
    26   14   15 1
    27   14   42 1
    28   14   43 1
    29   15   16 1
    30   16   21 ar
    31   16   17 ar
    32   17   18 ar
    33   17   44 1
    34   18   19 ar
    35   18   45 1
    36   19   20 ar
    37   19   22 1
    38   20   21 ar
    39   20   46 1
    40   22   23 1
    41   22   47 1
    42   22   48 1
    43   23   28 1
    44   23   24 1
    45   23   29 1
    46   24   25 1
    47   24   49 1
    48   24   50 1
    49   25   26 1
    50   25   51 1
    51   25   52 1
    52   26   27 1
    53   26   53 1
    54   26   54 1
    55   27   28 1
    56   27   55 1
    57   27   56 1
    58   29   30 2
    59   29   31 1
@<TRIPOS>MOLECULE
CHEMBL259055
   50    52     0     0     0
SMALL
USER_CHARGES

@<TRIPOS>ATOM
      1 C1          0.2753    1.1890   -0.1587 C.3       1 <0>        -0.0969
      2 C2          0.1609   -0.3095   -0.0466 C.ar      1 <0>        -0.1217
      3 C3          0.2118   -1.0926   -1.1830 C.ar      1 <0>        -0.0667
      4 C4          0.1063   -2.4737   -1.0794 C.ar      1 <0>        -0.1374
      5 C5         -0.0504   -3.0658    0.1677 C.ar      1 <0>        -0.1072
      6 C6         -0.1011   -2.2810    1.3025 C.ar      1 <0>        -0.1347
      7 C7          0.0101   -0.9020    1.1983 C.ar      1 <0>         0.1755
      8 O1         -0.0339   -0.1302    2.3173 O.3       1 <0>        -0.2961
      9 C8         -0.0637   -0.8104    3.5737 C.3       1 <0>         0.0285
     10 C9          1.1832   -1.6868    3.7089 C.3       1 <0>        -0.1738
     11 C10        -0.0914    0.2155    4.7085 C.3       1 <0>        -0.1151
     12 C11        -1.2958   -1.6749    3.6479 C.2       1 <0>         0.4813
     13 O2         -2.0761   -1.7058    2.7116 O.co2     1 <0>        -0.6690
     14 O3         -1.5123   -2.3435    4.6442 O.co2     1 <0>        -0.6841
     15 S1          0.1706   -3.4741   -2.5285 S.3       1 <0>        -0.0945
     16 C12        -0.0049   -5.1671   -1.9011 C.3       1 <0>        -0.0358
     17 C13         0.0341   -6.1366   -3.0542 C.2       1 <0>         0.0826
     18 N1          1.0746   -6.7393   -3.5843 N.2       1 <0>        -0.5046
     19 C14         0.8633   -7.5562   -4.6007 C.2       1 <0>         0.2935
     20 N2         -0.3783   -7.7127   -5.0160 N.2       1 <0>        -0.4689
     21 S2         -1.2426   -6.7213   -3.9767 S.3       1 <0>         0.3392
     22 C15         1.9859   -8.2734   -5.2535 C.ar      1 <0>        -0.0262
     23 C16         3.2896   -8.0960   -4.7933 C.ar      1 <0>        -0.0223
     24 C17         4.3316   -8.7638   -5.4019 C.ar      1 <0>        -0.1841
     25 C18         4.0835   -9.6124   -6.4720 C.ar      1 <0>         0.1330
     26 C19         2.7855   -9.7913   -6.9336 C.ar      1 <0>        -0.0500
     27 C20         1.7382   -9.1303   -6.3244 C.ar      1 <0>        -0.0338
     28 Cl1         2.4797  -10.8530   -8.2726 Cl        1 <0>        -0.0372
     29 O4          5.1123  -10.2690   -7.0695 O.3       1 <0>        -0.3004
     30 C21         6.4213  -10.0385   -6.5445 C.3       1 <0>         0.6044
     31 F1          6.4591  -10.4244   -5.2003 F         1 <0>        -0.1613
     32 F2          7.3536  -10.7869   -7.2710 F         1 <0>        -0.1271
     33 F3          6.7325   -8.6785   -6.6481 F         1 <0>        -0.1611
     34 H1          1.3242    1.4790   -0.0960 H         1 <0>         0.0617
     35 H2         -0.1350    1.5142   -1.1147 H         1 <0>         0.0593
     36 H3         -0.2804    1.6576    0.6535 H         1 <0>         0.0701
     37 H4          0.3333   -0.6313   -2.1520 H         1 <0>         0.1246
     38 H5         -0.1329   -4.1396    0.2495 H         1 <0>         0.1145
     39 H6         -0.2229   -2.7410    2.2720 H         1 <0>         0.1448
     40 H7          2.0591   -1.0533    3.8487 H         1 <0>         0.0520
     41 H8          1.0715   -2.3473    4.5687 H         1 <0>         0.0757
     42 H9          1.3072   -2.2840    2.8056 H         1 <0>         0.0660
     43 H10        -0.9332    0.8931    4.5652 H         1 <0>         0.0574
     44 H11        -0.1989   -0.3007    5.6625 H         1 <0>         0.0787
     45 H12         0.8379    0.7851    4.7062 H         1 <0>         0.0511
     46 H13         0.8123   -5.3865   -1.2141 H         1 <0>         0.1256
     47 H14        -0.9559   -5.2637   -1.3773 H         1 <0>         0.1232
     48 H15         3.4837   -7.4357   -3.9610 H         1 <0>         0.1574
     49 H16         5.3418   -8.6260   -5.0456 H         1 <0>         0.1503
     50 H17         0.7285   -9.2735   -6.6800 H         1 <0>         0.1596
@<TRIPOS>BOND
     1    1    2 1
     2    1   34 1
     3    1   35 1
     4    1   36 1
     5    2    7 ar
     6    2    3 ar
     7    3    4 ar
     8    3   37 1
     9    4    5 ar
    10    4   15 1
    11    5    6 ar
    12    5   38 1
    13    6    7 ar
    14    6   39 1
    15    7    8 1
    16    8    9 1
    17    9   10 1
    18    9   11 1
    19    9   12 1
    20   10   40 1
    21   10   41 1
    22   10   42 1
    23   11   43 1
    24   11   44 1
    25   11   45 1
    26   12   13 2
    27   12   14 1
    28   15   16 1
    29   16   17 1
    30   16   46 1
    31   16   47 1
    32   17   21 1
    33   17   18 2
    34   18   19 1
    35   19   20 2
    36   19   22 1
    37   20   21 1
    38   22   27 ar
    39   22   23 ar
    40   23   24 ar
    41   23   48 1
    42   24   25 ar
    43   24   49 1
    44   25   26 ar
    45   25   29 1
    46   26   27 ar
    47   26   28 1
    48   27   50 1
    49   29   30 1
    50   30   31 1
    51   30   32 1
    52   30   33 1
@<TRIPOS>MOLECULE
CHEMBL560830
   61    65     0     0     0
SMALL
USER_CHARGES

@<TRIPOS>ATOM
      1 C1         -0.2388    1.3471   -0.2020 C.3       1 <0>        -0.1103
      2 C2         -0.2208   -0.1597   -0.1845 C.2       1 <0>         0.1452
      3 C3         -0.2913   -0.9594   -1.2895 C.2       1 <0>        -0.2557
      4 C4         -0.2402   -2.3508   -0.8017 C.ar      1 <0>        -0.0831
      5 C5         -0.2709   -3.5954   -1.4258 C.ar      1 <0>        -0.0384
      6 C6         -0.2037   -4.7356   -0.6743 C.ar      1 <0>        -0.2015
      7 C7         -0.1047   -4.6602    0.7119 C.ar      1 <0>         0.1216
      8 C8         -0.0729   -3.4327    1.3476 C.ar      1 <0>        -0.1204
      9 C9         -0.1404   -2.2643    0.5960 C.ar      1 <0>         0.1332
     10 N1         -0.1263   -0.9252    0.9290 N.pl3     1 <0>        -0.4500
     11 C10        -0.0271   -0.4048    2.2948 C.3       1 <0>         0.1447
     12 C11        -1.4096   -0.2431    2.8725 C.ar      1 <0>        -0.0924
     13 C12        -2.0914    0.9489    2.7091 C.ar      1 <0>        -0.1572
     14 C13        -3.3598    1.1005    3.2378 C.ar      1 <0>        -0.0906
     15 C14        -3.9491    0.0609    3.9313 C.ar      1 <0>        -0.1575
     16 C15        -3.2673   -1.1357    4.0966 C.ar      1 <0>         0.1725
     17 C16        -1.9968   -1.2874    3.5597 C.ar      1 <0>        -0.1418
     18 O1         -3.8449   -2.1596    4.7783 O.3       1 <0>        -0.2983
     19 C17        -3.0369   -3.3123    5.0248 C.3       1 <0>         0.0144
     20 C18        -2.8532   -4.2111    3.7906 C.3       1 <0>        -0.1449
     21 C19        -3.0046   -5.4115    4.7399 C.3       1 <0>        -0.1257
     22 C20        -3.8078   -4.4799    5.6629 C.3       1 <0>        -0.1071
     23 C21        -1.7472   -2.9827    5.7312 C.2       1 <0>         0.4994
     24 O2         -1.5687   -1.8649    6.1843 O.co2     1 <0>        -0.6700
     25 O3         -0.8822   -3.8337    5.8496 O.co2     1 <0>        -0.6748
     26 O4         -0.0391   -5.8021    1.4464 O.3       1 <0>        -0.3001
     27 C22        -0.0771   -7.0377    0.7296 C.3       1 <0>         0.6041
     28 F1          1.0051   -7.0972   -0.1549 F         1 <0>        -0.1678
     29 F2         -0.0003   -8.1034    1.6328 F         1 <0>        -0.1309
     30 F3         -1.2734   -7.1224    0.0092 F         1 <0>        -0.1660
     31 C23        -0.3977   -0.5211   -2.6861 C.2       1 <0>         0.4842
     32 O5         -1.4899   -0.4384   -3.2163 O.2       1 <0>        -0.4383
     33 C24         0.8219   -0.1802   -3.4487 C.ar      1 <0>        -0.1534
     34 C25         2.0668   -0.1787   -2.8160 C.ar      1 <0>        -0.0472
     35 C26         3.2008    0.1403   -3.5326 C.ar      1 <0>        -0.1242
     36 C27         3.1069    0.4586   -4.8775 C.ar      1 <0>        -0.0076
     37 C28         1.8748    0.4588   -5.5107 C.ar      1 <0>        -0.1251
     38 C29         0.7344    0.1360   -4.8060 C.ar      1 <0>        -0.0512
     39 Cl1         4.5391    0.8596   -5.7729 Cl        1 <0>        -0.0657
     40 H1          0.7814    1.7217   -0.2853 H         1 <0>         0.0859
     41 H2         -0.8238    1.6936   -1.0539 H         1 <0>         0.0854
     42 H3         -0.6870    1.7158    0.7206 H         1 <0>         0.0846
     43 H4         -0.3481   -3.6597   -2.5011 H         1 <0>         0.1293
     44 H5         -0.2280   -5.7003   -1.1592 H         1 <0>         0.1341
     45 H6          0.0037   -3.3813    2.4236 H         1 <0>         0.1426
     46 H7          0.5438   -1.1016    2.9085 H         1 <0>         0.1037
     47 H8          0.4757    0.5621    2.2796 H         1 <0>         0.1030
     48 H9         -1.6322    1.7629    2.1679 H         1 <0>         0.1151
     49 H10        -3.8902    2.0323    3.1088 H         1 <0>         0.1223
     50 H11        -4.9397    0.1801    4.3448 H         1 <0>         0.1232
     51 H12        -1.4658   -2.2197    3.6830 H         1 <0>         0.1308
     52 H13        -3.6607   -4.1249    3.0636 H         1 <0>         0.0724
     53 H14        -1.8647   -4.1345    3.3379 H         1 <0>         0.0693
     54 H15        -3.5948   -6.2270    4.3219 H         1 <0>         0.0611
     55 H16        -2.0623   -5.7479    5.1721 H         1 <0>         0.1011
     56 H17        -3.5899   -4.6202    6.7216 H         1 <0>         0.0708
     57 H18        -4.8763   -4.4671    5.4477 H         1 <0>         0.0786
     58 H19         2.1411   -0.4264   -1.7674 H         1 <0>         0.1429
     59 H20         4.1641    0.1422   -3.0443 H         1 <0>         0.1395
     60 H21         1.8079    0.7082   -6.5593 H         1 <0>         0.1391
     61 H22        -0.2250    0.1317   -5.3018 H         1 <0>         0.1434
@<TRIPOS>BOND
     1    1    2 1
     2    1   40 1
     3    1   41 1
     4    1   42 1
     5    2   10 1
     6    2    3 2
     7    3    4 1
     8    3   31 1
     9    4    9 ar
    10    4    5 ar
    11    5    6 ar
    12    5   43 1
    13    6    7 ar
    14    6   44 1
    15    7    8 ar
    16    7   26 1
    17    8    9 ar
    18    8   45 1
    19    9   10 1
    20   10   11 1
    21   11   12 1
    22   11   46 1
    23   11   47 1
    24   12   17 ar
    25   12   13 ar
    26   13   14 ar
    27   13   48 1
    28   14   15 ar
    29   14   49 1
    30   15   16 ar
    31   15   50 1
    32   16   17 ar
    33   16   18 1
    34   17   51 1
    35   18   19 1
    36   19   22 1
    37   19   20 1
    38   19   23 1
    39   20   21 1
    40   20   52 1
    41   20   53 1
    42   21   22 1
    43   21   54 1
    44   21   55 1
    45   22   56 1
    46   22   57 1
    47   23   24 2
    48   23   25 1
    49   26   27 1
    50   27   28 1
    51   27   29 1
    52   27   30 1
    53   31   32 2
    54   31   33 1
    55   33   38 ar
    56   33   34 ar
    57   34   35 ar
    58   34   58 1
    59   35   36 ar
    60   35   59 1
    61   36   37 ar
    62   36   39 1
    63   37   38 ar
    64   37   60 1
    65   38   61 1
@<TRIPOS>MOLECULE
CHEMBL118887
   53    56     0     0     0
SMALL
USER_CHARGES

@<TRIPOS>ATOM
      1 C1         -0.0187    1.5258    0.0104 C.3       1 <0>        -0.1519
      2 C2          0.0021   -0.0041    0.0020 C.3       1 <0>        -0.1162
      3 C3         -1.4333   -0.5336    0.0129 C.3       1 <0>        -0.0700
      4 C4         -1.4129   -2.0405    0.0046 C.ar      1 <0>        -0.1208
      5 C5         -1.4091   -2.7284   -1.1962 C.ar      1 <0>         0.2032
      6 C6         -1.3902   -4.1210   -1.2125 C.ar      1 <0>        -0.2173
      7 C7         -1.3752   -4.8265   -0.0438 C.ar      1 <0>         0.0000
      8 C8         -1.3783   -4.1488    1.1782 C.ar      1 <0>        -0.2155
      9 C9         -1.3920   -2.7433    1.2011 C.ar      1 <0>         0.1313
     10 O1         -1.3852   -2.3679    2.4962 O.3       1 <0>        -0.0553
     11 N1         -1.3616   -3.5187    3.3166 N.2       1 <0>        -0.2276
     12 C10        -1.3657   -4.5850    2.5767 C.2       1 <0>         0.0473
     13 C11        -1.3444   -6.0101    3.0661 C.3       1 <0>         0.5559
     14 F1         -0.0190   -6.4336    3.2112 F         1 <0>        -0.1561
     15 F2         -1.9969   -6.0889    4.3011 F         1 <0>        -0.1573
     16 F3         -1.9976   -6.8309    2.1405 F         1 <0>        -0.1556
     17 O2         -1.4243   -2.0406   -2.3674 O.3       1 <0>        -0.2848
     18 C12        -1.4195   -2.8099   -3.5717 C.3       1 <0>         0.0583
     19 C13        -1.4384   -1.8689   -4.7780 C.3       1 <0>         0.0620
     20 O3         -0.2279   -1.1101   -4.8092 O.3       1 <0>        -0.3129
     21 C14        -0.0838   -0.2193   -5.8266 C.ar      1 <0>         0.0853
     22 C15        -1.0957   -0.0777   -6.7730 C.ar      1 <0>        -0.1896
     23 C16        -0.9662    0.8196   -7.8091 C.ar      1 <0>        -0.0757
     24 C17         0.1833    1.5952   -7.9178 C.ar      1 <0>         0.0884
     25 C18         1.2069    1.4546   -6.9639 C.ar      1 <0>        -0.0747
     26 C19         1.0625    0.5448   -5.9140 C.ar      1 <0>        -0.1100
     27 C20         2.2587    2.3958   -7.3560 C.2       1 <0>        -0.2343
     28 C21         1.8341    3.0195   -8.4663 C.2       1 <0>         0.0797
     29 N2          0.5963    2.5550   -8.8178 N.pl3     1 <0>        -0.4415
     30 C22        -0.1751    3.0088   -9.9777 C.3       1 <0>         0.0318
     31 C23        -1.1340    4.0904   -9.5513 C.2       1 <0>         0.4800
     32 O4         -1.1697    4.4489   -8.3865 O.co2     1 <0>        -0.6709
     33 O5         -1.8740    4.6069  -10.3711 O.co2     1 <0>        -0.6927
     34 H1          1.0039    1.9031    0.0027 H         1 <0>         0.0556
     35 H2         -0.5459    1.8868   -0.8726 H         1 <0>         0.0594
     36 H3         -0.5289    1.8773    0.9072 H         1 <0>         0.0522
     37 H4          0.5123   -0.3556   -0.8948 H         1 <0>         0.0685
     38 H5          0.5293   -0.3651    0.8851 H         1 <0>         0.0570
     39 H6         -1.9435   -0.1821    0.9097 H         1 <0>         0.0739
     40 H7         -1.9605   -0.1726   -0.8702 H         1 <0>         0.0871
     41 H8         -1.3878   -4.6463   -2.1561 H         1 <0>         0.1480
     42 H9         -1.3613   -5.9062   -0.0637 H         1 <0>         0.1434
     43 H10        -0.5210   -3.4260   -3.6056 H         1 <0>         0.0807
     44 H11        -2.3007   -3.4508   -3.5969 H         1 <0>         0.0883
     45 H12        -1.5243   -2.4539   -5.6937 H         1 <0>         0.0849
     46 H13        -2.2893   -1.1925   -4.6978 H         1 <0>         0.0740
     47 H14        -1.9902   -0.6777   -6.6935 H         1 <0>         0.1225
     48 H15        -1.7570    0.9211   -8.5377 H         1 <0>         0.1178
     49 H16         1.8447    0.4370   -5.1771 H         1 <0>         0.1230
     50 H17         3.1977    2.5577   -6.8477 H         1 <0>         0.1411
     51 H18         2.3877    3.7759   -9.0027 H         1 <0>         0.1605
     52 H19         0.5038    3.4026  -10.7340 H         1 <0>         0.0876
     53 H20        -0.7344    2.1703  -10.3927 H         1 <0>         0.0821
@<TRIPOS>BOND
     1    1    2 1
     2    1   34 1
     3    1   35 1
     4    1   36 1
     5    2    3 1
     6    2   37 1
     7    2   38 1
     8    3    4 1
     9    3   39 1
    10    3   40 1
    11    4    9 ar
    12    4    5 ar
    13    5    6 ar
    14    5   17 1
    15    6    7 ar
    16    6   41 1
    17    7    8 ar
    18    7   42 1
    19    8   12 1
    20    8    9 ar
    21    9   10 1
    22   10   11 1
    23   11   12 2
    24   12   13 1
    25   13   14 1
    26   13   15 1
    27   13   16 1
    28   17   18 1
    29   18   19 1
    30   18   43 1
    31   18   44 1
    32   19   20 1
    33   19   45 1
    34   19   46 1
    35   20   21 1
    36   21   26 ar
    37   21   22 ar
    38   22   23 ar
    39   22   47 1
    40   23   24 ar
    41   23   48 1
    42   24   29 1
    43   24   25 ar
    44   25   26 ar
    45   25   27 1
    46   26   49 1
    47   27   28 2
    48   27   50 1
    49   28   29 1
    50   28   51 1
    51   29   30 1
    52   30   31 1
    53   30   52 1
    54   30   53 1
    55   31   32 2
    56   31   33 1
@<TRIPOS>MOLECULE
CHEMBL454678
   66    68     0     0     0
SMALL
USER_CHARGES

@<TRIPOS>ATOM
      1 C1         -2.0733    0.4451    0.2641 C.3       1 <0>        -0.0955
      2 C2         -1.7681   -1.0302    0.3027 C.ar      1 <0>        -0.1427
      3 C3         -1.4968   -1.7110   -0.8686 C.ar      1 <0>        -0.0739
      4 C4         -1.2172   -3.0645   -0.8338 C.ar      1 <0>        -0.1661
      5 C5         -1.2079   -3.7402    0.3727 C.ar      1 <0>        -0.0784
      6 C6         -1.4780   -3.0641    1.5464 C.ar      1 <0>        -0.1562
      7 C7         -1.7537   -1.7045    1.5148 C.ar      1 <0>         0.1803
      8 O1         -2.0142   -1.0359    2.6688 O.3       1 <0>        -0.2983
      9 C8         -1.8537   -1.7614    3.8894 C.3       1 <0>         0.0292
     10 C9         -0.4125   -2.2633    3.9986 C.3       1 <0>        -0.1734
     11 C10        -2.1651   -0.8434    5.0731 C.3       1 <0>        -0.1147
     12 C11        -2.7972   -2.9364    3.9032 C.2       1 <0>         0.4816
     13 O2         -3.5385   -3.1341    2.9556 O.co2     1 <0>        -0.6684
     14 O3         -2.8194   -3.6892    4.8620 O.co2     1 <0>        -0.6858
     15 C12        -0.9226   -3.8048   -2.1130 C.3       1 <0>         0.1735
     16 N1          0.5171   -3.7633   -2.3808 N.am      1 <0>        -0.7078
     17 C13         1.0158   -4.3640   -3.4793 C.2       1 <0>         0.6009
     18 O4          0.2709   -4.9404   -4.2480 O.2       1 <0>        -0.5366
     19 C14         2.4677   -4.3222   -3.7494 C.2       1 <0>        -0.0113
     20 C15         3.1296   -4.8976   -4.8557 C.2       1 <0>        -0.1572
     21 C16         4.4531   -4.6040   -4.6811 C.2       1 <0>         0.0461
     22 N2          4.5492   -3.8898   -3.5234 N.pl3     1 <0>        -0.2768
     23 N3          3.3841   -3.7356   -3.0049 N.2       1 <0>        -0.2494
     24 C17         5.7966   -3.3705   -2.9572 C.3       1 <0>         0.0765
     25 C18         5.5675   -4.9875   -5.5764 C.ar      1 <0>        -0.0211
     26 C19         5.4127   -6.0434   -6.4746 C.ar      1 <0>        -0.0915
     27 C20         6.4552   -6.3959   -7.3069 C.ar      1 <0>        -0.1086
     28 C21         7.6521   -5.7044   -7.2519 C.ar      1 <0>        -0.0741
     29 C22         7.8119   -4.6562   -6.3633 C.ar      1 <0>        -0.1120
     30 C23         6.7750   -4.2908   -5.5294 C.ar      1 <0>        -0.1227
     31 C24         8.7869   -6.0948   -8.1635 C.3       1 <0>        -0.0789
     32 C25         8.6851   -5.3067   -9.4709 C.3       1 <0>        -0.0911
     33 C26         9.9037   -5.6094  -10.3451 C.3       1 <0>        -0.1485
     34 C27         7.4109   -5.7134  -10.2137 C.3       1 <0>        -0.1527
     35 H1         -1.1463    1.0105    0.3596 H         1 <0>         0.0580
     36 H2         -2.5536    0.6920   -0.6827 H         1 <0>         0.0568
     37 H3         -2.7406    0.6997    1.0874 H         1 <0>         0.0672
     38 H4         -1.5035   -1.1855   -1.8121 H         1 <0>         0.1187
     39 H5         -0.9895   -4.7976    0.3971 H         1 <0>         0.1152
     40 H6         -1.4706   -3.5923    2.4884 H         1 <0>         0.1407
     41 H7          0.2510   -1.4221    4.1996 H         1 <0>         0.0503
     42 H8         -0.3399   -2.9856    4.8117 H         1 <0>         0.0750
     43 H9         -0.1218   -2.7397    3.0623 H         1 <0>         0.0673
     44 H10        -3.1618   -0.4193    4.9517 H         1 <0>         0.0568
     45 H11        -2.1248   -1.4176    5.9987 H         1 <0>         0.0782
     46 H12        -1.4303   -0.0391    5.1123 H         1 <0>         0.0502
     47 H13        -1.2442   -4.8417   -2.0150 H         1 <0>         0.0743
     48 H14        -1.4592   -3.3343   -2.9369 H         1 <0>         0.0735
     49 H15         1.1114   -3.3034   -1.7675 H         1 <0>         0.4077
     50 H16         2.6844   -5.4526   -5.6682 H         1 <0>         0.1647
     51 H17         5.9854   -2.3712   -3.3495 H         1 <0>         0.0879
     52 H18         5.7114   -3.3246   -1.8715 H         1 <0>         0.1010
     53 H19         6.6211   -4.0294   -3.2294 H         1 <0>         0.1009
     54 H20         4.4788   -6.5842   -6.5182 H         1 <0>         0.1307
     55 H21         6.3367   -7.2134   -8.0025 H         1 <0>         0.1274
     56 H22         8.7487   -4.1202   -6.3250 H         1 <0>         0.1249
     57 H23         6.8995   -3.4697   -4.8390 H         1 <0>         0.1277
     58 H24         9.7366   -5.8715   -7.6775 H         1 <0>         0.0728
     59 H25         8.7303   -7.1622   -8.3773 H         1 <0>         0.0737
     60 H26         8.6522   -4.2397   -9.2503 H         1 <0>         0.0707
     61 H27         9.9366   -6.6764  -10.5657 H         1 <0>         0.0551
     62 H28         9.8312   -5.0479  -11.2765 H         1 <0>         0.0555
     63 H29        10.8115   -5.3197   -9.8159 H         1 <0>         0.0542
     64 H30         7.4437   -6.7803  -10.4343 H         1 <0>         0.0543
     65 H31         6.5427   -5.4977   -9.5909 H         1 <0>         0.0605
     66 H32         7.3384   -5.1518  -11.1451 H         1 <0>         0.0533
@<TRIPOS>BOND
     1    1    2 1
     2    1   35 1
     3    1   36 1
     4    1   37 1
     5    2    7 ar
     6    2    3 ar
     7    3    4 ar
     8    3   38 1
     9    4    5 ar
    10    4   15 1
    11    5    6 ar
    12    5   39 1
    13    6    7 ar
    14    6   40 1
    15    7    8 1
    16    8    9 1
    17    9   10 1
    18    9   11 1
    19    9   12 1
    20   10   41 1
    21   10   42 1
    22   10   43 1
    23   11   44 1
    24   11   45 1
    25   11   46 1
    26   12   13 2
    27   12   14 1
    28   15   16 1
    29   15   47 1
    30   15   48 1
    31   16   17 am
    32   16   49 1
    33   17   18 2
    34   17   19 1
    35   19   23 2
    36   19   20 1
    37   20   21 2
    38   20   50 1
    39   21   22 1
    40   21   25 1
    41   22   23 1
    42   22   24 1
    43   24   51 1
    44   24   52 1
    45   24   53 1
    46   25   30 ar
    47   25   26 ar
    48   26   27 ar
    49   26   54 1
    50   27   28 ar
    51   27   55 1
    52   28   29 ar
    53   28   31 1
    54   29   30 ar
    55   29   56 1
    56   30   57 1
    57   31   32 1
    58   31   58 1
    59   31   59 1
    60   32   33 1
    61   32   34 1
    62   32   60 1
    63   33   61 1
    64   33   62 1
    65   33   63 1
    66   34   64 1
    67   34   65 1
    68   34   66 1
@<TRIPOS>MOLECULE
CHEMBL401562
   48    50     0     0     0
SMALL
USER_CHARGES

@<TRIPOS>ATOM
      1 C1         -0.0173    1.4248    0.0099 C.3       1 <0>         0.0325
      2 O1          0.0021   -0.0041    0.0020 O.3       1 <0>        -0.3814
      3 C2          0.6734   -0.5824    1.1231 C.3       1 <0>         0.1479
      4 C3          0.6333   -2.0848    1.0124 C.2       1 <0>         0.2945
      5 N1          1.5258   -2.8287    0.4239 N.2       1 <0>        -0.5148
      6 C4          1.1768   -4.1246    0.5132 C.2       1 <0>         0.2970
      7 N2          0.0453   -4.2092    1.1681 N.2       1 <0>        -0.3220
      8 O2         -0.3232   -2.8808    1.5076 O.3       1 <0>        -0.0930
      9 C5          1.9452   -5.2681   -0.0386 C.ar      1 <0>        -0.0228
     10 C6          3.1438   -5.0409   -0.7139 C.ar      1 <0>        -0.0720
     11 C7          3.8577   -6.1014   -1.2265 C.ar      1 <0>        -0.0673
     12 C8          3.3810   -7.4045   -1.0692 C.ar      1 <0>        -0.1005
     13 C9          2.1807   -7.6309   -0.3923 C.ar      1 <0>        -0.0893
     14 C10         1.4709   -6.5692    0.1237 C.ar      1 <0>        -0.0805
     15 C11         4.1461   -8.5434   -1.6192 C.2       1 <0>         0.5500
     16 O3          5.1907   -8.3458   -2.2087 O.2       1 <0>        -0.5392
     17 N3          3.6856   -9.8009   -1.4672 N.am      1 <0>        -0.7127
     18 C12         4.4439  -10.9296   -2.0123 C.3       1 <0>         0.1795
     19 C13         3.7187  -12.2153   -1.7089 C.ar      1 <0>        -0.2199
     20 C14         3.9834  -12.8961   -0.5346 C.ar      1 <0>        -0.0566
     21 C15         3.3206  -14.0746   -0.2535 C.ar      1 <0>        -0.1747
     22 C16         2.3872  -14.5760   -1.1517 C.ar      1 <0>         0.2863
     23 C17         2.1237  -13.8897   -2.3303 C.ar      1 <0>        -0.2596
     24 C18         2.7859  -12.7088   -2.6026 C.ar      1 <0>        -0.0428
     25 N4          1.7154  -15.7679   -0.8707 N.2       1 <0>        -1.0567
     26 S1          0.6029  -16.3640   -1.9428 S.o2      1 <0>         2.5061
     27 O4         -0.4305  -15.3892   -1.9726 O.2       1 <0>        -0.9573
     28 O5          1.3512  -16.6624   -3.1134 O.2       1 <0>        -0.9566
     29 C19        -0.0039  -17.8949   -1.1821 C.3       1 <0>        -0.0070
     30 F1         -0.5844  -17.6018    0.0566 F         1 <0>        -0.1647
     31 F2         -0.9594  -18.4837   -2.0172 F         1 <0>        -0.1838
     32 F3          1.0640  -18.7798   -0.9989 F         1 <0>        -0.1645
     33 H1          1.0053    1.8021    0.0021 H         1 <0>         0.0512
     34 H2         -0.5445    1.7859   -0.8732 H         1 <0>         0.0961
     35 H3         -0.5275    1.7763    0.9067 H         1 <0>         0.0502
     36 H4          1.7103   -0.2468    1.1385 H         1 <0>         0.1046
     37 H5          0.1775   -0.2725    2.0430 H         1 <0>         0.0941
     38 H6          3.5122   -4.0330   -0.8354 H         1 <0>         0.1449
     39 H7          4.7857   -5.9251   -1.7501 H         1 <0>         0.1471
     40 H8          1.8109   -8.6382   -0.2704 H         1 <0>         0.1406
     41 H9          0.5445   -6.7443    0.6505 H         1 <0>         0.1393
     42 H10         2.8521   -9.9585   -0.9968 H         1 <0>         0.4022
     43 H11         4.5421  -10.8139   -3.0917 H         1 <0>         0.0686
     44 H12         5.4344  -10.9552   -1.5580 H         1 <0>         0.0699
     45 H13         4.7095  -12.5059    0.1631 H         1 <0>         0.1102
     46 H14         3.5281  -14.6060    0.6636 H         1 <0>         0.1183
     47 H15         1.3988  -14.2770   -3.0310 H         1 <0>         0.1017
     48 H16         2.5784  -12.1723   -3.5167 H         1 <0>         0.1067
@<TRIPOS>BOND
     1    1    2 1
     2    1   33 1
     3    1   34 1
     4    1   35 1
     5    2    3 1
     6    3    4 1
     7    3   36 1
     8    3   37 1
     9    4    8 1
    10    4    5 2
    11    5    6 1
    12    6    7 2
    13    6    9 1
    14    7    8 1
    15    9   14 ar
    16    9   10 ar
    17   10   11 ar
    18   10   38 1
    19   11   12 ar
    20   11   39 1
    21   12   13 ar
    22   12   15 1
    23   13   14 ar
    24   13   40 1
    25   14   41 1
    26   15   16 2
    27   15   17 am
    28   17   18 1
    29   17   42 1
    30   18   19 1
    31   18   43 1
    32   18   44 1
    33   19   24 ar
    34   19   20 ar
    35   20   21 ar
    36   20   45 1
    37   21   22 ar
    38   21   46 1
    39   22   23 ar
    40   22   25 1
    41   23   24 ar
    42   23   47 1
    43   24   48 1
    44   25   26 1
    45   26   27 2
    46   26   28 2
    47   26   29 1
    48   29   30 1
    49   29   31 1
    50   29   32 1
@<TRIPOS>MOLECULE
CHEMBL401562__1
   49    51     0     0     0
SMALL
USER_CHARGES

@<TRIPOS>ATOM
      1 C1         -0.3440    1.4351    0.2397 C.3       1 <0>         0.0320
      2 O1         -0.3052    0.0069    0.2125 O.3       1 <0>        -0.3818
      3 C2         -1.5919   -0.6110    0.2822 C.3       1 <0>         0.1459
      4 C3         -1.4323   -2.1091    0.2462 C.2       1 <0>         0.3006
      5 N1         -1.2911   -2.8845    1.2831 N.2       1 <0>        -0.5161
      6 C4         -1.1758   -4.1652    0.8882 C.2       1 <0>         0.2922
      7 N2         -1.2444   -4.2078   -0.4194 N.2       1 <0>        -0.3225
      8 O2         -1.4177   -2.8683   -0.8569 O.3       1 <0>        -0.0897
      9 C5         -0.9996   -5.3349    1.7844 C.ar      1 <0>        -0.0124
     10 C6         -0.9473   -5.1524    3.1658 C.ar      1 <0>        -0.0698
     11 C7         -0.7839   -6.2372    3.9986 C.ar      1 <0>        -0.0625
     12 C8         -0.6711   -7.5203    3.4589 C.ar      1 <0>        -0.1094
     13 C9         -0.7241   -7.7019    2.0753 C.ar      1 <0>        -0.0898
     14 C10        -0.8924   -6.6161    1.2447 C.ar      1 <0>        -0.0823
     15 C11        -0.4952   -8.6853    4.3516 C.2       1 <0>         0.5591
     16 O3         -0.4487   -8.5267    5.5558 O.2       1 <0>        -0.5260
     17 N3         -0.3863   -9.9234    3.8302 N.am      1 <0>        -0.7229
     18 C12        -0.2120  -11.0780    4.7149 C.3       1 <0>         0.1596
     19 C13        -0.1173  -12.3345    3.8882 C.ar      1 <0>        -0.1066
     20 C14        -1.2642  -13.0378    3.5682 C.ar      1 <0>        -0.0820
     21 C15        -1.1810  -14.1896    2.8109 C.ar      1 <0>        -0.1149
     22 C16         0.0565  -14.6415    2.3704 C.ar      1 <0>         0.1214
     23 C17         1.2066  -13.9326    2.6937 C.ar      1 <0>        -0.1392
     24 C18         1.1156  -12.7785    3.4466 C.ar      1 <0>        -0.0751
     25 N4          0.1443  -15.8063    1.6046 N.pl3     1 <0>        -1.0224
     26 S1          1.0786  -15.8300    0.2376 S.o2      1 <0>         2.6038
     27 O4          2.3637  -15.4040    0.6693 O.2       1 <0>        -0.8656
     28 O5          0.8912  -17.1290   -0.3072 O.2       1 <0>        -0.8751
     29 C19         0.3407  -14.5825   -0.8532 C.3       1 <0>        -0.0371
     30 F1          0.4817  -13.3161   -0.2757 F         1 <0>        -0.1559
     31 F2          0.9890  -14.6047   -2.0927 F         1 <0>        -0.1577
     32 F3         -1.0178  -14.8647   -1.0324 F         1 <0>        -0.1579
     33 H1          0.6714    1.8273    0.1831 H         1 <0>         0.0974
     34 H2         -0.9220    1.7991   -0.6097 H         1 <0>         0.0514
     35 H3         -0.8111    1.7683    1.1665 H         1 <0>         0.0521
     36 H4         -2.0848   -0.3202    1.2098 H         1 <0>         0.1058
     37 H5         -2.1957   -0.2894   -0.5664 H         1 <0>         0.0955
     38 H6         -1.0346   -4.1601    3.5829 H         1 <0>         0.1485
     39 H7         -0.7427   -6.0956    5.0684 H         1 <0>         0.1490
     40 H8         -0.6365   -8.6937    1.6568 H         1 <0>         0.1357
     41 H9         -0.9372   -6.7566    0.1749 H         1 <0>         0.1401
     42 H10        -0.4234  -10.0500    2.8692 H         1 <0>         0.4028
     43 H11         0.7020  -10.9557    5.2960 H         1 <0>         0.0845
     44 H12        -1.0647  -11.1506    5.3899 H         1 <0>         0.0839
     45 H13        -2.2259  -12.6861    3.9113 H         1 <0>         0.1361
     46 H14        -2.0770  -14.7386    2.5616 H         1 <0>         0.1375
     47 H15         2.1703  -14.2814    2.3531 H         1 <0>         0.1597
     48 H16         2.0089  -12.2244    3.6946 H         1 <0>         0.1387
     49 H17        -0.3421  -16.6013    1.8735 H         1 <0>         0.4413
@<TRIPOS>BOND
     1    1    2 1
     2    1   33 1
     3    1   34 1
     4    1   35 1
     5    2    3 1
     6    3    4 1
     7    3   36 1
     8    3   37 1
     9    4    8 1
    10    4    5 2
    11    5    6 1
    12    6    7 2
    13    6    9 1
    14    7    8 1
    15    9   14 ar
    16    9   10 ar
    17   10   11 ar
    18   10   38 1
    19   11   12 ar
    20   11   39 1
    21   12   13 ar
    22   12   15 1
    23   13   14 ar
    24   13   40 1
    25   14   41 1
    26   15   16 2
    27   15   17 am
    28   17   18 1
    29   17   42 1
    30   18   19 1
    31   18   43 1
    32   18   44 1
    33   19   24 ar
    34   19   20 ar
    35   20   21 ar
    36   20   45 1
    37   21   22 ar
    38   21   46 1
    39   22   23 ar
    40   22   25 1
    41   23   24 ar
    42   23   47 1
    43   24   48 1
    44   25   26 1
    45   25   49 1
    46   26   27 2
    47   26   28 2
    48   26   29 1
    49   29   30 1
    50   29   31 1
    51   29   32 1
@<TRIPOS>MOLECULE
CHEMBL221529
   55    57     0     0     0
SMALL
USER_CHARGES

@<TRIPOS>ATOM
      1 C1         -0.0187    1.5258    0.0104 C.3       1 <0>        -0.1402
      2 C2          0.0021   -0.0041    0.0020 C.3       1 <0>         0.0699
      3 O1         -1.3386   -0.4987    0.0122 O.3       1 <0>        -0.3465
      4 C3         -1.4321   -1.9246    0.0054 C.3       1 <0>         0.0372
      5 C4         -2.7188   -2.3480   -0.7059 C.3       1 <0>        -0.0509
      6 C5         -2.6464   -1.9463   -2.1566 C.ar      1 <0>         0.1104
      7 C6         -2.8384   -2.9002   -3.1387 C.ar      1 <0>        -0.1336
      8 C7         -2.7703   -2.5233   -4.4701 C.ar      1 <0>        -0.1098
      9 C8         -2.5093   -1.1893   -4.7671 C.ar      1 <0>         0.0586
     10 C9         -2.3278   -0.2905   -3.7264 C.ar      1 <0>         0.0199
     11 N1         -2.4060   -0.6889   -2.4720 N.ar      1 <0>        -0.4153
     12 O2         -2.4328   -0.7729   -6.0587 O.3       1 <0>        -0.3136
     13 C10        -2.1613    0.6127   -6.2786 C.3       1 <0>         0.0583
     14 C11        -2.1129    0.8905   -7.7824 C.3       1 <0>        -0.1107
     15 C12        -1.8222    2.3740   -8.0179 C.3       1 <0>        -0.0347
     16 C13        -1.7745    2.6476   -9.4991 C.2       1 <0>        -0.0040
     17 C14        -0.6835    2.5765  -10.2833 C.2       1 <0>        -0.0380
     18 O3         -1.0691    2.8941  -11.5350 O.3       1 <0>        -0.1947
     19 C15        -2.3874    3.1550  -11.5026 C.2       1 <0>         0.2268
     20 N2         -2.8135    2.9998  -10.2713 N.2       1 <0>        -0.4599
     21 C16        -3.2187    3.5458  -12.6609 C.ar      1 <0>        -0.0163
     22 C17        -4.5814    3.7963  -12.4929 C.ar      1 <0>        -0.0711
     23 C18        -5.3515    4.1610  -13.5779 C.ar      1 <0>        -0.1206
     24 C19        -4.7757    4.2786  -14.8305 C.ar      1 <0>        -0.1018
     25 C20        -3.4255    4.0317  -15.0038 C.ar      1 <0>        -0.1211
     26 C21        -2.6431    3.6714  -13.9262 C.ar      1 <0>        -0.0912
     27 C22         0.7106    2.2104   -9.8435 C.3       1 <0>        -0.0708
     28 C23        -1.4514   -2.4335    1.4237 C.2       1 <0>         0.4769
     29 O4         -1.4828   -1.6456    2.3537 O.co2     1 <0>        -0.6784
     30 O5         -1.4356   -3.6330    1.6413 O.co2     1 <0>        -0.7021
     31 H1          1.0039    1.9031    0.0027 H         1 <0>         0.0557
     32 H2         -0.5459    1.8868   -0.8726 H         1 <0>         0.0556
     33 H3         -0.5289    1.8773    0.9072 H         1 <0>         0.0609
     34 H4          0.5123   -0.3556   -0.8948 H         1 <0>         0.0237
     35 H5          0.5293   -0.3651    0.8851 H         1 <0>         0.0401
     36 H6         -0.5727   -2.3426   -0.5189 H         1 <0>         0.0436
     37 H7         -2.8350   -3.4293   -0.6337 H         1 <0>         0.0941
     38 H8         -3.5718   -1.8587   -0.2356 H         1 <0>         0.0846
     39 H9         -3.0388   -3.9272   -2.8712 H         1 <0>         0.1415
     40 H10        -2.9159   -3.2473   -5.2581 H         1 <0>         0.1371
     41 H11        -2.1247    0.7473   -3.9458 H         1 <0>         0.1513
     42 H12        -2.9482    1.2139   -5.8232 H         1 <0>         0.0656
     43 H13        -1.2017    0.8705   -5.8304 H         1 <0>         0.0649
     44 H14        -1.3259    0.2893   -8.2378 H         1 <0>         0.0742
     45 H15        -3.0725    0.6326   -8.2306 H         1 <0>         0.0778
     46 H16        -2.6091    2.9752   -7.5625 H         1 <0>         0.0880
     47 H17        -0.8626    2.6318   -7.5697 H         1 <0>         0.0860
     48 H18        -5.0321    3.7045  -11.5157 H         1 <0>         0.1388
     49 H19        -6.4062    4.3548  -13.4493 H         1 <0>         0.1326
     50 H20        -5.3831    4.5641  -15.6767 H         1 <0>         0.1283
     51 H21        -2.9822    4.1249  -15.9843 H         1 <0>         0.1305
     52 H22        -1.5883    3.4832  -14.0620 H         1 <0>         0.1299
     53 H23         0.8463    1.1320   -9.9266 H         1 <0>         0.0876
     54 H24         1.4369    2.7179  -10.4784 H         1 <0>         0.0796
     55 H25         0.8570    2.5163   -8.8077 H         1 <0>         0.0955
@<TRIPOS>BOND
     1    1    2 1
     2    1   31 1
     3    1   32 1
     4    1   33 1
     5    2    3 1
     6    2   34 1
     7    2   35 1
     8    3    4 1
     9    4    5 1
    10    4   28 1
    11    4   36 1
    12    5    6 1
    13    5   37 1
    14    5   38 1
    15    6   11 ar
    16    6    7 ar
    17    7    8 ar
    18    7   39 1
    19    8    9 ar
    20    8   40 1
    21    9   10 ar
    22    9   12 1
    23   10   11 ar
    24   10   41 1
    25   12   13 1
    26   13   14 1
    27   13   42 1
    28   13   43 1
    29   14   15 1
    30   14   44 1
    31   14   45 1
    32   15   16 1
    33   15   46 1
    34   15   47 1
    35   16   20 1
    36   16   17 2
    37   17   18 1
    38   17   27 1
    39   18   19 1
    40   19   20 2
    41   19   21 1
    42   21   26 ar
    43   21   22 ar
    44   22   23 ar
    45   22   48 1
    46   23   24 ar
    47   23   49 1
    48   24   25 ar
    49   24   50 1
    50   25   26 ar
    51   25   51 1
    52   26   52 1
    53   27   53 1
    54   27   54 1
    55   27   55 1
    56   28   29 2
    57   28   30 1
@<TRIPOS>MOLECULE
CHEMBL221529__1
   55    57     0     0     0
SMALL
USER_CHARGES

@<TRIPOS>ATOM
      1 C1         -0.0187    1.5258    0.0104 C.3       1 <0>        -0.1431
      2 C2          0.0021   -0.0041    0.0020 C.3       1 <0>         0.0670
      3 O1         -1.3386   -0.4987    0.0122 O.3       1 <0>        -0.3711
      4 C3         -1.4321   -1.9246    0.0054 C.3       1 <0>         0.0349
      5 C4         -2.7050   -2.3557    0.7365 C.3       1 <0>        -0.0499
      6 C5         -2.6049   -1.9696    2.1898 C.ar      1 <0>         0.1238
      7 C6         -3.5992   -1.1967    2.7602 C.ar      1 <0>        -0.1265
      8 C7         -3.5001   -0.8458    4.0967 C.ar      1 <0>        -0.1056
      9 C8         -2.3950   -1.2891    4.8165 C.ar      1 <0>         0.0583
     10 C9         -1.4384   -2.0614    4.1744 C.ar      1 <0>         0.0231
     11 N1         -1.5729   -2.3780    2.9016 N.ar      1 <0>        -0.4459
     12 O2         -2.2546   -0.9696    6.1301 O.3       1 <0>        -0.3128
     13 C10        -1.0916   -1.4639    6.7973 C.3       1 <0>         0.0580
     14 C11        -1.1075   -1.0055    8.2569 C.3       1 <0>        -0.1108
     15 C12         0.1376   -1.5347    8.9713 C.3       1 <0>        -0.0346
     16 C13         0.1220   -1.0832   10.4090 C.2       1 <0>        -0.0041
     17 C14         0.6511    0.0578   10.8869 C.2       1 <0>        -0.0379
     18 O3          0.4231    0.0791   12.2151 O.3       1 <0>        -0.1947
     19 C15        -0.2407   -1.0456   12.5337 C.2       1 <0>         0.2268
     20 N2         -0.4270   -1.7447   11.4389 N.2       1 <0>        -0.4600
     21 C16        -0.6903   -1.4280   13.8890 C.ar      1 <0>        -0.0163
     22 C17        -1.3680   -2.6316   14.0891 C.ar      1 <0>        -0.0711
     23 C18        -1.7845   -2.9827   15.3566 C.ar      1 <0>        -0.1207
     24 C19        -1.5316   -2.1448   16.4281 C.ar      1 <0>        -0.1017
     25 C20        -0.8602   -0.9503   16.2366 C.ar      1 <0>        -0.1211
     26 C21        -0.4337   -0.5898   14.9751 C.ar      1 <0>        -0.0912
     27 C22         1.3661    1.1154   10.0860 C.3       1 <0>        -0.0708
     28 C23        -1.4785   -2.4182   -1.4177 C.2       1 <0>         0.4773
     29 O4         -1.4670   -3.6154   -1.6484 O.co2     1 <0>        -0.6989
     30 O5         -1.5276   -1.6204   -2.3384 O.co2     1 <0>        -0.6811
     31 H1          1.0039    1.9031    0.0027 H         1 <0>         0.0598
     32 H2         -0.5459    1.8868   -0.8726 H         1 <0>         0.0628
     33 H3         -0.5289    1.8773    0.9072 H         1 <0>         0.0520
     34 H4          0.5123   -0.3556   -0.8948 H         1 <0>         0.0462
     35 H5          0.5293   -0.3651    0.8851 H         1 <0>         0.0295
     36 H6         -0.5629   -2.3481    0.5087 H         1 <0>         0.0609
     37 H7         -3.5668   -1.8615    0.2879 H         1 <0>         0.0809
     38 H8         -2.8227   -3.4363    0.6549 H         1 <0>         0.0981
     39 H9         -4.4431   -0.8699    2.1707 H         1 <0>         0.1414
     40 H10        -4.2618   -0.2426    4.5682 H         1 <0>         0.1378
     41 H11        -0.5767   -2.4108    4.7238 H         1 <0>         0.1521
     42 H12        -1.0860   -2.5532    6.7587 H         1 <0>         0.0654
     43 H13        -0.1989   -1.0783    6.3050 H         1 <0>         0.0648
     44 H14        -1.1131    0.0838    8.2956 H         1 <0>         0.0745
     45 H15        -2.0003   -1.3911    8.7492 H         1 <0>         0.0779
     46 H16         0.1433   -2.6240    8.9326 H         1 <0>         0.0878
     47 H17         1.0304   -1.1491    8.4790 H         1 <0>         0.0859
     48 H18        -1.5663   -3.2864   13.2534 H         1 <0>         0.1388
     49 H19        -2.3094   -3.9136   15.5127 H         1 <0>         0.1326
     50 H20        -1.8601   -2.4242   17.4183 H         1 <0>         0.1283
     51 H21        -0.6663   -0.3005   17.0772 H         1 <0>         0.1305
     52 H22         0.0942    0.3408   14.8276 H         1 <0>         0.1299
     53 H23         0.6452    1.8521    9.7316 H         1 <0>         0.0878
     54 H24         2.1088    1.6069   10.7145 H         1 <0>         0.0796
     55 H25         1.8615    0.6520    9.2328 H         1 <0>         0.0954
@<TRIPOS>BOND
     1    1    2 1
     2    1   31 1
     3    1   32 1
     4    1   33 1
     5    2    3 1
     6    2   34 1
     7    2   35 1
     8    3    4 1
     9    4    5 1
    10    4   28 1
    11    4   36 1
    12    5    6 1
    13    5   37 1
    14    5   38 1
    15    6   11 ar
    16    6    7 ar
    17    7    8 ar
    18    7   39 1
    19    8    9 ar
    20    8   40 1
    21    9   10 ar
    22    9   12 1
    23   10   11 ar
    24   10   41 1
    25   12   13 1
    26   13   14 1
    27   13   42 1
    28   13   43 1
    29   14   15 1
    30   14   44 1
    31   14   45 1
    32   15   16 1
    33   15   46 1
    34   15   47 1
    35   16   20 1
    36   16   17 2
    37   17   18 1
    38   17   27 1
    39   18   19 1
    40   19   20 2
    41   19   21 1
    42   21   26 ar
    43   21   22 ar
    44   22   23 ar
    45   22   48 1
    46   23   24 ar
    47   23   49 1
    48   24   25 ar
    49   24   50 1
    50   25   26 ar
    51   25   51 1
    52   26   52 1
    53   27   53 1
    54   27   54 1
    55   27   55 1
    56   28   29 2
    57   28   30 1
@<TRIPOS>MOLECULE
CHEMBL514328
   61    65     0     0     0
SMALL
USER_CHARGES

@<TRIPOS>ATOM
      1 C1         -0.0184    1.5028    0.0103 C.3       1 <0>        -0.0713
      2 C2          0.0021   -0.0041    0.0020 C.2       1 <0>        -0.0334
      3 C3         -1.0705   -0.8164    0.0025 C.2       1 <0>        -0.0045
      4 N1         -0.6270   -2.0826   -0.0064 N.2       1 <0>        -0.4579
      5 C4          0.6851   -2.0676   -0.0123 C.2       1 <0>         0.2272
      6 O1          1.0981   -0.7883   -0.0131 O.3       1 <0>        -0.1939
      7 C5          1.5619   -3.2577   -0.0227 C.ar      1 <0>        -0.0161
      8 C6          1.0059   -4.5378   -0.0330 C.ar      1 <0>        -0.0707
      9 C7          1.8298   -5.6443   -0.0432 C.ar      1 <0>        -0.1203
     10 C8          3.2044   -5.4871   -0.0433 C.ar      1 <0>        -0.1017
     11 C9          3.7620   -4.2209   -0.0327 C.ar      1 <0>        -0.1215
     12 C10         2.9493   -3.1060   -0.0282 C.ar      1 <0>        -0.0911
     13 C11        -2.5133   -0.3814    0.0119 C.3       1 <0>        -0.0353
     14 C12        -3.0085   -0.2260   -1.4274 C.3       1 <0>         0.0700
     15 O2         -4.3766    0.1865   -1.4185 O.3       1 <0>        -0.3175
     16 C13        -4.9731    0.3716   -2.6255 C.ar      1 <0>         0.1130
     17 C14        -4.2580    0.1549   -3.7944 C.ar      1 <0>        -0.2184
     18 C15        -4.8667    0.3432   -5.0201 C.ar      1 <0>        -0.0853
     19 C16        -6.1874    0.7477   -5.0825 C.ar      1 <0>        -0.0937
     20 C17        -6.9021    0.9648   -3.9190 C.ar      1 <0>        -0.0588
     21 C18        -6.2998    0.7719   -2.6908 C.ar      1 <0>        -0.1543
     22 C19        -6.8489    0.9529   -6.4210 C.3       1 <0>        -0.0005
     23 C20        -7.4853   -0.3373   -6.8698 C.2       1 <0>        -0.1059
     24 C21        -6.9420   -1.2650   -7.6758 C.2       1 <0>        -0.0446
     25 N2         -7.8325   -2.2882   -7.8445 N.pl3     1 <0>        -0.4012
     26 C22        -8.9634   -2.0436   -7.1544 C.2       1 <0>         0.0073
     27 C23        -8.8196   -0.8325   -6.5076 C.2       1 <0>        -0.1875
     28 C24        -9.8012   -0.1729   -5.6379 C.2       1 <0>         0.5498
     29 O3        -10.8821   -0.7048   -5.4215 O.co2     1 <0>        -0.6980
     30 O4         -9.5387    0.9088   -5.1291 O.co2     1 <0>        -0.6839
     31 C25        -7.6021   -3.4294   -8.6251 C.ar      1 <0>         0.1609
     32 C26        -6.3946   -3.5832   -9.2928 C.ar      1 <0>        -0.1520
     33 C27        -6.1703   -4.7090  -10.0609 C.ar      1 <0>        -0.0913
     34 C28        -7.1471   -5.6821  -10.1656 C.ar      1 <0>        -0.1502
     35 C29        -8.3510   -5.5315   -9.5022 C.ar      1 <0>        -0.0884
     36 C30        -8.5788   -4.4108   -8.7276 C.ar      1 <0>        -0.1500
     37 H1          1.0042    1.8801    0.0026 H         1 <0>         0.0799
     38 H2         -0.5455    1.8639   -0.8728 H         1 <0>         0.0925
     39 H3         -0.5286    1.8543    0.9071 H         1 <0>         0.0932
     40 H4         -0.0670   -4.6619   -0.0326 H         1 <0>         0.1393
     41 H5          1.4008   -6.6354   -0.0508 H         1 <0>         0.1327
     42 H6          3.8450   -6.3565   -0.0513 H         1 <0>         0.1282
     43 H7          4.8357   -4.1050   -0.0321 H         1 <0>         0.1303
     44 H8          3.3858   -2.1181   -0.0249 H         1 <0>         0.1299
     45 H9         -3.1156   -1.1316    0.5243 H         1 <0>         0.0944
     46 H10        -2.6018    0.5726    0.5316 H         1 <0>         0.0927
     47 H11        -2.4061    0.5242   -1.9398 H         1 <0>         0.0581
     48 H12        -2.9200   -1.1800   -1.9471 H         1 <0>         0.0623
     49 H13        -3.2262   -0.1604   -3.7462 H         1 <0>         0.1155
     50 H14        -4.3105    0.1747   -5.9304 H         1 <0>         0.1144
     51 H15        -7.9335    1.2810   -3.9704 H         1 <0>         0.1702
     52 H16        -6.8598    0.9373   -1.7823 H         1 <0>         0.1248
     53 H17        -7.6139    1.7243   -6.3338 H         1 <0>         0.0973
     54 H18        -6.1019    1.2629   -7.1517 H         1 <0>         0.0602
     55 H19        -5.9590   -1.2107   -8.1198 H         1 <0>         0.1542
     56 H20        -9.8308   -2.6856   -7.1117 H         1 <0>         0.1661
     57 H21        -5.6316   -2.8231   -9.2120 H         1 <0>         0.1273
     58 H22        -5.2312   -4.8292  -10.5805 H         1 <0>         0.1257
     59 H23        -6.9696   -6.5614  -10.7671 H         1 <0>         0.1224
     60 H24        -9.1123   -6.2929   -9.5864 H         1 <0>         0.1274
     61 H25        -9.5174   -4.2958   -8.2060 H         1 <0>         0.1318
@<TRIPOS>BOND
     1    1    2 1
     2    1   37 1
     3    1   38 1
     4    1   39 1
     5    2    6 1
     6    2    3 2
     7    3    4 1
     8    3   13 1
     9    4    5 2
    10    5    6 1
    11    5    7 1
    12    7   12 ar
    13    7    8 ar
    14    8    9 ar
    15    8   40 1
    16    9   10 ar
    17    9   41 1
    18   10   11 ar
    19   10   42 1
    20   11   12 ar
    21   11   43 1
    22   12   44 1
    23   13   14 1
    24   13   45 1
    25   13   46 1
    26   14   15 1
    27   14   47 1
    28   14   48 1
    29   15   16 1
    30   16   21 ar
    31   16   17 ar
    32   17   18 ar
    33   17   49 1
    34   18   19 ar
    35   18   50 1
    36   19   20 ar
    37   19   22 1
    38   20   21 ar
    39   20   51 1
    40   21   52 1
    41   22   23 1
    42   22   53 1
    43   22   54 1
    44   23   27 1
    45   23   24 2
    46   24   25 1
    47   24   55 1
    48   25   26 1
    49   25   31 1
    50   26   27 2
    51   26   56 1
    52   27   28 1
    53   28   29 2
    54   28   30 1
    55   31   36 ar
    56   31   32 ar
    57   32   33 ar
    58   32   57 1
    59   33   34 ar
    60   33   58 1
    61   34   35 ar
    62   34   59 1
    63   35   36 ar
    64   35   60 1
    65   36   61 1
@<TRIPOS>MOLECULE
CHEMBL474157
   61    65     0     0     0
SMALL
USER_CHARGES

@<TRIPOS>ATOM
      1 C1         -0.0184    1.5028    0.0103 C.3       1 <0>        -0.0707
      2 C2          0.0021   -0.0041    0.0020 C.2       1 <0>        -0.0346
      3 C3         -1.0705   -0.8164    0.0025 C.2       1 <0>        -0.0014
      4 N1         -0.6270   -2.0826   -0.0064 N.2       1 <0>        -0.4564
      5 C4          0.6851   -2.0676   -0.0123 C.2       1 <0>         0.2244
      6 O1          1.0981   -0.7883   -0.0131 O.3       1 <0>        -0.1946
      7 C5          1.5619   -3.2577   -0.0227 C.ar      1 <0>        -0.0143
      8 C6          1.0059   -4.5378   -0.0330 C.ar      1 <0>        -0.0709
      9 C7          1.8298   -5.6443   -0.0432 C.ar      1 <0>        -0.1202
     10 C8          3.2044   -5.4871   -0.0433 C.ar      1 <0>        -0.1028
     11 C9          3.7620   -4.2209   -0.0327 C.ar      1 <0>        -0.1219
     12 C10         2.9493   -3.1060   -0.0282 C.ar      1 <0>        -0.0917
     13 C11        -2.5133   -0.3814    0.0119 C.3       1 <0>        -0.0381
     14 C12        -3.0085   -0.2260   -1.4274 C.3       1 <0>         0.0701
     15 O2         -4.3766    0.1865   -1.4185 O.3       1 <0>        -0.3078
     16 C13        -4.9731    0.3716   -2.6255 C.ar      1 <0>         0.1210
     17 C14        -4.2579    0.1549   -3.7946 C.ar      1 <0>        -0.2207
     18 C15        -4.8665    0.3431   -5.0201 C.ar      1 <0>        -0.0962
     19 C16        -6.1876    0.7473   -5.0825 C.ar      1 <0>        -0.1577
     20 C17        -6.9022    0.9643   -3.9192 C.ar      1 <0>        -0.0241
     21 C18        -6.2996    0.7718   -2.6908 C.ar      1 <0>        -0.1263
     22 C19        -8.3415    1.4051   -3.9909 C.3       1 <0>        -0.0045
     23 C20        -9.2372    0.1935   -4.0169 C.2       1 <0>        -0.1076
     24 C21        -9.7370   -0.4147   -5.1059 C.2       1 <0>        -0.0422
     25 N2        -10.5022   -1.4772   -4.7135 N.pl3     1 <0>        -0.4011
     26 C22       -10.5123   -1.5765   -3.3701 C.2       1 <0>         0.0064
     27 C23        -9.7316   -0.5599   -2.8573 C.2       1 <0>        -0.1855
     28 C24        -9.4546   -0.2863   -1.4419 C.2       1 <0>         0.5489
     29 O3         -9.9368   -1.0023   -0.5744 O.co2     1 <0>        -0.6982
     30 O4         -8.7413    0.6580   -1.1294 O.co2     1 <0>        -0.6812
     31 C25       -11.1805   -2.3402   -5.5851 C.ar      1 <0>         0.1609
     32 C26       -11.0976   -2.1489   -6.9577 C.ar      1 <0>        -0.1518
     33 C27       -11.7668   -3.0012   -7.8141 C.ar      1 <0>        -0.0913
     34 C28       -12.5191   -4.0441   -7.3056 C.ar      1 <0>        -0.1502
     35 C29       -12.6040   -4.2369   -5.9390 C.ar      1 <0>        -0.0885
     36 C30       -11.9320   -3.3916   -5.0778 C.ar      1 <0>        -0.1500
     37 H1          1.0042    1.8801    0.0026 H         1 <0>         0.0791
     38 H2         -0.5455    1.8639   -0.8728 H         1 <0>         0.0921
     39 H3         -0.5286    1.8543    0.9071 H         1 <0>         0.0939
     40 H4         -0.0670   -4.6619   -0.0326 H         1 <0>         0.1398
     41 H5          1.4008   -6.6354   -0.0508 H         1 <0>         0.1325
     42 H6          3.8450   -6.3565   -0.0513 H         1 <0>         0.1277
     43 H7          4.8357   -4.1050   -0.0321 H         1 <0>         0.1298
     44 H8          3.3858   -2.1181   -0.0249 H         1 <0>         0.1297
     45 H9         -3.1156   -1.1316    0.5243 H         1 <0>         0.0971
     46 H10        -2.6018    0.5726    0.5316 H         1 <0>         0.0944
     47 H11        -2.4061    0.5242   -1.9398 H         1 <0>         0.0567
     48 H12        -2.9200   -1.1800   -1.9471 H         1 <0>         0.0612
     49 H13        -3.2261   -0.1604   -3.7464 H         1 <0>         0.1153
     50 H14        -4.3102    0.1749   -5.9304 H         1 <0>         0.1140
     51 H15        -6.6617    0.8940   -6.0418 H         1 <0>         0.1142
     52 H16        -6.8596    0.9372   -1.7823 H         1 <0>         0.1729
     53 H17        -8.5789    2.0139   -3.1184 H         1 <0>         0.0997
     54 H18        -8.4972    1.9916   -4.8964 H         1 <0>         0.0647
     55 H19        -9.5622   -0.1122   -6.1278 H         1 <0>         0.1553
     56 H20       -11.0374   -2.3241   -2.7941 H         1 <0>         0.1662
     57 H21       -10.5107   -1.3341   -7.3554 H         1 <0>         0.1277
     58 H22       -11.7026   -2.8529   -8.8819 H         1 <0>         0.1258
     59 H23       -13.0417   -4.7091   -7.9772 H         1 <0>         0.1224
     60 H24       -13.1929   -5.0519   -5.5447 H         1 <0>         0.1273
     61 H25       -11.9950   -3.5454   -4.0106 H         1 <0>         0.1318
@<TRIPOS>BOND
     1    1    2 1
     2    1   37 1
     3    1   38 1
     4    1   39 1
     5    2    6 1
     6    2    3 2
     7    3    4 1
     8    3   13 1
     9    4    5 2
    10    5    6 1
    11    5    7 1
    12    7   12 ar
    13    7    8 ar
    14    8    9 ar
    15    8   40 1
    16    9   10 ar
    17    9   41 1
    18   10   11 ar
    19   10   42 1
    20   11   12 ar
    21   11   43 1
    22   12   44 1
    23   13   14 1
    24   13   45 1
    25   13   46 1
    26   14   15 1
    27   14   47 1
    28   14   48 1
    29   15   16 1
    30   16   21 ar
    31   16   17 ar
    32   17   18 ar
    33   17   49 1
    34   18   19 ar
    35   18   50 1
    36   19   20 ar
    37   19   51 1
    38   20   21 ar
    39   20   22 1
    40   21   52 1
    41   22   23 1
    42   22   53 1
    43   22   54 1
    44   23   27 1
    45   23   24 2
    46   24   25 1
    47   24   55 1
    48   25   26 1
    49   25   31 1
    50   26   27 2
    51   26   56 1
    52   27   28 1
    53   28   29 2
    54   28   30 1
    55   31   36 ar
    56   31   32 ar
    57   32   33 ar
    58   32   57 1
    59   33   34 ar
    60   33   58 1
    61   34   35 ar
    62   34   59 1
    63   35   36 ar
    64   35   60 1
    65   36   61 1
@<TRIPOS>MOLECULE
CHEMBL396694
   66    70     0     0     0
SMALL
USER_CHARGES

@<TRIPOS>ATOM
      1 C1          0.1564    2.5126   -1.2426 C.3       1 <0>        -0.0728
      2 C2          0.3684    1.0254   -1.3620 C.2       1 <0>        -0.0307
      3 C3         -0.5814    0.0755   -1.2846 C.2       1 <0>        -0.0109
      4 N1          0.0153   -1.1159   -1.4407 N.2       1 <0>        -0.4614
      5 C4          1.3018   -0.9218   -1.6112 C.2       1 <0>         0.2350
      6 O1          1.5436    0.4000   -1.5720 O.3       1 <0>        -0.1918
      7 C5          2.3143   -1.9788   -1.8181 C.ar      1 <0>        -0.0217
      8 C6          1.9306   -3.3203   -1.8503 C.ar      1 <0>        -0.0704
      9 C7          2.8805   -4.3018   -2.0442 C.ar      1 <0>        -0.1206
     10 C8          4.2109   -3.9587   -2.2066 C.ar      1 <0>        -0.0984
     11 C9          4.5981   -2.6308   -2.1753 C.ar      1 <0>        -0.1203
     12 C10         3.6574   -1.6392   -1.9879 C.ar      1 <0>        -0.0895
     13 C11        -2.0535    0.3084   -1.0617 C.3       1 <0>        -0.0350
     14 C12        -2.7539    0.4733   -2.4119 C.3       1 <0>         0.0663
     15 O2         -4.1499    0.6942   -2.2005 O.3       1 <0>        -0.3053
     16 C13        -4.9223    0.8618   -3.3060 C.ar      1 <0>         0.1387
     17 C14        -4.3495    0.8089   -4.5686 C.ar      1 <0>        -0.1881
     18 C15        -5.1368    0.9790   -5.6906 C.ar      1 <0>        -0.0779
     19 C16        -6.4950    1.2020   -5.5563 C.ar      1 <0>        -0.1399
     20 C17        -7.0681    1.2556   -4.2994 C.ar      1 <0>        -0.1012
     21 C18        -6.2858    1.0803   -3.1741 C.ar      1 <0>        -0.1227
     22 C19        -8.5484    1.4992   -4.1567 C.3       1 <0>         0.0215
     23 N2         -9.2585    0.2132   -4.1566 N.4       1 <0>        -0.3522
     24 C20       -10.7076    0.4541   -4.1670 C.3       1 <0>         0.0406
     25 C21       -11.4339   -0.8583   -4.3130 C.2       1 <0>         0.0258
     26 C22       -11.8462   -1.3856   -5.4766 C.2       1 <0>        -0.1568
     27 C23       -12.4999   -2.6583   -5.1622 C.ar      1 <0>        -0.1186
     28 C24       -13.1184   -3.6472   -5.9298 C.ar      1 <0>        -0.0659
     29 C25       -13.6470   -4.7488   -5.3184 C.ar      1 <0>        -0.1436
     30 C26       -13.5742   -4.8930   -3.9395 C.ar      1 <0>        -0.0863
     31 C27       -12.9685   -3.9297   -3.1633 C.ar      1 <0>        -0.1303
     32 C28       -12.4234   -2.7997   -3.7647 C.ar      1 <0>         0.1121
     33 N3        -11.7656   -1.6917   -3.2797 N.pl3     1 <0>        -0.5830
     34 H1        -11.5682   -1.5258   -2.3446 H         1 <0>         0.4232
     35 C29        -8.8969   -0.5457   -2.9520 C.3       1 <0>        -0.0977
     36 C30        -9.2550    0.2557   -1.7270 C.2       1 <0>         0.4925
     37 O3         -9.8172    1.3311   -1.8450 O.co2     1 <0>        -0.6638
     38 O4         -8.9825   -0.1714   -0.6180 O.co2     1 <0>        -0.6286
     39 H2          1.1118    3.0257   -1.3523 H         1 <0>         0.0823
     40 H3         -0.5269    2.8461   -2.0237 H         1 <0>         0.0902
     41 H4         -0.2690    2.7417   -0.2656 H         1 <0>         0.0944
     42 H5          0.8924   -3.5894   -1.7233 H         1 <0>         0.1382
     43 H6          2.5849   -5.3403   -2.0690 H         1 <0>         0.1334
     44 H7          4.9506   -4.7309   -2.3582 H         1 <0>         0.1299
     45 H8          5.6383   -2.3697   -2.3021 H         1 <0>         0.1320
     46 H9          3.9602   -0.6027   -1.9685 H         1 <0>         0.1304
     47 H10        -2.4802   -0.5438   -0.5327 H         1 <0>         0.0976
     48 H11        -2.1925    1.2116   -0.4675 H         1 <0>         0.0957
     49 H12        -2.3273    1.3255   -2.9409 H         1 <0>         0.0648
     50 H13        -2.6149   -0.4299   -3.0060 H         1 <0>         0.0688
     51 H14        -3.2888    0.6351   -4.6740 H         1 <0>         0.1329
     52 H15        -4.6913    0.9383   -6.6736 H         1 <0>         0.1327
     53 H16        -7.1089    1.3348   -6.4349 H         1 <0>         0.1304
     54 H17        -6.7347    1.1178   -2.1926 H         1 <0>         0.1446
     55 H18        -8.7421    2.0212   -3.2197 H         1 <0>         0.1776
     56 H19        -8.8986    2.1075   -4.9907 H         1 <0>         0.1265
     57 H20       -11.0034    0.9310   -3.2326 H         1 <0>         0.1797
     58 H21       -10.9618    1.1050   -5.0036 H         1 <0>         0.1392
     59 H22       -11.7200   -0.9535   -6.4583 H         1 <0>         0.1540
     60 H23       -13.1790   -3.5415   -7.0029 H         1 <0>         0.1249
     61 H24       -14.1256   -5.5132   -5.9125 H         1 <0>         0.1262
     62 H25       -13.9970   -5.7693   -3.4707 H         1 <0>         0.1296
     63 H26       -12.9172   -4.0510   -2.0914 H         1 <0>         0.1252
     64 H27        -9.4413   -1.4900   -2.9404 H         1 <0>         0.1176
     65 H28        -7.8252   -0.7443   -2.9558 H         1 <0>         0.1275
     66 H29        -8.9994   -0.3142   -4.9769 H         1 <0>         0.4031
@<TRIPOS>BOND
     1    1    2 1
     2    1   39 1
     3    1   40 1
     4    1   41 1
     5    2    6 1
     6    2    3 2
     7    3    4 1
     8    3   13 1
     9    4    5 2
    10    5    6 1
    11    5    7 1
    12    7   12 ar
    13    7    8 ar
    14    8    9 ar
    15    8   42 1
    16    9   10 ar
    17    9   43 1
    18   10   11 ar
    19   10   44 1
    20   11   12 ar
    21   11   45 1
    22   12   46 1
    23   13   14 1
    24   13   47 1
    25   13   48 1
    26   14   15 1
    27   14   49 1
    28   14   50 1
    29   15   16 1
    30   16   21 ar
    31   16   17 ar
    32   17   18 ar
    33   17   51 1
    34   18   19 ar
    35   18   52 1
    36   19   20 ar
    37   19   53 1
    38   20   21 ar
    39   20   22 1
    40   21   54 1
    41   22   23 1
    42   22   55 1
    43   22   56 1
    44   23   24 1
    45   23   35 1
    46   23   66 1
    47   24   25 1
    48   24   57 1
    49   24   58 1
    50   25   33 1
    51   25   26 2
    52   26   27 1
    53   26   59 1
    54   27   32 ar
    55   27   28 ar
    56   28   29 ar
    57   28   60 1
    58   29   30 ar
    59   29   61 1
    60   30   31 ar
    61   30   62 1
    62   31   32 ar
    63   31   63 1
    64   32   33 1
    65   33   34 1
    66   35   36 1
    67   35   64 1
    68   35   65 1
    69   36   37 2
    70   36   38 1
@<TRIPOS>MOLECULE
CHEMBL394967
   68    72     0     0     0
SMALL
USER_CHARGES

@<TRIPOS>ATOM
      1 C1          0.2566   -0.2725   -0.5133 C.3       1 <0>        -0.0721
      2 C2          0.1308   -1.7379   -0.8416 C.2       1 <0>        -0.0322
      3 C3         -1.0127   -2.4425   -0.9202 C.2       1 <0>        -0.0113
      4 N1         -0.6952   -3.7075   -1.2348 N.2       1 <0>        -0.4612
      5 C4          0.6088   -3.7963   -1.3509 C.2       1 <0>         0.2373
      6 O1          1.1424   -2.5848   -1.1170 O.3       1 <0>        -0.1917
      7 C5          1.3639   -5.0215   -1.6885 C.ar      1 <0>        -0.0231
      8 C6          0.6875   -6.2199   -1.9210 C.ar      1 <0>        -0.0697
      9 C7          1.3981   -7.3597   -2.2361 C.ar      1 <0>        -0.1203
     10 C8          2.7783   -7.3164   -2.3218 C.ar      1 <0>        -0.0977
     11 C9          3.4550   -6.1317   -2.0921 C.ar      1 <0>        -0.1206
     12 C10         2.7560   -4.9835   -1.7818 C.ar      1 <0>        -0.0893
     13 C11        -2.4028   -1.9063   -0.6943 C.3       1 <0>        -0.0339
     14 C12        -2.9764   -1.4014   -2.0198 C.3       1 <0>         0.0657
     15 O2         -4.2946   -0.8930   -1.8056 O.3       1 <0>        -0.3074
     16 C13        -4.9502   -0.4020   -2.8900 C.ar      1 <0>         0.1400
     17 C14        -4.3395   -0.4146   -4.1359 C.ar      1 <0>        -0.1846
     18 C15        -5.0082    0.0846   -5.2365 C.ar      1 <0>        -0.0730
     19 C16        -6.2852    0.5967   -5.0976 C.ar      1 <0>        -0.1327
     20 C17        -6.8957    0.6109   -3.8573 C.ar      1 <0>        -0.1041
     21 C18        -6.2332    0.1074   -2.7543 C.ar      1 <0>        -0.1298
     22 C19        -8.2872    1.1701   -3.7094 C.3       1 <0>         0.0354
     23 N2         -9.2701    0.0967   -3.9083 N.4       1 <0>        -0.3555
     24 C20       -10.6254    0.6628   -3.8831 C.3       1 <0>         0.0396
     25 C21       -10.8069    1.5840   -5.0619 C.ar      1 <0>        -0.1407
     26 C22       -10.6057    2.9536   -4.9002 C.ar      1 <0>        -0.1106
     27 C23       -10.7618    3.8128   -5.9440 C.ar      1 <0>        -0.0982
     28 C24       -11.1309    3.3149   -7.2053 C.ar      1 <0>        -0.0393
     29 C25       -11.3010    4.1710   -8.3068 C.ar      1 <0>        -0.1129
     30 C26       -11.6586    3.6530   -9.5134 C.ar      1 <0>        -0.1024
     31 C27       -11.8594    2.2833   -9.6751 C.ar      1 <0>        -0.1138
     32 C28       -11.7038    1.4241   -8.6312 C.ar      1 <0>        -0.0982
     33 C29       -11.3351    1.9222   -7.3698 C.ar      1 <0>        -0.0576
     34 C30       -11.1595    1.0654   -6.2697 C.ar      1 <0>        -0.0602
     35 C31        -9.1343   -0.8966   -2.8345 C.3       1 <0>        -0.0913
     36 C32       -10.0272   -2.0754   -3.1248 C.2       1 <0>         0.4895
     37 O3        -10.6267   -2.1397   -4.1845 O.co2     1 <0>        -0.6745
     38 O4        -10.1501   -2.9648   -2.2999 O.co2     1 <0>        -0.6395
     39 H1          1.3080    0.0145   -0.5295 H         1 <0>         0.0823
     40 H2         -0.2914    0.3135   -1.2510 H         1 <0>         0.0895
     41 H3         -0.1558   -0.0857    0.4783 H         1 <0>         0.0936
     42 H4         -0.3899   -6.2551   -1.8540 H         1 <0>         0.1387
     43 H5          0.8759   -8.2878   -2.4159 H         1 <0>         0.1340
     44 H6          3.3299   -8.2115   -2.5689 H         1 <0>         0.1301
     45 H7          4.5325   -6.1048   -2.1599 H         1 <0>         0.1320
     46 H8          3.2850   -4.0582   -1.6074 H         1 <0>         0.1301
     47 H9         -3.0390   -2.6997   -0.3019 H         1 <0>         0.0980
     48 H10        -2.3636   -1.0848    0.0211 H         1 <0>         0.0945
     49 H11        -2.3402   -0.6080   -2.4122 H         1 <0>         0.0652
     50 H12        -3.0156   -2.2229   -2.7351 H         1 <0>         0.0708
     51 H13        -3.3421   -0.8141   -4.2448 H         1 <0>         0.1345
     52 H14        -4.5332    0.0753   -6.2064 H         1 <0>         0.1348
     53 H15        -6.8064    0.9866   -5.9594 H         1 <0>         0.1312
     54 H16        -6.7123    0.1146   -1.7863 H         1 <0>         0.1407
     55 H17        -8.4055    1.5907   -2.7108 H         1 <0>         0.1299
     56 H18        -8.4461    1.9506   -4.4535 H         1 <0>         0.1327
     57 H19       -11.3570   -0.1435   -3.9360 H         1 <0>         0.1568
     58 H20       -10.7680    1.2229   -2.9590 H         1 <0>         0.1225
     59 H21       -10.3221    3.3389   -3.9319 H         1 <0>         0.1284
     60 H22       -10.6032    4.8719   -5.8036 H         1 <0>         0.1334
     61 H23       -11.1491    5.2346   -8.1962 H         1 <0>         0.1303
     62 H24       -11.7890    4.3131  -10.3581 H         1 <0>         0.1272
     63 H25       -12.1432    1.8980  -10.6433 H         1 <0>         0.1281
     64 H26       -11.8632    0.3652   -8.7713 H         1 <0>         0.1336
     65 H27       -11.3075    0.0014   -6.3813 H         1 <0>         0.1449
     66 H28        -8.0984   -1.2308   -2.7776 H         1 <0>         0.1277
     67 H29        -9.4237   -0.4468   -1.8848 H         1 <0>         0.1231
     68 H30        -9.1075   -0.3473   -4.7997 H         1 <0>         0.4237
@<TRIPOS>BOND
     1    1    2 1
     2    1   39 1
     3    1   40 1
     4    1   41 1
     5    2    6 1
     6    2    3 2
     7    3    4 1
     8    3   13 1
     9    4    5 2
    10    5    6 1
    11    5    7 1
    12    7   12 ar
    13    7    8 ar
    14    8    9 ar
    15    8   42 1
    16    9   10 ar
    17    9   43 1
    18   10   11 ar
    19   10   44 1
    20   11   12 ar
    21   11   45 1
    22   12   46 1
    23   13   14 1
    24   13   47 1
    25   13   48 1
    26   14   15 1
    27   14   49 1
    28   14   50 1
    29   15   16 1
    30   16   21 ar
    31   16   17 ar
    32   17   18 ar
    33   17   51 1
    34   18   19 ar
    35   18   52 1
    36   19   20 ar
    37   19   53 1
    38   20   21 ar
    39   20   22 1
    40   21   54 1
    41   22   23 1
    42   22   55 1
    43   22   56 1
    44   23   24 1
    45   23   35 1
    46   23   68 1
    47   24   25 1
    48   24   57 1
    49   24   58 1
    50   25   34 ar
    51   25   26 ar
    52   26   27 ar
    53   26   59 1
    54   27   28 ar
    55   27   60 1
    56   28   33 ar
    57   28   29 ar
    58   29   30 ar
    59   29   61 1
    60   30   31 ar
    61   30   62 1
    62   31   32 ar
    63   31   63 1
    64   32   33 ar
    65   32   64 1
    66   33   34 ar
    67   34   65 1
    68   35   36 1
    69   35   66 1
    70   35   67 1
    71   36   37 2
    72   36   38 1
@<TRIPOS>MOLECULE
CHEMBL255872
   68    72     0     0     0
SMALL
NO_CHARGES

@<TRIPOS>ATOM
      1 C1         -0.0184    1.5028    0.0103 C.3       1 <0>        -0.0732
      2 C2          0.0021   -0.0041    0.0020 C.2       1 <0>        -0.0299
      3 C3         -1.0705   -0.8164    0.0025 C.2       1 <0>        -0.0121
      4 N1         -0.6270   -2.0826   -0.0064 N.2       1 <0>        -0.4618
      5 C4          0.6851   -2.0676   -0.0123 C.2       1 <0>         0.2354
      6 O1          1.0981   -0.7883   -0.0131 O.3       1 <0>        -0.1914
      7 C5          1.5619   -3.2577   -0.0227 C.ar      1 <0>        -0.0219
      8 C6          1.0059   -4.5378   -0.0330 C.ar      1 <0>        -0.0707
      9 C7          1.8298   -5.6443   -0.0432 C.ar      1 <0>        -0.1209
     10 C8          3.2044   -5.4871   -0.0433 C.ar      1 <0>        -0.0981
     11 C9          3.7620   -4.2209   -0.0327 C.ar      1 <0>        -0.1199
     12 C10         2.9493   -3.1060   -0.0282 C.ar      1 <0>        -0.0891
     13 C11        -2.5133   -0.3814    0.0119 C.3       1 <0>        -0.0315
     14 C12        -3.0085   -0.2260   -1.4274 C.3       1 <0>         0.0672
     15 O2         -4.3766    0.1865   -1.4185 O.3       1 <0>        -0.3097
     16 C13        -4.9731    0.3716   -2.6255 C.ar      1 <0>         0.1378
     17 C14        -4.2579    0.1549   -3.7946 C.ar      1 <0>        -0.2080
     18 C15        -4.8665    0.3431   -5.0201 C.ar      1 <0>        -0.0714
     19 C16        -6.1876    0.7473   -5.0825 C.ar      1 <0>        -0.1371
     20 C17        -6.9022    0.9643   -3.9192 C.ar      1 <0>        -0.0592
     21 C18        -6.2996    0.7718   -2.6908 C.ar      1 <0>        -0.1698
     22 C19        -8.3415    1.4051   -3.9909 C.3       1 <0>        -0.0780
     23 C20        -9.2509    0.1751   -4.0173 C.3       1 <0>        -0.0721
     24 C21        -9.1176   -0.5714   -2.7218 C.2       1 <0>         0.3411
     25 N2        -10.0988   -1.0524   -2.0654 N.pl3     1 <0>        -0.3426
     26 C22       -11.4980   -0.9460   -2.4568 C.3       1 <0>         0.0534
     27 C23       -11.6141   -0.5831   -3.9384 C.3       1 <0>        -0.1225
     28 C24       -10.7026    0.6200   -4.2156 C.3       1 <0>        -0.1735
     29 C25       -10.9006    1.0922   -5.6329 C.2       1 <0>         0.5043
     30 O3        -11.9891    0.9723   -6.1690 O.co2     1 <0>        -0.6707
     31 O4         -9.9724    1.5942   -6.2436 O.co2     1 <0>        -0.6711
     32 C26        -9.8158   -1.7210   -0.9028 C.ar      1 <0>         0.4592
     33 N3        -10.8113   -2.2404   -0.1948 N.ar      1 <0>        -0.4736
     34 C27       -10.5720   -2.8909    0.9305 C.ar      1 <0>         0.2018
     35 C28        -9.2628   -3.0272    1.3684 C.ar      1 <0>        -0.1540
     36 C29        -8.2464   -2.4727    0.6050 C.ar      1 <0>         0.1262
     37 N4         -8.5524   -1.8388   -0.5139 N.ar      1 <0>        -0.4842
     38 C30        -6.8098   -2.5963    1.0429 C.3       1 <0>         0.5238
     39 F1         -6.2565   -3.7626    0.5037 F         1 <0>        -0.1553
     40 F2         -6.0877   -1.4860    0.5922 F         1 <0>        -0.1429
     41 F3         -6.7513   -2.6549    2.4395 F         1 <0>        -0.1565
     42 H1          1.0042    1.8801    0.0026 H         1 <0>         0.0824
     43 H2         -0.5455    1.8639   -0.8728 H         1 <0>         0.0912
     44 H3         -0.5286    1.8543    0.9071 H         1 <0>         0.0933
     45 H4         -0.0670   -4.6619   -0.0326 H         1 <0>         0.1376
     46 H5          1.4008   -6.6354   -0.0508 H         1 <0>         0.1331
     47 H6          3.8450   -6.3565   -0.0513 H         1 <0>         0.1300
     48 H7          4.8357   -4.1050   -0.0321 H         1 <0>         0.1322
     49 H8          3.3858   -2.1181   -0.0249 H         1 <0>         0.1305
     50 H9         -3.1156   -1.1316    0.5243 H         1 <0>         0.0925
     51 H10        -2.6018    0.5726    0.5316 H         1 <0>         0.0929
     52 H11        -2.4061    0.5242   -1.9398 H         1 <0>         0.0638
     53 H12        -2.9200   -1.1800   -1.9471 H         1 <0>         0.0670
     54 H13        -3.2261   -0.1604   -3.7464 H         1 <0>         0.1266
     55 H14        -4.3102    0.1749   -5.9304 H         1 <0>         0.1287
     56 H15        -6.6617    0.8940   -6.0418 H         1 <0>         0.1387
     57 H16        -6.8596    0.9372   -1.7823 H         1 <0>         0.1233
     58 H17        -8.5789    2.0139   -3.1184 H         1 <0>         0.0766
     59 H18        -8.4972    1.9916   -4.8964 H         1 <0>         0.1541
     60 H19        -8.1251   -0.7099   -2.3192 H         1 <0>         0.2060
     61 H20       -11.9944   -1.9001   -2.2802 H         1 <0>         0.1328
     62 H21       -11.9812   -0.1736   -1.8584 H         1 <0>         0.1270
     63 H22       -11.3007   -1.4297   -4.5492 H         1 <0>         0.0838
     64 H23       -12.6463   -0.3230   -4.1727 H         1 <0>         0.1304
     65 H24       -10.9379    1.4273   -3.5220 H         1 <0>         0.0904
     66 H25       -11.3860   -3.3110    1.5025 H         1 <0>         0.2124
     67 H26        -9.0397   -3.5538    2.2846 H         1 <0>         0.1878
     68 H27        -8.9560   -0.4756   -4.8405 H         1 <0>         0.1575
@<TRIPOS>BOND
     1    1    2 1
     2    1   42 1
     3    1   43 1
     4    1   44 1
     5    2    6 1
     6    2    3 2
     7    3    4 1
     8    3   13 1
     9    4    5 2
    10    5    6 1
    11    5    7 1
    12    7   12 ar
    13    7    8 ar
    14    8    9 ar
    15    8   45 1
    16    9   10 ar
    17    9   46 1
    18   10   11 ar
    19   10   47 1
    20   11   12 ar
    21   11   48 1
    22   12   49 1
    23   13   14 1
    24   13   50 1
    25   13   51 1
    26   14   15 1
    27   14   52 1
    28   14   53 1
    29   15   16 1
    30   16   21 ar
    31   16   17 ar
    32   17   18 ar
    33   17   54 1
    34   18   19 ar
    35   18   55 1
    36   19   20 ar
    37   19   56 1
    38   20   21 ar
    39   20   22 1
    40   21   57 1
    41   22   23 1
    42   22   58 1
    43   22   59 1
    44   23   28 1
    45   23   24 1
    46   23   68 1
    47   24   25 2
    48   24   60 1
    49   25   26 1
    50   25   32 1
    51   26   27 1
    52   26   61 1
    53   26   62 1
    54   27   28 1
    55   27   63 1
    56   27   64 1
    57   28   29 1
    58   28   65 1
    59   29   30 2
    60   29   31 1
    61   32   37 ar
    62   32   33 ar
    63   33   34 ar
    64   34   35 ar
    65   34   66 1
    66   35   36 ar
    67   35   67 1
    68   36   37 ar
    69   36   38 1
    70   38   39 1
    71   38   40 1
    72   38   41 1
@<TRIPOS>MOLECULE
CHEMBL255872__1
   68    72     0     0     0
SMALL
NO_CHARGES

@<TRIPOS>ATOM
      1 C1          0.1703    1.5432   -0.4033 C.3       1 <0>        -0.0733
      2 C2          0.2259    0.0407   -0.5046 C.2       1 <0>        -0.0299
      3 C3         -0.8253   -0.7990   -0.4941 C.2       1 <0>        -0.0123
      4 N1         -0.3533   -2.0499   -0.6049 N.2       1 <0>        -0.4616
      5 C4          0.9556   -1.9990   -0.6827 C.2       1 <0>         0.2360
      6 O1          1.3375   -0.7113   -0.6284 O.3       1 <0>        -0.1912
      7 C5          1.8583   -3.1623   -0.8144 C.ar      1 <0>        -0.0223
      8 C6          1.3331   -4.4541   -0.8718 C.ar      1 <0>        -0.0705
      9 C7          2.1811   -5.5353   -0.9953 C.ar      1 <0>        -0.1208
     10 C8          3.5493   -5.3412   -1.0621 C.ar      1 <0>        -0.0979
     11 C9          4.0765   -4.0633   -1.0053 C.ar      1 <0>        -0.1199
     12 C10         3.2392   -2.9730   -0.8877 C.ar      1 <0>        -0.0891
     13 C11        -2.2751   -0.4045   -0.3781 C.3       1 <0>        -0.0317
     14 C12        -2.8552   -0.1771   -1.7755 C.3       1 <0>         0.0673
     15 O2         -4.2300    0.1970   -1.6655 O.3       1 <0>        -0.3133
     16 C13        -4.8986    0.4374   -2.8240 C.ar      1 <0>         0.1389
     17 C14        -4.2463    0.3101   -4.0420 C.ar      1 <0>        -0.2047
     18 C15        -4.9282    0.5546   -5.2181 C.ar      1 <0>        -0.0689
     19 C16        -6.2598    0.9258   -5.1823 C.ar      1 <0>        -0.1372
     20 C17        -6.9118    1.0537   -3.9700 C.ar      1 <0>        -0.0627
     21 C18        -6.2357    0.8048   -2.7910 C.ar      1 <0>        -0.1639
     22 C19        -8.3629    1.4589   -3.9346 C.3       1 <0>        -0.0629
     23 C20        -9.2430    0.2084   -3.9855 C.3       1 <0>        -0.0776
     24 C21        -9.0290   -0.6028   -2.7407 C.2       1 <0>         0.3511
     25 N2         -9.8466   -0.6491   -1.7638 N.pl3     1 <0>        -0.3394
     26 C22       -11.1163    0.0625   -1.7028 C.3       1 <0>         0.0518
     27 C23       -11.1470    1.1934   -2.7325 C.3       1 <0>        -0.1202
     28 C24       -10.7128    0.6248   -4.0901 C.3       1 <0>        -0.1766
     29 C25       -10.8681    1.6787   -5.1561 C.2       1 <0>         0.5046
     30 O3        -10.6723    1.3961   -6.3258 O.co2     1 <0>        -0.6753
     31 O4        -11.1896    2.8139   -4.8488 O.co2     1 <0>        -0.6723
     32 C26        -9.5053   -1.4283   -0.6890 C.ar      1 <0>         0.4593
     33 N3        -10.3343   -1.5057    0.3449 N.ar      1 <0>        -0.4727
     34 C27       -10.0346   -2.2481    1.3965 C.ar      1 <0>         0.2019
     35 C28        -8.8385   -2.9505    1.4107 C.ar      1 <0>        -0.1528
     36 C29        -7.9954   -2.8477    0.3144 C.ar      1 <0>         0.1265
     37 N4         -8.3563   -2.0922   -0.7085 N.ar      1 <0>        -0.4835
     38 C30        -6.6859   -3.5930    0.2872 C.3       1 <0>         0.5257
     39 F1         -6.8806   -4.8572   -0.2795 F         1 <0>        -0.1560
     40 F2         -5.7578   -2.8774   -0.4769 F         1 <0>        -0.1469
     41 F3         -6.2037   -3.7364    1.5926 F         1 <0>        -0.1552
     42 H1          1.1816    1.9479   -0.4448 H         1 <0>         0.0827
     43 H2         -0.4148    1.9419   -1.2320 H         1 <0>         0.0910
     44 H3         -0.2960    1.8268    0.5402 H         1 <0>         0.0931
     45 H4          0.2653   -4.6070   -0.8194 H         1 <0>         0.1377
     46 H5          1.7760   -6.5355   -1.0394 H         1 <0>         0.1333
     47 H6          4.2088   -6.1910   -1.1587 H         1 <0>         0.1301
     48 H7          5.1455   -3.9186   -1.0572 H         1 <0>         0.1322
     49 H8          3.6517   -1.9757   -0.8483 H         1 <0>         0.1305
     50 H9         -2.8293   -1.1999    0.1202 H         1 <0>         0.0932
     51 H10        -2.3564    0.5141    0.2029 H         1 <0>         0.0923
     52 H11        -2.3010    0.6183   -2.2739 H         1 <0>         0.0642
     53 H12        -2.7739   -1.0957   -2.3566 H         1 <0>         0.0686
     54 H13        -3.2062    0.0206   -4.0705 H         1 <0>         0.1282
     55 H14        -4.4209    0.4560   -6.1664 H         1 <0>         0.1306
     56 H15        -6.7913    1.1165   -6.1030 H         1 <0>         0.1369
     57 H16        -6.7467    0.9005   -1.8444 H         1 <0>         0.1178
     58 H17        -8.5645    2.0079   -3.0148 H         1 <0>         0.0845
     59 H18        -8.5838    2.0938   -4.7926 H         1 <0>         0.1293
     60 H19        -8.1228   -1.1859   -2.6682 H         1 <0>         0.2057
     61 H20       -11.9292   -0.6338   -1.9090 H         1 <0>         0.1267
     62 H21       -11.2464    0.4811   -0.7048 H         1 <0>         0.1332
     63 H22       -12.1582    1.5931   -2.8086 H         1 <0>         0.1229
     64 H23       -10.4611    1.9845   -2.4293 H         1 <0>         0.0909
     65 H24       -11.3242   -0.2428   -4.3380 H         1 <0>         0.0887
     66 H25       -10.7128   -2.3069    2.2349 H         1 <0>         0.2125
     67 H26        -8.5694   -3.5642    2.2577 H         1 <0>         0.1879
     68 H27        -8.9731   -0.3891   -4.8563 H         1 <0>         0.1550
@<TRIPOS>BOND
     1    1    2 1
     2    1   42 1
     3    1   43 1
     4    1   44 1
     5    2    6 1
     6    2    3 2
     7    3    4 1
     8    3   13 1
     9    4    5 2
    10    5    6 1
    11    5    7 1
    12    7   12 ar
    13    7    8 ar
    14    8    9 ar
    15    8   45 1
    16    9   10 ar
    17    9   46 1
    18   10   11 ar
    19   10   47 1
    20   11   12 ar
    21   11   48 1
    22   12   49 1
    23   13   14 1
    24   13   50 1
    25   13   51 1
    26   14   15 1
    27   14   52 1
    28   14   53 1
    29   15   16 1
    30   16   21 ar
    31   16   17 ar
    32   17   18 ar
    33   17   54 1
    34   18   19 ar
    35   18   55 1
    36   19   20 ar
    37   19   56 1
    38   20   21 ar
    39   20   22 1
    40   21   57 1
    41   22   23 1
    42   22   58 1
    43   22   59 1
    44   23   28 1
    45   23   24 1
    46   23   68 1
    47   24   25 2
    48   24   60 1
    49   25   26 1
    50   25   32 1
    51   26   27 1
    52   26   61 1
    53   26   62 1
    54   27   28 1
    55   27   63 1
    56   27   64 1
    57   28   29 1
    58   28   65 1
    59   29   30 2
    60   29   31 1
    61   32   37 ar
    62   32   33 ar
    63   33   34 ar
    64   34   35 ar
    65   34   66 1
    66   35   36 ar
    67   35   67 1
    68   36   37 ar
    69   36   38 1
    70   38   39 1
    71   38   40 1
    72   38   41 1
@<TRIPOS>MOLECULE
CHEMBL593087
   55    58     0     0     0
SMALL
USER_CHARGES

@<TRIPOS>ATOM
      1 C1         -0.0184    1.5028    0.0103 C.3       1 <0>        -0.0672
      2 C2          0.0021   -0.0041    0.0020 C.2       1 <0>        -0.0458
      3 C3         -1.0705   -0.8164    0.0025 C.2       1 <0>         0.0007
      4 N1         -0.6270   -2.0826   -0.0064 N.2       1 <0>        -0.4586
      5 C4          0.6851   -2.0676   -0.0123 C.2       1 <0>         0.2230
      6 O1          1.0981   -0.7883   -0.0131 O.3       1 <0>        -0.1963
      7 C5          1.5619   -3.2577   -0.0227 C.ar      1 <0>        -0.0133
      8 C6          1.0059   -4.5378   -0.0330 C.ar      1 <0>        -0.0708
      9 C7          1.8298   -5.6443   -0.0432 C.ar      1 <0>        -0.1202
     10 C8          3.2044   -5.4871   -0.0433 C.ar      1 <0>        -0.1035
     11 C9          3.7620   -4.2209   -0.0327 C.ar      1 <0>        -0.1219
     12 C10         2.9493   -3.1060   -0.0282 C.ar      1 <0>        -0.0922
     13 C11        -2.5133   -0.3814    0.0119 C.3       1 <0>        -0.0369
     14 C12        -3.0085   -0.2260   -1.4274 C.3       1 <0>        -0.1073
     15 C13        -4.4733    0.2157   -1.4179 C.3       1 <0>        -0.0703
     16 C14        -4.9610    0.3688   -2.8355 C.ar      1 <0>        -0.0933
     17 C15        -4.8340    1.5837   -3.4827 C.ar      1 <0>        -0.1453
     18 C16        -5.2814    1.7242   -4.7831 C.ar      1 <0>        -0.1222
     19 C17        -5.8554    0.6496   -5.4365 C.ar      1 <0>        -0.0762
     20 C18        -5.9816   -0.5655   -4.7895 C.ar      1 <0>        -0.0148
     21 C19        -5.5303   -0.7071   -3.4906 C.ar      1 <0>        -0.1427
     22 C20        -6.3440    0.8031   -6.8538 C.3       1 <0>        -0.0455
     23 C21        -5.2116    0.4597   -7.8236 C.3       1 <0>        -0.1053
     24 C22        -5.6607    0.7306   -9.2364 C.2       1 <0>        -0.0752
     25 C23        -4.9816    1.6391  -10.0264 C.2       1 <0>        -0.1356
     26 C24        -5.4117    1.8595  -11.2928 C.2       1 <0>        -0.1907
     27 S1         -6.8175    0.7644  -11.4012 S.3       1 <0>        -0.0159
     28 C25        -6.7333    0.0828   -9.7533 C.2       1 <0>        -0.1500
     29 C26        -4.8525   -0.9969   -7.6812 C.2       1 <0>         0.5001
     30 O2         -4.4214   -1.6151   -8.6396 O.co2     1 <0>        -0.6883
     31 O3         -4.9931   -1.5573   -6.6075 O.co2     1 <0>        -0.6773
     32 H1          1.0042    1.8801    0.0026 H         1 <0>         0.0767
     33 H2         -0.5455    1.8639   -0.8728 H         1 <0>         0.0916
     34 H3         -0.5286    1.8543    0.9071 H         1 <0>         0.0889
     35 H4         -0.0670   -4.6619   -0.0326 H         1 <0>         0.1393
     36 H5          1.4008   -6.6354   -0.0508 H         1 <0>         0.1322
     37 H6          3.8450   -6.3565   -0.0513 H         1 <0>         0.1274
     38 H7          4.8357   -4.1050   -0.0321 H         1 <0>         0.1294
     39 H8          3.3858   -2.1181   -0.0249 H         1 <0>         0.1292
     40 H9         -3.1156   -1.1316    0.5243 H         1 <0>         0.0816
     41 H10        -2.6018    0.5726    0.5316 H         1 <0>         0.0789
     42 H11        -2.4061    0.5242   -1.9398 H         1 <0>         0.0622
     43 H12        -2.9200   -1.1800   -1.9471 H         1 <0>         0.0696
     44 H13        -5.0756   -0.5344   -0.9055 H         1 <0>         0.0674
     45 H14        -4.5618    1.1697   -0.8982 H         1 <0>         0.0650
     46 H15        -4.3855    2.4232   -2.9723 H         1 <0>         0.1061
     47 H16        -5.1827    2.6735   -5.2885 H         1 <0>         0.1068
     48 H17        -6.4304   -1.4048   -5.2999 H         1 <0>         0.1363
     49 H18        -5.6255   -1.6575   -2.9865 H         1 <0>         0.1087
     50 H19        -7.1842    0.1297   -7.0233 H         1 <0>         0.0626
     51 H20        -6.6640    1.8320   -7.0184 H         1 <0>         0.0524
     52 H21        -4.3396    1.0728   -7.5957 H         1 <0>         0.0680
     53 H22        -4.1214    2.1656   -9.6403 H         1 <0>         0.1249
     54 H23        -5.0088    2.5252  -12.0417 H         1 <0>         0.1777
     55 H24        -7.3720   -0.6537   -9.2885 H         1 <0>         0.1760
@<TRIPOS>BOND
     1    1    2 1
     2    1   32 1
     3    1   33 1
     4    1   34 1
     5    2    6 1
     6    2    3 2
     7    3    4 1
     8    3   13 1
     9    4    5 2
    10    5    6 1
    11    5    7 1
    12    7   12 ar
    13    7    8 ar
    14    8    9 ar
    15    8   35 1
    16    9   10 ar
    17    9   36 1
    18   10   11 ar
    19   10   37 1
    20   11   12 ar
    21   11   38 1
    22   12   39 1
    23   13   14 1
    24   13   40 1
    25   13   41 1
    26   14   15 1
    27   14   42 1
    28   14   43 1
    29   15   16 1
    30   15   44 1
    31   15   45 1
    32   16   21 ar
    33   16   17 ar
    34   17   18 ar
    35   17   46 1
    36   18   19 ar
    37   18   47 1
    38   19   20 ar
    39   19   22 1
    40   20   21 ar
    41   20   48 1
    42   21   49 1
    43   22   23 1
    44   22   50 1
    45   22   51 1
    46   23   24 1
    47   23   29 1
    48   23   52 1
    49   24   28 2
    50   24   25 1
    51   25   26 2
    52   25   53 1
    53   26   27 1
    54   26   54 1
    55   27   28 1
    56   28   55 1
    57   29   30 2
    58   29   31 1
@<TRIPOS>MOLECULE
CHEMBL593087__1
   55    58     0     0     0
SMALL
USER_CHARGES

@<TRIPOS>ATOM
      1 C1         -0.0184    1.5028    0.0103 C.3       1 <0>        -0.0697
      2 C2          0.0021   -0.0041    0.0020 C.2       1 <0>        -0.0403
      3 C3         -1.0705   -0.8164    0.0025 C.2       1 <0>        -0.0027
      4 N1         -0.6270   -2.0826   -0.0064 N.2       1 <0>        -0.4596
      5 C4          0.6851   -2.0676   -0.0123 C.2       1 <0>         0.2212
      6 O1          1.0981   -0.7883   -0.0131 O.3       1 <0>        -0.1953
      7 C5          1.5619   -3.2577   -0.0227 C.ar      1 <0>        -0.0123
      8 C6          1.0059   -4.5378   -0.0330 C.ar      1 <0>        -0.0720
      9 C7          1.8298   -5.6443   -0.0432 C.ar      1 <0>        -0.1210
     10 C8          3.2044   -5.4871   -0.0433 C.ar      1 <0>        -0.1040
     11 C9          3.7620   -4.2209   -0.0327 C.ar      1 <0>        -0.1211
     12 C10         2.9493   -3.1060   -0.0282 C.ar      1 <0>        -0.0918
     13 C11        -2.5133   -0.3814    0.0119 C.3       1 <0>        -0.0358
     14 C12        -3.0085   -0.2260   -1.4274 C.3       1 <0>        -0.1090
     15 C13        -4.4733    0.2157   -1.4179 C.3       1 <0>        -0.0709
     16 C14        -4.9610    0.3688   -2.8355 C.ar      1 <0>        -0.0982
     17 C15        -4.8340    1.5837   -3.4827 C.ar      1 <0>        -0.1158
     18 C16        -5.2814    1.7242   -4.7831 C.ar      1 <0>        -0.0914
     19 C17        -5.8554    0.6496   -5.4365 C.ar      1 <0>        -0.0662
     20 C18        -5.9816   -0.5655   -4.7895 C.ar      1 <0>        -0.1184
     21 C19        -5.5303   -0.7071   -3.4906 C.ar      1 <0>        -0.1218
     22 C20        -6.3440    0.8031   -6.8538 C.3       1 <0>        -0.0539
     23 C21        -5.2116    0.4597   -7.8236 C.3       1 <0>        -0.1003
     24 C22        -5.7331    0.4937   -9.2371 C.2       1 <0>        -0.1033
     25 C23        -5.6861   -0.6379  -10.0295 C.2       1 <0>        -0.1368
     26 C24        -6.1636   -0.5735  -11.2965 C.2       1 <0>        -0.1936
     27 S1         -6.7027    1.1252  -11.4020 S.3       1 <0>        -0.0259
     28 C25        -6.2604    1.6329   -9.7485 C.2       1 <0>        -0.1271
     29 C26        -4.0997    1.4660   -7.6741 C.2       1 <0>         0.5110
     30 O2         -2.9843    1.0979   -7.3472 O.co2     1 <0>        -0.6932
     31 O3         -4.3157    2.6481   -7.8800 O.co2     1 <0>        -0.6918
     32 H1          1.0042    1.8801    0.0026 H         1 <0>         0.0778
     33 H2         -0.5455    1.8639   -0.8728 H         1 <0>         0.0939
     34 H3         -0.5286    1.8543    0.9071 H         1 <0>         0.0894
     35 H4         -0.0670   -4.6619   -0.0326 H         1 <0>         0.1385
     36 H5          1.4008   -6.6354   -0.0508 H         1 <0>         0.1316
     37 H6          3.8450   -6.3565   -0.0513 H         1 <0>         0.1273
     38 H7          4.8357   -4.1050   -0.0321 H         1 <0>         0.1298
     39 H8          3.3858   -2.1181   -0.0249 H         1 <0>         0.1299
     40 H9         -3.1156   -1.1316    0.5243 H         1 <0>         0.0809
     41 H10        -2.6018    0.5726    0.5316 H         1 <0>         0.0799
     42 H11        -2.4061    0.5242   -1.9398 H         1 <0>         0.0662
     43 H12        -2.9200   -1.1800   -1.9471 H         1 <0>         0.0680
     44 H13        -5.0756   -0.5344   -0.9055 H         1 <0>         0.0684
     45 H14        -4.5618    1.1697   -0.8982 H         1 <0>         0.0689
     46 H15        -4.3855    2.4232   -2.9723 H         1 <0>         0.1147
     47 H16        -5.1827    2.6735   -5.2885 H         1 <0>         0.1261
     48 H17        -6.4304   -1.4048   -5.2999 H         1 <0>         0.1145
     49 H18        -5.6255   -1.6575   -2.9865 H         1 <0>         0.1134
     50 H19        -7.1842    0.1297   -7.0233 H         1 <0>         0.0574
     51 H20        -6.6640    1.8320   -7.0184 H         1 <0>         0.0748
     52 H21        -4.8317   -0.5373   -7.6004 H         1 <0>         0.0651
     53 H22        -5.2748   -1.5595   -9.6450 H         1 <0>         0.1267
     54 H23        -6.2064   -1.3485  -12.0474 H         1 <0>         0.1777
     55 H24        -6.3807    2.5976   -9.2782 H         1 <0>         0.1900
@<TRIPOS>BOND
     1    1    2 1
     2    1   32 1
     3    1   33 1
     4    1   34 1
     5    2    6 1
     6    2    3 2
     7    3    4 1
     8    3   13 1
     9    4    5 2
    10    5    6 1
    11    5    7 1
    12    7   12 ar
    13    7    8 ar
    14    8    9 ar
    15    8   35 1
    16    9   10 ar
    17    9   36 1
    18   10   11 ar
    19   10   37 1
    20   11   12 ar
    21   11   38 1
    22   12   39 1
    23   13   14 1
    24   13   40 1
    25   13   41 1
    26   14   15 1
    27   14   42 1
    28   14   43 1
    29   15   16 1
    30   15   44 1
    31   15   45 1
    32   16   21 ar
    33   16   17 ar
    34   17   18 ar
    35   17   46 1
    36   18   19 ar
    37   18   47 1
    38   19   20 ar
    39   19   22 1
    40   20   21 ar
    41   20   48 1
    42   21   49 1
    43   22   23 1
    44   22   50 1
    45   22   51 1
    46   23   24 1
    47   23   29 1
    48   23   52 1
    49   24   28 2
    50   24   25 1
    51   25   26 2
    52   25   53 1
    53   26   27 1
    54   26   54 1
    55   27   28 1
    56   28   55 1
    57   29   30 2
    58   29   31 1
@<TRIPOS>MOLECULE
CHEMBL248318
   59    60     0     0     0
SMALL
USER_CHARGES

@<TRIPOS>ATOM
      1 C1         -0.0187    1.5258    0.0104 C.3       1 <0>        -0.1431
      2 C2          0.0021   -0.0041    0.0020 C.3       1 <0>         0.0655
      3 O1          0.6932   -0.4774    1.1597 O.3       1 <0>        -0.3672
      4 C3          0.7699   -1.9016    1.2491 C.3       1 <0>         0.0329
      5 H1          0.7819   -2.3284    0.2462 H         1 <0>         0.0490
      6 C4          2.0499   -2.2981    1.9875 C.3       1 <0>        -0.0614
      7 C5          3.2484   -1.8847    1.1728 C.ar      1 <0>        -0.0951
      8 C6          3.7840   -2.7557    0.2422 C.ar      1 <0>        -0.0821
      9 C7          4.8829   -2.3792   -0.5056 C.ar      1 <0>        -0.1503
     10 C8          5.4488   -1.1259   -0.3223 C.ar      1 <0>         0.1102
     11 C9          4.9092   -0.2536    0.6118 C.ar      1 <0>        -0.2080
     12 C10         3.8070   -0.6328    1.3533 C.ar      1 <0>        -0.0622
     13 O2          6.5301   -0.7534   -1.0564 O.3       1 <0>        -0.3146
     14 C11         7.0601    0.5515   -0.8146 C.3       1 <0>         0.0865
     15 C12         8.2468    0.7862   -1.7134 C.2       1 <0>        -0.1152
     16 C13         8.3704    1.9361   -2.3611 C.2       1 <0>        -0.1169
     17 C14         9.5344    2.1664   -3.2428 C.ar      1 <0>         0.0333
     18 C15        10.5007    1.1728   -3.3989 C.ar      1 <0>        -0.1682
     19 C16        11.5897    1.3922   -4.2263 C.ar      1 <0>         0.1708
     20 C17        11.7200    2.5984   -4.8993 C.ar      1 <0>        -0.2984
     21 C18        10.7613    3.5894   -4.7463 C.ar      1 <0>         0.1688
     22 C19         9.6663    3.3756   -3.9252 C.ar      1 <0>        -0.1608
     23 O3         10.8938    4.7696   -5.4070 O.3       1 <0>        -0.2938
     24 C20        12.0443    4.9205   -6.2412 C.3       1 <0>         0.0114
     25 C21        12.0211    6.3026   -6.8969 C.3       1 <0>         0.4663
     26 F1         12.0314    7.2894   -5.9053 F         1 <0>        -0.1712
     27 F2         13.1473    6.4503   -7.7135 F         1 <0>        -0.1705
     28 F3         10.8632    6.4320   -7.6714 F         1 <0>        -0.1708
     29 O4         12.5320    0.4249   -4.3788 O.3       1 <0>        -0.2935
     30 C22        13.6284    0.7182   -5.2471 C.3       1 <0>         0.0115
     31 C23        14.5783   -0.4803   -5.2920 C.3       1 <0>         0.4661
     32 F4         13.8919   -1.6017   -5.7701 F         1 <0>        -0.1704
     33 F5         15.6516   -0.1931   -6.1420 F         1 <0>        -0.1706
     34 F6         15.0599   -0.7421   -4.0048 F         1 <0>        -0.1710
     35 C24        -0.4267   -2.4228    2.0025 C.2       1 <0>         0.4772
     36 O5         -0.6021   -3.6243    2.1120 O.co2     1 <0>        -0.7000
     37 O6         -1.2193   -1.6429    2.5025 O.co2     1 <0>        -0.6800
     38 H2          1.0039    1.9031    0.0027 H         1 <0>         0.0535
     39 H3         -0.5459    1.8868   -0.8726 H         1 <0>         0.0599
     40 H4         -0.5289    1.8773    0.9072 H         1 <0>         0.0624
     41 H5         -1.0205   -0.3814    0.0098 H         1 <0>         0.0456
     42 H6          0.5123   -0.3556   -0.8948 H         1 <0>         0.0299
     43 H7          2.0796   -1.7996    2.9564 H         1 <0>         0.0735
     44 H8          2.0651   -3.3781    2.1339 H         1 <0>         0.0875
     45 H9          3.3432   -3.7313    0.0999 H         1 <0>         0.1291
     46 H10         5.3014   -3.0602   -1.2319 H         1 <0>         0.1257
     47 H11         5.3479    0.7226    0.7563 H         1 <0>         0.1221
     48 H12         3.3839    0.0475    2.0775 H         1 <0>         0.1267
     49 H13         6.2941    1.2988   -1.0215 H         1 <0>         0.0711
     50 H14         7.3721    0.6297    0.2269 H         1 <0>         0.0774
     51 H15         8.9965    0.0176   -1.8297 H         1 <0>         0.1279
     52 H16         7.6207    2.7048   -2.2448 H         1 <0>         0.1317
     53 H17        10.4002    0.2337   -2.8751 H         1 <0>         0.1435
     54 H18        12.5702    2.7664   -5.5437 H         1 <0>         0.1338
     55 H19         8.9180    4.1457   -3.8104 H         1 <0>         0.1429
     56 H20        12.9464    4.8197   -5.6377 H         1 <0>         0.1103
     57 H21        12.0362    4.1516   -7.0138 H         1 <0>         0.1104
     58 H22        13.2531    0.9222   -6.2499 H         1 <0>         0.1104
     59 H23        14.1632    1.5919   -4.8746 H         1 <0>         0.1102
@<TRIPOS>BOND
     1    1    2 1
     2    1   38 1
     3    1   39 1
     4    1   40 1
     5    2    3 1
     6    2   41 1
     7    2   42 1
     8    3    4 1
     9    4    5 1
    10    4    6 1
    11    4   35 1
    12    6    7 1
    13    6   43 1
    14    6   44 1
    15    7   12 ar
    16    7    8 ar
    17    8    9 ar
    18    8   45 1
    19    9   10 ar
    20    9   46 1
    21   10   11 ar
    22   10   13 1
    23   11   12 ar
    24   11   47 1
    25   12   48 1
    26   13   14 1
    27   14   15 1
    28   14   49 1
    29   14   50 1
    30   15   16 2
    31   15   51 1
    32   16   17 1
    33   16   52 1
    34   17   22 ar
    35   17   18 ar
    36   18   19 ar
    37   18   53 1
    38   19   20 ar
    39   19   29 1
    40   20   21 ar
    41   20   54 1
    42   21   22 ar
    43   21   23 1
    44   22   55 1
    45   23   24 1
    46   24   25 1
    47   24   56 1
    48   24   57 1
    49   25   26 1
    50   25   27 1
    51   25   28 1
    52   29   30 1
    53   30   31 1
    54   30   58 1
    55   30   59 1
    56   31   32 1
    57   31   33 1
    58   31   34 1
    59   35   36 2
    60   35   37 1
@<TRIPOS>MOLECULE
CHEMBL246485
   71    74     0     0     0
SMALL
USER_CHARGES

@<TRIPOS>ATOM
      1 C1          0.4199    1.4973    1.1306 C.3       1 <0>        -0.1431
      2 C2          0.5260   -0.0214    1.2829 C.3       1 <0>         0.0656
      3 O1          1.3450   -0.3308    2.4123 O.3       1 <0>        -0.3671
      4 C3          1.5095   -1.7312    2.6447 C.3       1 <0>         0.0329
      5 H1          1.4545   -2.2658    1.6964 H         1 <0>         0.0490
      6 C4          2.8716   -1.9837    3.2942 C.3       1 <0>        -0.0611
      7 C5          3.9660   -1.6086    2.3284 C.ar      1 <0>        -0.0957
      8 C6          4.4631   -2.5520    1.4483 C.ar      1 <0>        -0.0820
      9 C7          5.4665   -2.2107    0.5623 C.ar      1 <0>        -0.1505
     10 C8          5.9752   -0.9200    0.5559 C.ar      1 <0>         0.1106
     11 C9          5.4744    0.0249    1.4397 C.ar      1 <0>        -0.2083
     12 C10         4.4673   -0.3200    2.3201 C.ar      1 <0>        -0.0620
     13 O2          6.9627   -0.5819   -0.3144 O.3       1 <0>        -0.3145
     14 C11         7.4381    0.7647   -0.2649 C.3       1 <0>         0.0891
     15 C12         8.5231    0.9526   -1.2938 C.2       1 <0>        -0.1232
     16 C13         8.5224    2.0279   -2.0690 C.2       1 <0>        -0.1109
     17 C14         9.5867    2.2121   -3.0783 C.ar      1 <0>        -0.0177
     18 C15        10.5892    1.2529   -3.2203 C.ar      1 <0>        -0.1076
     19 C16        11.5845    1.4290   -4.1676 C.ar      1 <0>         0.1060
     20 C17        11.5853    2.5579   -4.9741 C.ar      1 <0>        -0.1180
     21 C18        10.5898    3.5144   -4.8359 C.ar      1 <0>         0.1049
     22 C19         9.5877    3.3428   -3.8949 C.ar      1 <0>        -0.1041
     23 O3         10.5951    4.6188   -5.6280 O.3       1 <0>        -0.2886
     24 C20        11.0137    5.7810   -5.0901 C.2       1 <0>         0.5075
     25 O4         11.4716    5.7995   -3.9650 O.2       1 <0>        -0.4816
     26 C21        10.9160    7.0326   -5.8684 C.ar      1 <0>        -0.1258
     27 C22        10.3850    7.0158   -7.1597 C.ar      1 <0>        -0.0609
     28 C23        10.2967    8.1883   -7.8810 C.ar      1 <0>        -0.1324
     29 C24        10.7333    9.3791   -7.3278 C.ar      1 <0>        -0.0808
     30 C25        11.2610    9.4029   -6.0489 C.ar      1 <0>        -0.1309
     31 C26        11.3490    8.2388   -5.3140 C.ar      1 <0>        -0.0523
     32 O5         12.5619    0.4949   -4.3068 O.3       1 <0>        -0.2889
     33 C27        12.2444   -0.6679   -4.9086 C.2       1 <0>         0.5064
     34 O6         11.0958   -0.8877   -5.2377 O.2       1 <0>        -0.4791
     35 C28        13.2928   -1.6756   -5.1682 C.ar      1 <0>        -0.1252
     36 C29        14.6129   -1.4286   -4.7861 C.ar      1 <0>        -0.0614
     37 C30        15.5870   -2.3739   -5.0316 C.ar      1 <0>        -0.1329
     38 C31        15.2585   -3.5645   -5.6555 C.ar      1 <0>        -0.0808
     39 C32        13.9524   -3.8156   -6.0372 C.ar      1 <0>        -0.1304
     40 C33        12.9672   -2.8818   -5.7918 C.ar      1 <0>        -0.0516
     41 C34         0.4176   -2.2200    3.5611 C.2       1 <0>         0.4774
     42 O7          0.3208   -3.4087    3.8141 O.co2     1 <0>        -0.7001
     43 O8         -0.3690   -1.4268    4.0495 O.co2     1 <0>        -0.6800
     44 H2          1.4147    1.9182    0.9842 H         1 <0>         0.0534
     45 H3         -0.2048    1.7334    0.2692 H         1 <0>         0.0598
     46 H4         -0.0257    1.9224    2.0300 H         1 <0>         0.0624
     47 H5         -0.4688   -0.4422    1.4293 H         1 <0>         0.0457
     48 H6          0.9716   -0.4465    0.3836 H         1 <0>         0.0299
     49 H7          2.9611   -1.3798    4.1972 H         1 <0>         0.0734
     50 H8          2.9609   -3.0389    3.5524 H         1 <0>         0.0874
     51 H9          4.0668   -3.5566    1.4537 H         1 <0>         0.1291
     52 H10         5.8550   -2.9482   -0.1244 H         1 <0>         0.1256
     53 H11         5.8687    1.0303    1.4366 H         1 <0>         0.1219
     54 H12         4.0740    0.4163    3.0053 H         1 <0>         0.1266
     55 H13         6.6156    1.4484   -0.4753 H         1 <0>         0.0706
     56 H14         7.8385    0.9725    0.7274 H         1 <0>         0.0768
     57 H15         9.3012    0.2111   -1.3995 H         1 <0>         0.1244
     58 H16         7.7443    2.7693   -1.9633 H         1 <0>         0.1307
     59 H17        10.5897    0.3742   -2.5924 H         1 <0>         0.1401
     60 H18        12.3630    2.6927   -5.7112 H         1 <0>         0.1420
     61 H19         8.8107    4.0856   -3.7909 H         1 <0>         0.1396
     62 H20        10.0445    6.0870   -7.5929 H         1 <0>         0.1402
     63 H21         9.8862    8.1768   -8.8799 H         1 <0>         0.1341
     64 H22        10.6622   10.2942   -7.8970 H         1 <0>         0.1314
     65 H23        11.6006   10.3356   -5.6234 H         1 <0>         0.1352
     66 H24        11.7565    8.2595   -4.3141 H         1 <0>         0.1394
     67 H25        14.8708   -0.4994   -4.2997 H         1 <0>         0.1397
     68 H26        16.6084   -2.1842   -4.7366 H         1 <0>         0.1337
     69 H27        16.0251   -4.3011   -5.8457 H         1 <0>         0.1314
     70 H28        13.7030   -4.7466   -6.5244 H         1 <0>         0.1355
     71 H29        11.9473   -3.0810   -6.0859 H         1 <0>         0.1400
@<TRIPOS>BOND
     1    1    2 1
     2    1   44 1
     3    1   45 1
     4    1   46 1
     5    2    3 1
     6    2   47 1
     7    2   48 1
     8    3    4 1
     9    4    5 1
    10    4    6 1
    11    4   41 1
    12    6    7 1
    13    6   49 1
    14    6   50 1
    15    7   12 ar
    16    7    8 ar
    17    8    9 ar
    18    8   51 1
    19    9   10 ar
    20    9   52 1
    21   10   11 ar
    22   10   13 1
    23   11   12 ar
    24   11   53 1
    25   12   54 1
    26   13   14 1
    27   14   15 1
    28   14   55 1
    29   14   56 1
    30   15   16 2
    31   15   57 1
    32   16   17 1
    33   16   58 1
    34   17   22 ar
    35   17   18 ar
    36   18   19 ar
    37   18   59 1
    38   19   20 ar
    39   19   32 1
    40   20   21 ar
    41   20   60 1
    42   21   22 ar
    43   21   23 1
    44   22   61 1
    45   23   24 1
    46   24   25 2
    47   24   26 1
    48   26   31 ar
    49   26   27 ar
    50   27   28 ar
    51   27   62 1
    52   28   29 ar
    53   28   63 1
    54   29   30 ar
    55   29   64 1
    56   30   31 ar
    57   30   65 1
    58   31   66 1
    59   32   33 1
    60   33   34 2
    61   33   35 1
    62   35   40 ar
    63   35   36 ar
    64   36   37 ar
    65   36   67 1
    66   37   38 ar
    67   37   68 1
    68   38   39 ar
    69   38   69 1
    70   39   40 ar
    71   39   70 1
    72   40   71 1
    73   41   42 2
    74   41   43 1
@<TRIPOS>MOLECULE
CHEMBL360231
   60    63     0     0     0
SMALL
USER_CHARGES

@<TRIPOS>ATOM
      1 C1         -0.0187    1.5258    0.0104 C.3       1 <0>        -0.1534
      2 C2          0.0021   -0.0041    0.0020 C.3       1 <0>         0.0457
      3 C3         -1.4346   -0.5404    0.0397 C.3       1 <0>        -0.1325
      4 C4         -2.1423    0.0658    1.2540 C.3       1 <0>        -0.0713
      5 C5         -1.2689   -0.0778    2.4748 C.ar      1 <0>        -0.1985
      6 C6         -1.8483    0.0527    3.7266 C.ar      1 <0>        -0.0469
      7 C7         -1.0809   -0.0688    4.8672 C.ar      1 <0>        -0.2540
      8 C8          0.2797   -0.3223    4.7625 C.ar      1 <0>         0.1561
      9 C9          0.8618   -0.4546    3.5133 C.ar      1 <0>        -0.1923
     10 C10         0.0869   -0.3346    2.3649 C.ar      1 <0>         0.1872
     11 O1          0.6920   -0.4821    1.1575 O.3       1 <0>        -0.2744
     12 O2          1.0386   -0.4409    5.8836 O.3       1 <0>        -0.3112
     13 C11         0.3703   -0.2931    7.1381 C.3       1 <0>         0.0672
     14 C12         1.3796   -0.4576    8.2761 C.3       1 <0>        -0.1203
     15 C13         0.6642   -0.2993    9.6192 C.3       1 <0>         0.0636
     16 O3          1.6069   -0.4530   10.6821 O.3       1 <0>        -0.2995
     17 C14         1.1305   -0.3404   11.9510 C.ar      1 <0>         0.1074
     18 C15        -0.2169   -0.0930   12.1665 C.ar      1 <0>        -0.1571
     19 C16        -0.7010    0.0209   13.4552 C.ar      1 <0>        -0.1057
     20 C17         0.1603   -0.1115   14.5344 C.ar      1 <0>         0.1068
     21 C18         1.5079   -0.3589   14.3199 C.ar      1 <0>        -0.1650
     22 C19         1.9917   -0.4787   13.0305 C.ar      1 <0>        -0.0303
     23 Cl1         3.6772   -0.7955   12.7614 Cl        1 <0>        -0.0490
     24 O4         -0.3166    0.0016   15.8028 O.3       1 <0>        -0.3081
     25 C20         0.6266   -0.1459   16.8661 C.3       1 <0>         0.0659
     26 C21        -0.0898    0.0120   18.2088 C.3       1 <0>        -0.1106
     27 C22        -0.1813    1.4696   18.6904 C.3       1 <0>        -0.1358
     28 C23         0.1146    0.9388   20.1031 C.3       1 <0>        -0.1429
     29 C24         0.8150   -0.2502   19.4243 C.3       1 <0>        -0.1320
     30 C25         0.6955   -0.4953   -1.2425 C.2       1 <0>         0.5158
     31 O5          1.6969   -1.1847   -1.1506 O.co2     1 <0>        -0.6698
     32 O6          0.2551   -0.2034   -2.3413 O.co2     1 <0>        -0.6807
     33 H1          1.0039    1.9031    0.0027 H         1 <0>         0.0571
     34 H2         -0.5459    1.8868   -0.8726 H         1 <0>         0.0748
     35 H3         -0.5289    1.8773    0.9072 H         1 <0>         0.0505
     36 H4         -1.9582   -0.2529   -0.8721 H         1 <0>         0.0874
     37 H5         -1.4190   -1.6267    0.1280 H         1 <0>         0.0679
     38 H6         -2.3376    1.1223    1.0700 H         1 <0>         0.0734
     39 H7         -3.0862   -0.4533    1.4203 H         1 <0>         0.0720
     40 H8         -2.9067    0.2504    3.8102 H         1 <0>         0.1216
     41 H9         -1.5386    0.0336    5.8400 H         1 <0>         0.1218
     42 H10         1.9205   -0.6513    3.4305 H         1 <0>         0.1363
     43 H11        -0.0823    0.6969    7.1942 H         1 <0>         0.0645
     44 H12        -0.4058   -1.0531    7.2280 H         1 <0>         0.0646
     45 H13         1.8323   -1.4476    8.2200 H         1 <0>         0.0880
     46 H14         2.1558    0.3024    8.1861 H         1 <0>         0.0879
     47 H15         0.2115    0.6906    9.6753 H         1 <0>         0.0681
     48 H16        -0.1120   -1.0593    9.7092 H         1 <0>         0.0682
     49 H17        -0.8878    0.0109   11.3265 H         1 <0>         0.1454
     50 H18        -1.7505    0.2135   13.6226 H         1 <0>         0.1407
     51 H19         2.1785   -0.4620   15.1602 H         1 <0>         0.1433
     52 H20         1.0834   -1.1341   16.8121 H         1 <0>         0.0642
     53 H21         1.3995    0.6172   16.7747 H         1 <0>         0.0645
     54 H22        -1.0389   -0.5225   18.2476 H         1 <0>         0.1021
     55 H23         0.6043    2.1114   18.2917 H         1 <0>         0.0820
     56 H24        -1.1764    1.9022   18.5861 H         1 <0>         0.0707
     57 H25         0.7900    1.5744   20.6758 H         1 <0>         0.0702
     58 H26        -0.7793    0.6588   20.6604 H         1 <0>         0.0821
     59 H27         0.6244   -1.2059   19.9125 H         1 <0>         0.0726
     60 H28         1.8730   -0.0785   19.2262 H         1 <0>         0.0837
@<TRIPOS>BOND
     1    1    2 1
     2    1   33 1
     3    1   34 1
     4    1   35 1
     5    2   11 1
     6    2    3 1
     7    2   30 1
     8    3    4 1
     9    3   36 1
    10    3   37 1
    11    4    5 1
    12    4   38 1
    13    4   39 1
    14    5   10 ar
    15    5    6 ar
    16    6    7 ar
    17    6   40 1
    18    7    8 ar
    19    7   41 1
    20    8    9 ar
    21    8   12 1
    22    9   10 ar
    23    9   42 1
    24   10   11 1
    25   12   13 1
    26   13   14 1
    27   13   43 1
    28   13   44 1
    29   14   15 1
    30   14   45 1
    31   14   46 1
    32   15   16 1
    33   15   47 1
    34   15   48 1
    35   16   17 1
    36   17   22 ar
    37   17   18 ar
    38   18   19 ar
    39   18   49 1
    40   19   20 ar
    41   19   50 1
    42   20   21 ar
    43   20   24 1
    44   21   22 ar
    45   21   51 1
    46   22   23 1
    47   24   25 1
    48   25   26 1
    49   25   52 1
    50   25   53 1
    51   26   29 1
    52   26   27 1
    53   26   54 1
    54   27   28 1
    55   27   55 1
    56   27   56 1
    57   28   29 1
    58   28   57 1
    59   28   58 1
    60   29   59 1
    61   29   60 1
    62   30   31 2
    63   30   32 1
@<TRIPOS>MOLECULE
CHEMBL222248
   62    66     0     0     0
SMALL
USER_CHARGES

@<TRIPOS>ATOM
      1 C1          1.0716    1.5554    0.8251 C.3       1 <0>         0.0239
      2 O1          1.0017    0.1324    0.7146 O.3       1 <0>        -0.3010
      3 C2         -0.2267   -0.4106    0.5009 C.ar      1 <0>         0.1002
      4 C3         -1.3357    0.4083    0.3947 C.ar      1 <0>        -0.1256
      5 C4         -2.5950   -0.1524    0.1755 C.ar      1 <0>        -0.0179
      6 C5         -2.7294   -1.5372    0.0643 C.ar      1 <0>        -0.0821
      7 C6         -1.6193   -2.3488    0.1712 C.ar      1 <0>        -0.1723
      8 C7         -0.3669   -1.7915    0.3833 C.ar      1 <0>         0.1284
      9 O2          0.7252   -2.5950    0.4823 O.3       1 <0>        -0.2952
     10 C8          0.5096   -4.0016    0.3522 C.3       1 <0>         0.0600
     11 C9          1.8441   -4.7371    0.4906 C.3       1 <0>        -0.1185
     12 C10         1.6132   -6.2432    0.3513 C.3       1 <0>         0.0659
     13 O3          2.8596   -6.9301    0.4805 O.3       1 <0>        -0.3150
     14 C11         2.8305   -8.2851    0.3806 C.ar      1 <0>         0.1144
     15 C12         1.6283   -8.9405    0.1570 C.ar      1 <0>        -0.2083
     16 C13         1.6039  -10.3167    0.0563 C.ar      1 <0>        -0.0704
     17 C14         2.7748  -11.0471    0.1780 C.ar      1 <0>        -0.1082
     18 C15         3.9741  -10.3963    0.4010 C.ar      1 <0>        -0.0611
     19 C16         4.0026   -9.0157    0.4962 C.ar      1 <0>        -0.1402
     20 C17         5.0957  -11.4085    0.4959 C.3       1 <0>        -0.0828
     21 C18         4.3978  -12.7626    0.7439 C.3       1 <0>        -0.1019
     22 C19         3.0092  -12.5411    0.1077 C.3       1 <0>        -0.0265
     23 H1          3.0109  -12.8752   -0.9299 H         1 <0>         0.0888
     24 C20         1.9355  -13.2850    0.9043 C.3       1 <0>        -0.1740
     25 C21         2.1026  -14.7698    0.7078 C.2       1 <0>         0.4909
     26 O4          2.9284  -15.1908   -0.0841 O.co2     1 <0>        -0.6953
     27 O5          1.4119  -15.5500    1.3408 O.co2     1 <0>        -0.7083
     28 C22        -3.7839    0.7186    0.0617 C.2       1 <0>         0.1712
     29 N1         -3.8697    2.0331    0.1309 N.2       1 <0>        -0.5001
     30 C23        -5.0304    2.6854    0.0070 C.2       1 <0>         0.0369
     31 C24        -6.1431    1.9330   -0.1926 C.2       1 <0>        -0.2079
     32 S1         -5.4939    0.2764   -0.2148 S.3       1 <0>         0.0444
     33 C25        -7.3818    2.7673   -0.3077 C.3       1 <0>        -0.0318
     34 C26        -6.9800    4.1432    0.2694 C.3       1 <0>        -0.1142
     35 C27        -5.4575    4.1552    0.0295 C.3       1 <0>        -0.0438
     36 H2          2.1056    1.8564    0.9939 H         1 <0>         0.1032
     37 H3          0.7068    2.0098   -0.0961 H         1 <0>         0.0566
     38 H4          0.4559    1.8856    1.6617 H         1 <0>         0.0567
     39 H5         -1.2278    1.4793    0.4816 H         1 <0>         0.1487
     40 H6         -3.7028   -1.9734   -0.1050 H         1 <0>         0.1331
     41 H7         -1.7247   -3.4202    0.0850 H         1 <0>         0.1465
     42 H8         -0.1734   -4.3382    1.1322 H         1 <0>         0.0697
     43 H9          0.0774   -4.2140   -0.6257 H         1 <0>         0.0695
     44 H10         2.5270   -4.4005   -0.2894 H         1 <0>         0.0870
     45 H11         2.2763   -4.5247    1.4685 H         1 <0>         0.0871
     46 H12         0.9302   -6.5798    1.1312 H         1 <0>         0.0646
     47 H13         1.1810   -6.4555   -0.6266 H         1 <0>         0.0643
     48 H14         0.7132   -8.3748    0.0623 H         1 <0>         0.1235
     49 H15         0.6678  -10.8265   -0.1179 H         1 <0>         0.1223
     50 H16         4.9400   -8.5068    0.6655 H         1 <0>         0.1240
     51 H17         5.6582  -11.4383   -0.4373 H         1 <0>         0.0793
     52 H18         5.7555  -11.1650    1.3286 H         1 <0>         0.0708
     53 H19         4.9298  -13.5704    0.2414 H         1 <0>         0.0853
     54 H20         4.3074  -12.9621    1.8116 H         1 <0>         0.0643
     55 H21         2.0367  -13.0449    1.9627 H         1 <0>         0.0567
     56 H22         0.9485  -12.9812    0.5556 H         1 <0>         0.0557
     57 H23        -7.6786    2.8650   -1.3520 H         1 <0>         0.0895
     58 H24        -8.1902    2.3304    0.2787 H         1 <0>         0.0831
     59 H25        -7.4668    4.9517   -0.2759 H         1 <0>         0.0897
     60 H26        -7.2073    4.2007    1.3339 H         1 <0>         0.0797
     61 H27        -4.9529    4.6815    0.8397 H         1 <0>         0.0809
     62 H28        -5.2307    4.6278   -0.9261 H         1 <0>         0.0856
@<TRIPOS>BOND
     1    1    2 1
     2    1   36 1
     3    1   37 1
     4    1   38 1
     5    2    3 1
     6    3    8 ar
     7    3    4 ar
     8    4    5 ar
     9    4   39 1
    10    5    6 ar
    11    5   28 1
    12    6    7 ar
    13    6   40 1
    14    7    8 ar
    15    7   41 1
    16    8    9 1
    17    9   10 1
    18   10   11 1
    19   10   42 1
    20   10   43 1
    21   11   12 1
    22   11   44 1
    23   11   45 1
    24   12   13 1
    25   12   46 1
    26   12   47 1
    27   13   14 1
    28   14   19 ar
    29   14   15 ar
    30   15   16 ar
    31   15   48 1
    32   16   17 ar
    33   16   49 1
    34   17   22 1
    35   17   18 ar
    36   18   19 ar
    37   18   20 1
    38   19   50 1
    39   20   21 1
    40   20   51 1
    41   20   52 1
    42   21   22 1
    43   21   53 1
    44   21   54 1
    45   22   23 1
    46   22   24 1
    47   24   25 1
    48   24   55 1
    49   24   56 1
    50   25   26 2
    51   25   27 1
    52   28   32 1
    53   28   29 2
    54   29   30 1
    55   30   35 1
    56   30   31 2
    57   31   32 1
    58   31   33 1
    59   33   34 1
    60   33   57 1
    61   33   58 1
    62   34   35 1
    63   34   59 1
    64   34   60 1
    65   35   61 1
    66   35   62 1
@<TRIPOS>MOLECULE
CHEMBL219847
   72    76     0     0     0
SMALL
USER_CHARGES

@<TRIPOS>ATOM
      1 C1         -0.0347    2.6674   -1.1909 C.3       1 <0>        -0.1522
      2 C2         -0.0257    1.1599   -0.9294 C.3       1 <0>        -0.1174
      3 C3          0.6980    0.4480   -2.0741 C.3       1 <0>        -0.0708
      4 C4          0.7069   -1.0368   -1.8166 C.ar      1 <0>        -0.1184
      5 C5          1.7907   -1.6216   -1.1981 C.ar      1 <0>        -0.0249
      6 C6          1.7979   -2.9965   -0.9597 C.ar      1 <0>        -0.0774
      7 C7          0.7063   -3.7747   -1.3487 C.ar      1 <0>        -0.0408
      8 C8         -0.3739   -3.1835   -1.9664 C.ar      1 <0>        -0.2096
      9 C9         -0.3799   -1.8134   -2.1976 C.ar      1 <0>         0.1615
     10 O1         -1.4483   -1.2331   -2.8020 O.3       1 <0>        -0.3016
     11 C10        -2.5316   -2.0904   -3.1675 C.3       1 <0>         0.0606
     12 C11        -3.6350   -1.2636   -3.8306 C.3       1 <0>        -0.1182
     13 C12        -4.7948   -2.1815   -4.2220 C.3       1 <0>         0.0655
     14 O2         -5.8254   -1.4092   -4.8414 O.3       1 <0>        -0.3151
     15 C13        -6.9351   -2.0777   -5.2518 C.ar      1 <0>         0.1140
     16 C14        -7.0335   -3.4480   -5.0575 C.ar      1 <0>        -0.2081
     17 C15        -8.1625   -4.1223   -5.4760 C.ar      1 <0>        -0.0703
     18 C16        -9.1984   -3.4372   -6.0899 C.ar      1 <0>        -0.1078
     19 C17        -9.1027   -2.0717   -6.2847 C.ar      1 <0>        -0.0611
     20 C18        -7.9743   -1.3916   -5.8604 C.ar      1 <0>        -0.1401
     21 C19       -10.3533   -1.5637   -6.9699 C.3       1 <0>        -0.0828
     22 C20       -11.0268   -2.8191   -7.5636 C.3       1 <0>        -0.1019
     23 C21       -10.5201   -3.9395   -6.6309 C.3       1 <0>        -0.0267
     24 H1        -11.2256   -4.1009   -5.8158 H         1 <0>         0.0889
     25 C22       -10.3133   -5.2340   -7.4197 C.3       1 <0>        -0.1740
     26 C23       -11.6520   -5.7917   -7.8297 C.2       1 <0>         0.4908
     27 O3        -12.6784   -5.2677   -7.4319 O.co2     1 <0>        -0.6952
     28 O4        -11.7085   -6.7670   -8.5592 O.co2     1 <0>        -0.7082
     29 C24         2.9597   -3.6279   -0.2966 C.2       1 <0>         0.2632
     30 N1          4.0465   -3.0373    0.1282 N.2       1 <0>        -0.5158
     31 C25         5.0791   -3.8021    0.7892 C.3       1 <0>         0.0678
     32 C26         6.4701   -3.2377    0.6148 C.3       1 <0>        -0.0936
     33 C27         6.9939   -3.5496   -0.7888 C.3       1 <0>        -0.1211
     34 C28         7.0863   -5.0651   -0.9436 C.3       1 <0>        -0.1132
     35 C29         5.7338   -5.7180   -0.7648 C.3       1 <0>        -0.1131
     36 C30         4.9827   -5.3027    0.4797 C.3       1 <0>        -0.0381
     37 S1          3.1710   -5.3569    0.1001 S.3       1 <0>        -0.2531
     38 H2          0.9909    3.0312   -1.2544 H         1 <0>         0.0529
     39 H3         -0.5510    2.8703   -2.1291 H         1 <0>         0.0556
     40 H4         -0.5503    3.1745   -0.3753 H         1 <0>         0.0538
     41 H5          0.4906    0.9570    0.0089 H         1 <0>         0.0600
     42 H6         -1.0512    0.7961   -0.8659 H         1 <0>         0.0648
     43 H7          0.1817    0.6510   -3.0124 H         1 <0>         0.0787
     44 H8          1.7235    0.8119   -2.1376 H         1 <0>         0.0717
     45 H9          2.6338   -1.0166   -0.8988 H         1 <0>         0.1411
     46 H10         0.7087   -4.8391   -1.1659 H         1 <0>         0.1326
     47 H11        -1.2186   -3.7850   -2.2680 H         1 <0>         0.1376
     48 H12        -2.1757   -2.8479   -3.8659 H         1 <0>         0.0698
     49 H13        -2.9276   -2.5760   -2.2756 H         1 <0>         0.0697
     50 H14        -3.9908   -0.5061   -3.1323 H         1 <0>         0.0866
     51 H15        -3.2389   -0.7781   -4.7226 H         1 <0>         0.0867
     52 H16        -4.4389   -2.9390   -4.9204 H         1 <0>         0.0645
     53 H17        -5.1908   -2.6670   -3.3301 H         1 <0>         0.0642
     54 H18        -6.2279   -3.9859   -4.5800 H         1 <0>         0.1233
     55 H19        -8.2387   -5.1890   -5.3245 H         1 <0>         0.1224
     56 H20        -7.9014   -0.3242   -6.0081 H         1 <0>         0.1240
     57 H21       -11.0139   -1.0867   -6.2460 H         1 <0>         0.0794
     58 H22       -10.0919   -0.8636   -7.7634 H         1 <0>         0.0708
     59 H23       -12.1126   -2.7359   -7.5150 H         1 <0>         0.0854
     60 H24       -10.6957   -2.9885   -8.5882 H         1 <0>         0.0643
     61 H25        -9.7184   -5.0264   -8.3092 H         1 <0>         0.0567
     62 H26        -9.7927   -5.9605   -6.7958 H         1 <0>         0.0557
     63 H27         4.8730   -3.7105    1.8556 H         1 <0>         0.0861
     64 H28         6.4423   -2.1576    0.7583 H         1 <0>         0.0790
     65 H29         7.1355   -3.6814    1.3555 H         1 <0>         0.0766
     66 H30         6.3088   -3.1456   -1.5342 H         1 <0>         0.0656
     67 H31         7.9813   -3.1065   -0.9189 H         1 <0>         0.0696
     68 H32         7.4676   -5.2999   -1.9373 H         1 <0>         0.0701
     69 H33         7.7746   -5.4590   -0.1958 H         1 <0>         0.0641
     70 H34         5.1194   -5.4787   -1.6328 H         1 <0>         0.0711
     71 H35         5.8750   -6.7984   -0.7365 H         1 <0>         0.0732
     72 H36         5.2509   -5.9166    1.3395 H         1 <0>         0.1307
@<TRIPOS>BOND
     1    1    2 1
     2    1   38 1
     3    1   39 1
     4    1   40 1
     5    2    3 1
     6    2   41 1
     7    2   42 1
     8    3    4 1
     9    3   43 1
    10    3   44 1
    11    4    9 ar
    12    4    5 ar
    13    5    6 ar
    14    5   45 1
    15    6    7 ar
    16    6   29 1
    17    7    8 ar
    18    7   46 1
    19    8    9 ar
    20    8   47 1
    21    9   10 1
    22   10   11 1
    23   11   12 1
    24   11   48 1
    25   11   49 1
    26   12   13 1
    27   12   50 1
    28   12   51 1
    29   13   14 1
    30   13   52 1
    31   13   53 1
    32   14   15 1
    33   15   20 ar
    34   15   16 ar
    35   16   17 ar
    36   16   54 1
    37   17   18 ar
    38   17   55 1
    39   18   23 1
    40   18   19 ar
    41   19   20 ar
    42   19   21 1
    43   20   56 1
    44   21   22 1
    45   21   57 1
    46   21   58 1
    47   22   23 1
    48   22   59 1
    49   22   60 1
    50   23   24 1
    51   23   25 1
    52   25   26 1
    53   25   61 1
    54   25   62 1
    55   26   27 2
    56   26   28 1
    57   29   37 1
    58   29   30 2
    59   30   31 1
    60   31   36 1
    61   31   32 1
    62   31   63 1
    63   32   33 1
    64   32   64 1
    65   32   65 1
    66   33   34 1
    67   33   66 1
    68   33   67 1
    69   34   35 1
    70   34   68 1
    71   34   69 1
    72   35   36 1
    73   35   70 1
    74   35   71 1
    75   36   37 1
    76   36   72 1
@<TRIPOS>MOLECULE
CHEMBL219847__1
   72    76     0     0     0
SMALL
USER_CHARGES

@<TRIPOS>ATOM
      1 C1         -0.0347    2.6674   -1.1909 C.3       1 <0>        -0.1522
      2 C2         -0.0257    1.1599   -0.9294 C.3       1 <0>        -0.1173
      3 C3          0.6980    0.4480   -2.0741 C.3       1 <0>        -0.0710
      4 C4          0.7069   -1.0368   -1.8166 C.ar      1 <0>        -0.1172
      5 C5          1.7907   -1.6216   -1.1981 C.ar      1 <0>        -0.0281
      6 C6          1.7979   -2.9965   -0.9597 C.ar      1 <0>        -0.0700
      7 C7          0.7063   -3.7747   -1.3487 C.ar      1 <0>        -0.0432
      8 C8         -0.3739   -3.1835   -1.9664 C.ar      1 <0>        -0.2083
      9 C9         -0.3799   -1.8134   -2.1976 C.ar      1 <0>         0.1595
     10 O1         -1.4483   -1.2331   -2.8020 O.3       1 <0>        -0.3017
     11 C10        -2.5316   -2.0904   -3.1675 C.3       1 <0>         0.0607
     12 C11        -3.6350   -1.2636   -3.8306 C.3       1 <0>        -0.1182
     13 C12        -4.7948   -2.1815   -4.2220 C.3       1 <0>         0.0656
     14 O2         -5.8254   -1.4092   -4.8414 O.3       1 <0>        -0.3151
     15 C13        -6.9351   -2.0777   -5.2518 C.ar      1 <0>         0.1141
     16 C14        -7.0335   -3.4480   -5.0575 C.ar      1 <0>        -0.2081
     17 C15        -8.1625   -4.1223   -5.4760 C.ar      1 <0>        -0.0704
     18 C16        -9.1984   -3.4372   -6.0899 C.ar      1 <0>        -0.1078
     19 C17        -9.1027   -2.0717   -6.2847 C.ar      1 <0>        -0.0611
     20 C18        -7.9743   -1.3916   -5.8604 C.ar      1 <0>        -0.1401
     21 C19       -10.3533   -1.5637   -6.9699 C.3       1 <0>        -0.0828
     22 C20       -11.0268   -2.8191   -7.5636 C.3       1 <0>        -0.1019
     23 C21       -10.5201   -3.9395   -6.6309 C.3       1 <0>        -0.0266
     24 H1        -11.2256   -4.1009   -5.8158 H         1 <0>         0.0889
     25 C22       -10.3133   -5.2340   -7.4197 C.3       1 <0>        -0.1741
     26 C23       -11.6520   -5.7917   -7.8297 C.2       1 <0>         0.4909
     27 O3        -12.6784   -5.2677   -7.4319 O.co2     1 <0>        -0.6953
     28 O4        -11.7085   -6.7670   -8.5592 O.co2     1 <0>        -0.7082
     29 C24         2.9597   -3.6279   -0.2966 C.2       1 <0>         0.2318
     30 N1          4.0557   -3.0293    0.1313 N.2       1 <0>        -0.4890
     31 C25         5.0560   -3.8063    0.7470 C.3       1 <0>         0.0253
     32 C26         6.3064   -3.3149    1.3711 C.3       1 <0>        -0.0701
     33 C27         6.5404   -4.0687    2.6943 C.3       1 <0>        -0.1221
     34 C28         6.5405   -5.5740    2.4223 C.3       1 <0>        -0.1206
     35 C29         5.1937   -6.0195    1.8464 C.3       1 <0>        -0.1040
     36 C30         4.9718   -5.3198    0.5014 C.3       1 <0>        -0.0361
     37 S1          3.1679   -5.3602    0.0992 S.3       1 <0>        -0.2363
     38 H2          0.9909    3.0312   -1.2544 H         1 <0>         0.0529
     39 H3         -0.5510    2.8703   -2.1291 H         1 <0>         0.0556
     40 H4         -0.5503    3.1745   -0.3753 H         1 <0>         0.0537
     41 H5          0.4906    0.9570    0.0089 H         1 <0>         0.0599
     42 H6         -1.0512    0.7961   -0.8659 H         1 <0>         0.0648
     43 H7          0.1817    0.6510   -3.0124 H         1 <0>         0.0787
     44 H8          1.7235    0.8119   -2.1376 H         1 <0>         0.0717
     45 H9          2.6338   -1.0166   -0.8988 H         1 <0>         0.1406
     46 H10         0.7087   -4.8391   -1.1659 H         1 <0>         0.1324
     47 H11        -1.2186   -3.7850   -2.2680 H         1 <0>         0.1375
     48 H12        -2.1757   -2.8479   -3.8659 H         1 <0>         0.0697
     49 H13        -2.9276   -2.5760   -2.2756 H         1 <0>         0.0695
     50 H14        -3.9908   -0.5061   -3.1323 H         1 <0>         0.0865
     51 H15        -3.2389   -0.7781   -4.7226 H         1 <0>         0.0866
     52 H16        -4.4389   -2.9390   -4.9204 H         1 <0>         0.0645
     53 H17        -5.1908   -2.6670   -3.3301 H         1 <0>         0.0642
     54 H18        -6.2279   -3.9859   -4.5800 H         1 <0>         0.1233
     55 H19        -8.2387   -5.1890   -5.3245 H         1 <0>         0.1224
     56 H20        -7.9014   -0.3242   -6.0081 H         1 <0>         0.1240
     57 H21       -11.0139   -1.0867   -6.2460 H         1 <0>         0.0793
     58 H22       -10.0919   -0.8636   -7.7634 H         1 <0>         0.0708
     59 H23       -12.1126   -2.7359   -7.5150 H         1 <0>         0.0854
     60 H24       -10.6957   -2.9885   -8.5882 H         1 <0>         0.0643
     61 H25        -9.7184   -5.0264   -8.3092 H         1 <0>         0.0567
     62 H26        -9.7927   -5.9605   -6.7958 H         1 <0>         0.0557
     63 H27         4.5273   -3.8897    1.6966 H         1 <0>         0.0618
     64 H28         7.1444   -3.4930    0.6972 H         1 <0>         0.0719
     65 H29         6.2186   -2.2469    1.5707 H         1 <0>         0.0832
     66 H30         7.5016   -3.7747    3.1158 H         1 <0>         0.0803
     67 H31         5.7438   -3.8258    3.3975 H         1 <0>         0.0665
     68 H32         7.3313   -5.8102    1.7104 H         1 <0>         0.0706
     69 H33         6.7264   -6.1073    3.3546 H         1 <0>         0.0749
     70 H34         5.1990   -7.0995    1.6993 H         1 <0>         0.0811
     71 H35         4.3942   -5.7474    2.5355 H         1 <0>         0.0797
     72 H36         5.6257   -5.6812   -0.2924 H         1 <0>         0.1193
@<TRIPOS>BOND
     1    1    2 1
     2    1   38 1
     3    1   39 1
     4    1   40 1
     5    2    3 1
     6    2   41 1
     7    2   42 1
     8    3    4 1
     9    3   43 1
    10    3   44 1
    11    4    9 ar
    12    4    5 ar
    13    5    6 ar
    14    5   45 1
    15    6    7 ar
    16    6   29 1
    17    7    8 ar
    18    7   46 1
    19    8    9 ar
    20    8   47 1
    21    9   10 1
    22   10   11 1
    23   11   12 1
    24   11   48 1
    25   11   49 1
    26   12   13 1
    27   12   50 1
    28   12   51 1
    29   13   14 1
    30   13   52 1
    31   13   53 1
    32   14   15 1
    33   15   20 ar
    34   15   16 ar
    35   16   17 ar
    36   16   54 1
    37   17   18 ar
    38   17   55 1
    39   18   23 1
    40   18   19 ar
    41   19   20 ar
    42   19   21 1
    43   20   56 1
    44   21   22 1
    45   21   57 1
    46   21   58 1
    47   22   23 1
    48   22   59 1
    49   22   60 1
    50   23   24 1
    51   23   25 1
    52   25   26 1
    53   25   61 1
    54   25   62 1
    55   26   27 2
    56   26   28 1
    57   29   37 1
    58   29   30 2
    59   30   31 1
    60   31   36 1
    61   31   32 1
    62   31   63 1
    63   32   33 1
    64   32   64 1
    65   32   65 1
    66   33   34 1
    67   33   66 1
    68   33   67 1
    69   34   35 1
    70   34   68 1
    71   34   69 1
    72   35   36 1
    73   35   70 1
    74   35   71 1
    75   36   37 1
    76   36   72 1
@<TRIPOS>MOLECULE
CHEMBL219847__2
   72    76     0     0     0
SMALL
USER_CHARGES

@<TRIPOS>ATOM
      1 C1         -0.0347    2.6674   -1.1909 C.3       1 <0>        -0.1521
      2 C2         -0.0257    1.1599   -0.9294 C.3       1 <0>        -0.1174
      3 C3          0.6980    0.4480   -2.0741 C.3       1 <0>        -0.0709
      4 C4          0.7069   -1.0368   -1.8166 C.ar      1 <0>        -0.1168
      5 C5          1.7907   -1.6216   -1.1981 C.ar      1 <0>        -0.0291
      6 C6          1.7979   -2.9965   -0.9597 C.ar      1 <0>        -0.0678
      7 C7          0.7063   -3.7747   -1.3487 C.ar      1 <0>        -0.0441
      8 C8         -0.3739   -3.1835   -1.9664 C.ar      1 <0>        -0.2079
      9 C9         -0.3799   -1.8134   -2.1976 C.ar      1 <0>         0.1587
     10 O1         -1.4483   -1.2331   -2.8020 O.3       1 <0>        -0.3018
     11 C10        -2.5316   -2.0904   -3.1675 C.3       1 <0>         0.0608
     12 C11        -3.6350   -1.2636   -3.8306 C.3       1 <0>        -0.1182
     13 C12        -4.7948   -2.1815   -4.2220 C.3       1 <0>         0.0656
     14 O2         -5.8254   -1.4092   -4.8414 O.3       1 <0>        -0.3151
     15 C13        -6.9351   -2.0777   -5.2518 C.ar      1 <0>         0.1141
     16 C14        -7.0335   -3.4480   -5.0575 C.ar      1 <0>        -0.2081
     17 C15        -8.1625   -4.1223   -5.4760 C.ar      1 <0>        -0.0704
     18 C16        -9.1984   -3.4372   -6.0899 C.ar      1 <0>        -0.1078
     19 C17        -9.1027   -2.0717   -6.2847 C.ar      1 <0>        -0.0611
     20 C18        -7.9743   -1.3916   -5.8604 C.ar      1 <0>        -0.1401
     21 C19       -10.3533   -1.5637   -6.9699 C.3       1 <0>        -0.0828
     22 C20       -11.0268   -2.8191   -7.5636 C.3       1 <0>        -0.1019
     23 C21       -10.5201   -3.9395   -6.6309 C.3       1 <0>        -0.0266
     24 H1        -11.2256   -4.1009   -5.8158 H         1 <0>         0.0889
     25 C22       -10.3133   -5.2340   -7.4197 C.3       1 <0>        -0.1741
     26 C23       -11.6520   -5.7917   -7.8297 C.2       1 <0>         0.4909
     27 O3        -12.6784   -5.2677   -7.4319 O.co2     1 <0>        -0.6952
     28 O4        -11.7085   -6.7670   -8.5592 O.co2     1 <0>        -0.7082
     29 C24         2.9597   -3.6279   -0.2966 C.2       1 <0>         0.2245
     30 N1          4.0534   -3.0299    0.1303 N.2       1 <0>        -0.4834
     31 C25         5.0548   -3.8001    0.7570 C.3       1 <0>         0.0156
     32 C26         6.4248   -3.3497    1.0818 C.3       1 <0>        -0.0650
     33 C27         7.4561   -4.3960    0.6293 C.3       1 <0>        -0.1234
     34 C28         7.0811   -5.7548    1.2269 C.3       1 <0>        -0.1211
     35 C29         5.7129   -6.1945    0.6963 C.3       1 <0>        -0.1063
     36 C30         4.6459   -5.2098    1.1954 C.3       1 <0>        -0.0300
     37 S1          3.1671   -5.3593    0.0986 S.3       1 <0>        -0.2359
     38 H2          0.9909    3.0312   -1.2544 H         1 <0>         0.0528
     39 H3         -0.5510    2.8703   -2.1291 H         1 <0>         0.0556
     40 H4         -0.5503    3.1745   -0.3753 H         1 <0>         0.0538
     41 H5          0.4906    0.9570    0.0089 H         1 <0>         0.0600
     42 H6         -1.0512    0.7961   -0.8659 H         1 <0>         0.0649
     43 H7          0.1817    0.6510   -3.0124 H         1 <0>         0.0787
     44 H8          1.7235    0.8119   -2.1376 H         1 <0>         0.0716
     45 H9          2.6338   -1.0166   -0.8988 H         1 <0>         0.1404
     46 H10         0.7087   -4.8391   -1.1659 H         1 <0>         0.1321
     47 H11        -1.2186   -3.7850   -2.2680 H         1 <0>         0.1374
     48 H12        -2.1757   -2.8479   -3.8659 H         1 <0>         0.0695
     49 H13        -2.9276   -2.5760   -2.2756 H         1 <0>         0.0695
     50 H14        -3.9908   -0.5061   -3.1323 H         1 <0>         0.0865
     51 H15        -3.2389   -0.7781   -4.7226 H         1 <0>         0.0866
     52 H16        -4.4389   -2.9390   -4.9204 H         1 <0>         0.0644
     53 H17        -5.1908   -2.6670   -3.3301 H         1 <0>         0.0642
     54 H18        -6.2279   -3.9859   -4.5800 H         1 <0>         0.1233
     55 H19        -8.2387   -5.1890   -5.3245 H         1 <0>         0.1224
     56 H20        -7.9014   -0.3242   -6.0081 H         1 <0>         0.1240
     57 H21       -11.0139   -1.0867   -6.2460 H         1 <0>         0.0794
     58 H22       -10.0919   -0.8636   -7.7634 H         1 <0>         0.0708
     59 H23       -12.1126   -2.7359   -7.5150 H         1 <0>         0.0854
     60 H24       -10.6957   -2.9885   -8.5882 H         1 <0>         0.0643
     61 H25        -9.7184   -5.0264   -8.3092 H         1 <0>         0.0567
     62 H26        -9.7927   -5.9605   -6.7958 H         1 <0>         0.0557
     63 H27         5.3893   -4.2025   -0.1992 H         1 <0>         0.0617
     64 H28         6.6233   -2.4054    0.5748 H         1 <0>         0.0834
     65 H29         6.5099   -3.2020    2.1584 H         1 <0>         0.0713
     66 H30         7.4547   -4.4629   -0.4586 H         1 <0>         0.0666
     67 H31         8.4474   -4.1054    0.9773 H         1 <0>         0.0816
     68 H32         7.8325   -6.4934    0.9477 H         1 <0>         0.0756
     69 H33         7.0396   -5.6741    2.3131 H         1 <0>         0.0721
     70 H34         5.7272   -6.1956   -0.3936 H         1 <0>         0.0800
     71 H35         5.4845   -7.1960    1.0610 H         1 <0>         0.0820
     72 H36         4.4293   -5.3015    2.2597 H         1 <0>         0.1197
@<TRIPOS>BOND
     1    1    2 1
     2    1   38 1
     3    1   39 1
     4    1   40 1
     5    2    3 1
     6    2   41 1
     7    2   42 1
     8    3    4 1
     9    3   43 1
    10    3   44 1
    11    4    9 ar
    12    4    5 ar
    13    5    6 ar
    14    5   45 1
    15    6    7 ar
    16    6   29 1
    17    7    8 ar
    18    7   46 1
    19    8    9 ar
    20    8   47 1
    21    9   10 1
    22   10   11 1
    23   11   12 1
    24   11   48 1
    25   11   49 1
    26   12   13 1
    27   12   50 1
    28   12   51 1
    29   13   14 1
    30   13   52 1
    31   13   53 1
    32   14   15 1
    33   15   20 ar
    34   15   16 ar
    35   16   17 ar
    36   16   54 1
    37   17   18 ar
    38   17   55 1
    39   18   23 1
    40   18   19 ar
    41   19   20 ar
    42   19   21 1
    43   20   56 1
    44   21   22 1
    45   21   57 1
    46   21   58 1
    47   22   23 1
    48   22   59 1
    49   22   60 1
    50   23   24 1
    51   23   25 1
    52   25   26 1
    53   25   61 1
    54   25   62 1
    55   26   27 2
    56   26   28 1
    57   29   37 1
    58   29   30 2
    59   30   31 1
    60   31   36 1
    61   31   32 1
    62   31   63 1
    63   32   33 1
    64   32   64 1
    65   32   65 1
    66   33   34 1
    67   33   66 1
    68   33   67 1
    69   34   35 1
    70   34   68 1
    71   34   69 1
    72   35   36 1
    73   35   70 1
    74   35   71 1
    75   36   37 1
    76   36   72 1
@<TRIPOS>MOLECULE
CHEMBL219847__3
   72    76     0     0     0
SMALL
USER_CHARGES

@<TRIPOS>ATOM
      1 C1         -0.0347    2.6674   -1.1909 C.3       1 <0>        -0.1522
      2 C2         -0.0257    1.1599   -0.9294 C.3       1 <0>        -0.1172
      3 C3          0.6980    0.4480   -2.0741 C.3       1 <0>        -0.0709
      4 C4          0.7069   -1.0368   -1.8166 C.ar      1 <0>        -0.1184
      5 C5          1.7907   -1.6216   -1.1981 C.ar      1 <0>        -0.0250
      6 C6          1.7979   -2.9965   -0.9597 C.ar      1 <0>        -0.0774
      7 C7          0.7063   -3.7747   -1.3487 C.ar      1 <0>        -0.0408
      8 C8         -0.3739   -3.1835   -1.9664 C.ar      1 <0>        -0.2096
      9 C9         -0.3799   -1.8134   -2.1976 C.ar      1 <0>         0.1615
     10 O1         -1.4483   -1.2331   -2.8020 O.3       1 <0>        -0.3016
     11 C10        -2.5316   -2.0904   -3.1675 C.3       1 <0>         0.0606
     12 C11        -3.6350   -1.2636   -3.8306 C.3       1 <0>        -0.1182
     13 C12        -4.7948   -2.1815   -4.2220 C.3       1 <0>         0.0655
     14 O2         -5.8254   -1.4092   -4.8414 O.3       1 <0>        -0.3151
     15 C13        -6.9351   -2.0777   -5.2518 C.ar      1 <0>         0.1140
     16 C14        -7.0335   -3.4480   -5.0575 C.ar      1 <0>        -0.2081
     17 C15        -8.1625   -4.1223   -5.4760 C.ar      1 <0>        -0.0703
     18 C16        -9.1984   -3.4372   -6.0899 C.ar      1 <0>        -0.1078
     19 C17        -9.1027   -2.0717   -6.2847 C.ar      1 <0>        -0.0611
     20 C18        -7.9743   -1.3916   -5.8604 C.ar      1 <0>        -0.1401
     21 C19       -10.3533   -1.5637   -6.9699 C.3       1 <0>        -0.0828
     22 C20       -11.0268   -2.8191   -7.5636 C.3       1 <0>        -0.1019
     23 C21       -10.5201   -3.9395   -6.6309 C.3       1 <0>        -0.0267
     24 H1        -11.2256   -4.1009   -5.8158 H         1 <0>         0.0889
     25 C22       -10.3133   -5.2340   -7.4197 C.3       1 <0>        -0.1740
     26 C23       -11.6520   -5.7917   -7.8297 C.2       1 <0>         0.4909
     27 O3        -12.6784   -5.2677   -7.4319 O.co2     1 <0>        -0.6952
     28 O4        -11.7085   -6.7670   -8.5592 O.co2     1 <0>        -0.7082
     29 C24         2.9597   -3.6279   -0.2966 C.2       1 <0>         0.2635
     30 N1          4.0453   -3.0380    0.1278 N.2       1 <0>        -0.5190
     31 C25         5.1083   -3.8077    0.7404 C.3       1 <0>         0.0698
     32 C26         5.9071   -3.0235    1.7488 C.3       1 <0>        -0.0941
     33 C27         5.2518   -3.0152    3.1252 C.3       1 <0>        -0.1213
     34 C28         5.0738   -4.4616    3.5951 C.3       1 <0>        -0.1157
     35 C29         4.1176   -5.1756    2.6487 C.3       1 <0>        -0.1109
     36 C30         4.6283   -5.1803    1.2203 C.3       1 <0>        -0.0420
     37 S1          3.1711   -5.3567    0.1001 S.3       1 <0>        -0.2501
     38 H2          0.9909    3.0312   -1.2544 H         1 <0>         0.0529
     39 H3         -0.5510    2.8703   -2.1291 H         1 <0>         0.0556
     40 H4         -0.5503    3.1745   -0.3753 H         1 <0>         0.0538
     41 H5          0.4906    0.9570    0.0089 H         1 <0>         0.0599
     42 H6         -1.0512    0.7961   -0.8659 H         1 <0>         0.0648
     43 H7          0.1817    0.6510   -3.0124 H         1 <0>         0.0787
     44 H8          1.7235    0.8119   -2.1376 H         1 <0>         0.0717
     45 H9          2.6338   -1.0166   -0.8988 H         1 <0>         0.1410
     46 H10         0.7087   -4.8391   -1.1659 H         1 <0>         0.1326
     47 H11        -1.2186   -3.7850   -2.2680 H         1 <0>         0.1377
     48 H12        -2.1757   -2.8479   -3.8659 H         1 <0>         0.0698
     49 H13        -2.9276   -2.5760   -2.2756 H         1 <0>         0.0697
     50 H14        -3.9908   -0.5061   -3.1323 H         1 <0>         0.0866
     51 H15        -3.2389   -0.7781   -4.7226 H         1 <0>         0.0867
     52 H16        -4.4389   -2.9390   -4.9204 H         1 <0>         0.0645
     53 H17        -5.1908   -2.6670   -3.3301 H         1 <0>         0.0642
     54 H18        -6.2279   -3.9859   -4.5800 H         1 <0>         0.1233
     55 H19        -8.2387   -5.1890   -5.3245 H         1 <0>         0.1224
     56 H20        -7.9014   -0.3242   -6.0081 H         1 <0>         0.1240
     57 H21       -11.0139   -1.0867   -6.2460 H         1 <0>         0.0794
     58 H22       -10.0919   -0.8636   -7.7634 H         1 <0>         0.0708
     59 H23       -12.1126   -2.7359   -7.5150 H         1 <0>         0.0854
     60 H24       -10.6957   -2.9885   -8.5882 H         1 <0>         0.0643
     61 H25        -9.7184   -5.0264   -8.3092 H         1 <0>         0.0566
     62 H26        -9.7927   -5.9605   -6.7958 H         1 <0>         0.0557
     63 H27         5.8127   -4.0145   -0.0653 H         1 <0>         0.0857
     64 H28         6.9003   -3.4644    1.8329 H         1 <0>         0.0741
     65 H29         6.0069   -1.9960    1.3987 H         1 <0>         0.0798
     66 H30         5.8873   -2.4779    3.8292 H         1 <0>         0.0698
     67 H31         4.2784   -2.5286    3.0636 H         1 <0>         0.0645
     68 H32         6.0389   -4.9683    3.5895 H         1 <0>         0.0667
     69 H33         4.6619   -4.4693    4.6042 H         1 <0>         0.0715
     70 H34         3.9912   -6.2053    2.9831 H         1 <0>         0.0746
     71 H35         3.1503   -4.6742    2.6775 H         1 <0>         0.0718
     72 H36         5.3799   -5.9537    1.0621 H         1 <0>         0.1302
@<TRIPOS>BOND
     1    1    2 1
     2    1   38 1
     3    1   39 1
     4    1   40 1
     5    2    3 1
     6    2   41 1
     7    2   42 1
     8    3    4 1
     9    3   43 1
    10    3   44 1
    11    4    9 ar
    12    4    5 ar
    13    5    6 ar
    14    5   45 1
    15    6    7 ar
    16    6   29 1
    17    7    8 ar
    18    7   46 1
    19    8    9 ar
    20    8   47 1
    21    9   10 1
    22   10   11 1
    23   11   12 1
    24   11   48 1
    25   11   49 1
    26   12   13 1
    27   12   50 1
    28   12   51 1
    29   13   14 1
    30   13   52 1
    31   13   53 1
    32   14   15 1
    33   15   20 ar
    34   15   16 ar
    35   16   17 ar
    36   16   54 1
    37   17   18 ar
    38   17   55 1
    39   18   23 1
    40   18   19 ar
    41   19   20 ar
    42   19   21 1
    43   20   56 1
    44   21   22 1
    45   21   57 1
    46   21   58 1
    47   22   23 1
    48   22   59 1
    49   22   60 1
    50   23   24 1
    51   23   25 1
    52   25   26 1
    53   25   61 1
    54   25   62 1
    55   26   27 2
    56   26   28 1
    57   29   37 1
    58   29   30 2
    59   30   31 1
    60   31   36 1
    61   31   32 1
    62   31   63 1
    63   32   33 1
    64   32   64 1
    65   32   65 1
    66   33   34 1
    67   33   66 1
    68   33   67 1
    69   34   35 1
    70   34   68 1
    71   34   69 1
    72   35   36 1
    73   35   70 1
    74   35   71 1
    75   36   37 1
    76   36   72 1
@<TRIPOS>MOLECULE
CHEMBL574607
   50    52     0     0     0
SMALL
USER_CHARGES

@<TRIPOS>ATOM
      1 C1         -1.0603    1.4665    1.4277 C.ar      1 <0>        -0.1289
      2 C2          0.0633    2.2697    1.3699 C.ar      1 <0>        -0.1185
      3 C3          1.3037    1.7072    1.1337 C.ar      1 <0>        -0.1178
      4 C4          1.4206    0.3413    0.9557 C.ar      1 <0>        -0.0771
      5 C5          0.2972   -0.4621    1.0144 C.ar      1 <0>        -0.1187
      6 C6         -0.9434    0.1007    1.2492 C.ar      1 <0>        -0.1195
      7 C7          2.7727   -0.2719    0.6972 C.3       1 <0>        -0.0818
      8 C8          3.4254   -0.6476    2.0291 C.3       1 <0>        -0.1093
      9 C9          4.7981   -1.2701    1.7667 C.3       1 <0>        -0.0662
     10 C10         5.4410   -1.6402    3.0785 C.ar      1 <0>        -0.1441
     11 C11         6.2344   -0.7223    3.7415 C.ar      1 <0>        -0.0752
     12 C12         6.8251   -1.0592    4.9439 C.ar      1 <0>        -0.1986
     13 C13         6.6214   -2.3197    5.4864 C.ar      1 <0>         0.1666
     14 C14         5.8245   -3.2388    4.8194 C.ar      1 <0>        -0.1647
     15 C15         5.2317   -2.8952    3.6198 C.ar      1 <0>        -0.0805
     16 O1          7.2018   -2.6538    6.6689 O.3       1 <0>        -0.2917
     17 C16         8.1030   -1.7035    7.2405 C.3       1 <0>         0.0246
     18 C17         9.0865   -2.4250    8.1642 C.3       1 <0>        -0.0639
     19 C18         9.9501   -3.3543    7.3509 C.ar      1 <0>        -0.0692
     20 C19         9.5476   -4.6587    7.1334 C.ar      1 <0>        -0.1031
     21 C20        10.3398   -5.5112    6.3873 C.ar      1 <0>        -0.1228
     22 C21        11.5343   -5.0592    5.8584 C.ar      1 <0>        -0.1333
     23 C22        11.9364   -3.7545    6.0752 C.ar      1 <0>        -0.1232
     24 C23        11.1421   -2.9008    6.8177 C.ar      1 <0>        -0.1199
     25 C24         7.3238   -0.6858    8.0331 C.2       1 <0>         0.4807
     26 O2          6.1204   -0.8174    8.1781 O.co2     1 <0>        -0.6702
     27 O3          7.8968    0.2692    8.5292 O.co2     1 <0>        -0.6909
     28 H1         -2.0288    1.9054    1.6167 H         1 <0>         0.1187
     29 H2         -0.0281    3.3368    1.5089 H         1 <0>         0.1201
     30 H3          2.1814    2.3348    1.0878 H         1 <0>         0.1211
     31 H4          0.3885   -1.5291    0.8750 H         1 <0>         0.1205
     32 H5         -1.8212   -0.5269    1.2947 H         1 <0>         0.1196
     33 H6          2.6552   -1.1661    0.0852 H         1 <0>         0.0710
     34 H7          3.4034    0.4466    0.1735 H         1 <0>         0.0712
     35 H8          3.5429    0.2466    2.6411 H         1 <0>         0.0657
     36 H9          2.7948   -1.3660    2.5528 H         1 <0>         0.0649
     37 H10         4.6806   -2.1644    1.1546 H         1 <0>         0.0655
     38 H11         5.4288   -0.5517    1.2429 H         1 <0>         0.0655
     39 H12         6.3927    0.2589    3.3188 H         1 <0>         0.1155
     40 H13         7.4454   -0.3421    5.4611 H         1 <0>         0.1252
     41 H14         5.6643   -4.2207    5.2396 H         1 <0>         0.1224
     42 H15         4.6077   -3.6088    3.1023 H         1 <0>         0.1187
     43 H16         8.6535   -1.2008    6.4453 H         1 <0>         0.0654
     44 H17         9.7162   -1.6918    8.6683 H         1 <0>         0.0956
     45 H18         8.5328   -2.9999    8.9065 H         1 <0>         0.0781
     46 H19         8.6144   -5.0119    7.5466 H         1 <0>         0.1225
     47 H20        10.0256   -6.5306    6.2179 H         1 <0>         0.1169
     48 H21        12.1535   -5.7254    5.2762 H         1 <0>         0.1151
     49 H22        12.8698   -3.4014    5.6623 H         1 <0>         0.1169
     50 H23        11.4545   -1.8804    6.9839 H         1 <0>         0.1211
@<TRIPOS>BOND
     1    1    6 ar
     2    1    2 ar
     3    1   28 1
     4    2    3 ar
     5    2   29 1
     6    3    4 ar
     7    3   30 1
     8    4    5 ar
     9    4    7 1
    10    5    6 ar
    11    5   31 1
    12    6   32 1
    13    7    8 1
    14    7   33 1
    15    7   34 1
    16    8    9 1
    17    8   35 1
    18    8   36 1
    19    9   10 1
    20    9   37 1
    21    9   38 1
    22   10   15 ar
    23   10   11 ar
    24   11   12 ar
    25   11   39 1
    26   12   13 ar
    27   12   40 1
    28   13   14 ar
    29   13   16 1
    30   14   15 ar
    31   14   41 1
    32   15   42 1
    33   16   17 1
    34   17   18 1
    35   17   25 1
    36   17   43 1
    37   18   19 1
    38   18   44 1
    39   18   45 1
    40   19   24 ar
    41   19   20 ar
    42   20   21 ar
    43   20   46 1
    44   21   22 ar
    45   21   47 1
    46   22   23 ar
    47   22   48 1
    48   23   24 ar
    49   23   49 1
    50   24   50 1
    51   25   26 2
    52   25   27 1
@<TRIPOS>MOLECULE
CHEMBL574607__1
   50    52     0     0     0
SMALL
USER_CHARGES

@<TRIPOS>ATOM
      1 C1          0.5790    2.1954   -0.0641 C.ar      1 <0>        -0.1294
      2 C2          1.8700    2.6839   -0.1399 C.ar      1 <0>        -0.1189
      3 C3          2.9409    1.8098   -0.1403 C.ar      1 <0>        -0.1184
      4 C4          2.7208    0.4472   -0.0644 C.ar      1 <0>        -0.0762
      5 C5          1.4300   -0.0413    0.0122 C.ar      1 <0>        -0.1188
      6 C6          0.3590    0.8328    0.0112 C.ar      1 <0>        -0.1194
      7 C7          3.8883   -0.5058   -0.0659 C.3       1 <0>        -0.0833
      8 C8          4.3427   -0.7578    1.3732 C.3       1 <0>        -0.1068
      9 C9          5.5279   -1.7253    1.3717 C.3       1 <0>        -0.0678
     10 C10         5.9755   -1.9735    2.7892 C.ar      1 <0>        -0.1437
     11 C11         6.9324   -1.1574    3.3636 C.ar      1 <0>        -0.0752
     12 C12         7.3447   -1.3831    4.6627 C.ar      1 <0>        -0.1987
     13 C13         6.7975   -2.4294    5.3910 C.ar      1 <0>         0.1664
     14 C14         5.8372   -3.2465    4.8124 C.ar      1 <0>        -0.1645
     15 C15         5.4245   -3.0134    3.5148 C.ar      1 <0>        -0.0806
     16 O1          7.2018   -2.6538    6.6689 O.3       1 <0>        -0.2916
     17 C16         8.1030   -1.7035    7.2405 C.3       1 <0>         0.0246
     18 C17         7.9737   -1.7308    8.7648 C.3       1 <0>        -0.0639
     19 C18         6.5970   -1.2628    9.1606 C.ar      1 <0>        -0.0692
     20 C19         6.3632    0.0801    9.3907 C.ar      1 <0>        -0.1198
     21 C20         5.1004    0.5095    9.7538 C.ar      1 <0>        -0.1231
     22 C21         4.0713   -0.4040    9.8863 C.ar      1 <0>        -0.1332
     23 C22         4.3049   -1.7467    9.6554 C.ar      1 <0>        -0.1228
     24 C23         5.5667   -2.1755    9.2881 C.ar      1 <0>        -0.1031
     25 C24         9.5159   -2.0531    6.8499 C.2       1 <0>         0.4809
     26 O2         10.4347   -1.3138    7.1595 O.co2     1 <0>        -0.6910
     27 O3          9.7402   -3.0753    6.2244 O.co2     1 <0>        -0.6705
     28 H1         -0.2574    2.8785   -0.0592 H         1 <0>         0.1185
     29 H2          2.0418    3.7485   -0.1991 H         1 <0>         0.1198
     30 H3          3.9494    2.1915   -0.2002 H         1 <0>         0.1212
     31 H4          1.2580   -1.1059    0.0711 H         1 <0>         0.1208
     32 H5         -0.6496    0.4511    0.0707 H         1 <0>         0.1196
     33 H6          3.5870   -1.4487   -0.5222 H         1 <0>         0.0718
     34 H7          4.7102   -0.0726   -0.6359 H         1 <0>         0.0721
     35 H8          4.6440    0.1852    1.8295 H         1 <0>         0.0639
     36 H9          3.5208   -1.1910    1.9432 H         1 <0>         0.0638
     37 H10         5.2266   -2.6682    0.9155 H         1 <0>         0.0664
     38 H11         6.3499   -1.2921    0.8017 H         1 <0>         0.0666
     39 H12         7.3581   -0.3430    2.7962 H         1 <0>         0.1155
     40 H13         8.0927   -0.7458    5.1107 H         1 <0>         0.1252
     41 H14         5.4097   -4.0617    5.3774 H         1 <0>         0.1225
     42 H15         4.6737   -3.6465    3.0655 H         1 <0>         0.1187
     43 H16         7.8607   -0.7063    6.8732 H         1 <0>         0.0654
     44 H17         8.1290   -2.7480    9.1245 H         1 <0>         0.0781
     45 H18         8.7221   -1.0717    9.2048 H         1 <0>         0.0956
     46 H19         7.1672    0.7937    9.2872 H         1 <0>         0.1210
     47 H20         4.9178    1.5585    9.9343 H         1 <0>         0.1169
     48 H21         3.0848   -0.0686   10.1707 H         1 <0>         0.1150
     49 H22         3.5010   -2.4604    9.7592 H         1 <0>         0.1169
     50 H23         5.7484   -3.2241    9.1040 H         1 <0>         0.1225
@<TRIPOS>BOND
     1    1    6 ar
     2    1    2 ar
     3    1   28 1
     4    2    3 ar
     5    2   29 1
     6    3    4 ar
     7    3   30 1
     8    4    5 ar
     9    4    7 1
    10    5    6 ar
    11    5   31 1
    12    6   32 1
    13    7    8 1
    14    7   33 1
    15    7   34 1
    16    8    9 1
    17    8   35 1
    18    8   36 1
    19    9   10 1
    20    9   37 1
    21    9   38 1
    22   10   15 ar
    23   10   11 ar
    24   11   12 ar
    25   11   39 1
    26   12   13 ar
    27   12   40 1
    28   13   14 ar
    29   13   16 1
    30   14   15 ar
    31   14   41 1
    32   15   42 1
    33   16   17 1
    34   17   18 1
    35   17   25 1
    36   17   43 1
    37   18   19 1
    38   18   44 1
    39   18   45 1
    40   19   24 ar
    41   19   20 ar
    42   20   21 ar
    43   20   46 1
    44   21   22 ar
    45   21   47 1
    46   22   23 ar
    47   22   48 1
    48   23   24 ar
    49   23   49 1
    50   24   50 1
    51   25   26 2
    52   25   27 1
@<TRIPOS>MOLECULE
CHEMBL256569
   68    71     0     0     0
SMALL
USER_CHARGES

@<TRIPOS>ATOM
      1 C1          1.2891    0.5173   -1.3747 C.3       1 <0>        -0.1485
      2 C2          0.8960   -0.9568   -1.2585 C.3       1 <0>        -0.1234
      3 C3         -0.5407   -1.0623   -0.7432 C.3       1 <0>         0.0840
      4 O1         -0.9079   -2.4390   -0.6346 O.3       1 <0>        -0.3654
      5 C4         -2.1509   -2.7070   -0.1919 C.2       1 <0>         0.6532
      6 O2         -2.9032   -1.7969    0.0945 O.2       1 <0>        -0.5746
      7 N1         -2.5605   -3.9849   -0.0663 N.am      1 <0>        -0.5881
      8 C5         -1.6707   -5.1105   -0.3992 C.3       1 <0>         0.1134
      9 C6         -1.4399   -5.9240    0.8768 C.3       1 <0>        -0.0884
     10 C7         -2.7378   -6.1527    1.5931 C.2       1 <0>        -0.1280
     11 C8         -3.8296   -5.4403    1.3973 C.2       1 <0>        -0.1629
     12 C9         -3.9109   -4.3106    0.4141 C.3       1 <0>         0.1779
     13 C10        -5.0569   -5.7758    2.2050 C.3       1 <0>        -0.0407
     14 C11        -5.1333   -4.8660    3.4040 C.ar      1 <0>        -0.0318
     15 C12        -4.5274   -5.2352    4.5910 C.ar      1 <0>        -0.1307
     16 C13        -4.5956   -4.4028    5.6927 C.ar      1 <0>        -0.0858
     17 C14        -5.2702   -3.1998    5.6104 C.ar      1 <0>        -0.2168
     18 C15        -5.8788   -2.8273    4.4209 C.ar      1 <0>         0.1159
     19 C16        -5.8036   -3.6617    3.3148 C.ar      1 <0>        -0.1481
     20 O3         -6.5428   -1.6445    4.3374 O.3       1 <0>        -0.3166
     21 C17        -6.5744   -0.8338    5.5137 C.3       1 <0>         0.0700
     22 C18        -7.3605    0.4476    5.2290 C.3       1 <0>        -0.0353
     23 C19        -7.3937    1.3026    6.4695 C.2       1 <0>        -0.0041
     24 C20        -8.3252    1.2559    7.4393 C.2       1 <0>        -0.0335
     25 O4         -7.9882    2.1781    8.3626 O.3       1 <0>        -0.1940
     26 C21        -6.8579    2.7766    7.9487 C.2       1 <0>         0.2274
     27 N2         -6.4967    2.2417    6.8062 N.2       1 <0>        -0.4577
     28 C22        -6.1394    3.8528    8.6634 C.ar      1 <0>        -0.0159
     29 C23        -4.9741    4.3973    8.1216 C.ar      1 <0>        -0.0707
     30 C24        -4.3087    5.4019    8.7934 C.ar      1 <0>        -0.1203
     31 C25        -4.7941    5.8695   10.0017 C.ar      1 <0>        -0.1019
     32 C26        -5.9487    5.3340   10.5443 C.ar      1 <0>        -0.1215
     33 C27        -6.6266    4.3328    9.8800 C.ar      1 <0>        -0.0910
     34 C28        -9.5231    0.3426    7.4844 C.3       1 <0>        -0.0717
     35 C29        -2.7961   -7.2406    2.5756 C.2       1 <0>         0.5252
     36 O5         -3.2628   -8.3266    2.2590 O.co2     1 <0>        -0.6892
     37 O6         -2.3780   -7.0620    3.7118 O.co2     1 <0>        -0.6823
     38 H1          2.3127    0.5925   -1.7418 H         1 <0>         0.0634
     39 H2          0.6161    1.0191   -2.0699 H         1 <0>         0.0574
     40 H3          1.2187    0.9904   -0.3953 H         1 <0>         0.0582
     41 H4          0.9664   -1.4299   -2.2379 H         1 <0>         0.0726
     42 H5          1.5691   -1.4586   -0.5633 H         1 <0>         0.0739
     43 H6         -0.6111   -0.5891    0.2362 H         1 <0>         0.0658
     44 H7         -1.2138   -0.5605   -1.4384 H         1 <0>         0.0650
     45 H8         -2.1388   -5.7386   -1.1571 H         1 <0>         0.0759
     46 H9         -0.7191   -4.7304   -0.7710 H         1 <0>         0.0908
     47 H10        -0.9977   -6.8856    0.6162 H         1 <0>         0.0832
     48 H11        -0.7574   -5.3821    1.5314 H         1 <0>         0.0767
     49 H12        -4.3456   -3.4366    0.8993 H         1 <0>         0.0963
     50 H13        -4.5351   -4.6090   -0.4281 H         1 <0>         0.0736
     51 H14        -5.9457   -5.6401    1.5888 H         1 <0>         0.0697
     52 H15        -5.0005   -6.8121    2.5382 H         1 <0>         0.1004
     53 H16        -4.0002   -6.1754    4.6576 H         1 <0>         0.1554
     54 H17        -4.1216   -4.6934    6.6186 H         1 <0>         0.1189
     55 H18        -5.3239   -2.5503    6.4715 H         1 <0>         0.1164
     56 H19        -6.2726   -3.3717    2.3862 H         1 <0>         0.1238
     57 H20        -7.0568   -1.3841    6.3215 H         1 <0>         0.0589
     58 H21        -5.5560   -0.5779    5.8060 H         1 <0>         0.0628
     59 H22        -6.8780    0.9979    4.4213 H         1 <0>         0.0947
     60 H23        -8.3789    0.1917    4.9367 H         1 <0>         0.0924
     61 H24        -4.5940    4.0329    7.1787 H         1 <0>         0.1393
     62 H25        -3.4066    5.8238    8.3755 H         1 <0>         0.1327
     63 H26        -4.2691    6.6558   10.5239 H         1 <0>         0.1281
     64 H27        -6.3221    5.7033   11.4880 H         1 <0>         0.1303
     65 H28        -7.5302    3.9187   10.3024 H         1 <0>         0.1299
     66 H29        -9.2558   -0.5822    7.9955 H         1 <0>         0.0884
     67 H30       -10.3342    0.8336    8.0221 H         1 <0>         0.0805
     68 H31        -9.8457    0.1160    6.4682 H         1 <0>         0.0967
@<TRIPOS>BOND
     1    1    2 1
     2    1   38 1
     3    1   39 1
     4    1   40 1
     5    2    3 1
     6    2   41 1
     7    2   42 1
     8    3    4 1
     9    3   43 1
    10    3   44 1
    11    4    5 1
    12    5    6 2
    13    5    7 am
    14    7   12 1
    15    7    8 1
    16    8    9 1
    17    8   45 1
    18    8   46 1
    19    9   10 1
    20    9   47 1
    21    9   48 1
    22   10   11 2
    23   10   35 1
    24   11   12 1
    25   11   13 1
    26   12   49 1
    27   12   50 1
    28   13   14 1
    29   13   51 1
    30   13   52 1
    31   14   19 ar
    32   14   15 ar
    33   15   16 ar
    34   15   53 1
    35   16   17 ar
    36   16   54 1
    37   17   18 ar
    38   17   55 1
    39   18   19 ar
    40   18   20 1
    41   19   56 1
    42   20   21 1
    43   21   22 1
    44   21   57 1
    45   21   58 1
    46   22   23 1
    47   22   59 1
    48   22   60 1
    49   23   27 1
    50   23   24 2
    51   24   25 1
    52   24   34 1
    53   25   26 1
    54   26   27 2
    55   26   28 1
    56   28   33 ar
    57   28   29 ar
    58   29   30 ar
    59   29   61 1
    60   30   31 ar
    61   30   62 1
    62   31   32 ar
    63   31   63 1
    64   32   33 ar
    65   32   64 1
    66   33   65 1
    67   34   66 1
    68   34   67 1
    69   34   68 1
    70   35   36 2
    71   35   37 1
@<TRIPOS>MOLECULE
CHEMBL572566
   45    47     0     0     0
SMALL
USER_CHARGES

@<TRIPOS>ATOM
      1 C1          7.3631   -4.6623    1.4092 C.ar      1 <0>        -0.1331
      2 C2          6.3358   -5.5849    1.3438 C.ar      1 <0>        -0.1230
      3 C3          5.0700   -5.1838    0.9595 C.ar      1 <0>        -0.1197
      4 C4          4.8313   -3.8600    0.6411 C.ar      1 <0>        -0.0700
      5 C5          5.8584   -2.9372    0.7074 C.ar      1 <0>        -0.1036
      6 C6          7.1245   -3.3385    1.0903 C.ar      1 <0>        -0.1226
      7 C7          3.4515   -3.4229    0.2213 C.3       1 <0>        -0.0638
      8 C8          2.6515   -3.0038    1.4562 C.3       1 <0>         0.0228
      9 C9          1.2352   -2.6841    1.0525 C.2       1 <0>         0.4806
     10 O1          0.5132   -3.5631    0.6136 O.co2     1 <0>        -0.6894
     11 O2          0.8113   -1.5465    1.1648 O.co2     1 <0>        -0.6691
     12 O3          3.2521   -1.8476    2.0431 O.3       1 <0>        -0.2883
     13 C10         3.0276   -1.6406    3.3673 C.ar      1 <0>         0.1827
     14 C11         3.6663   -0.6000    4.0260 C.ar      1 <0>        -0.1692
     15 C12         3.4360   -0.3913    5.3720 C.ar      1 <0>        -0.0569
     16 C13         2.5702   -1.2188    6.0629 C.ar      1 <0>        -0.1628
     17 C14         1.9327   -2.2569    5.4088 C.ar      1 <0>        -0.0516
     18 C15         2.1549   -2.4659    4.0615 C.ar      1 <0>        -0.2043
     19 C16         2.3212   -0.9893    7.5313 C.3       1 <0>         0.1157
     20 O4          1.2175   -0.0963    7.6934 O.3       1 <0>        -0.3064
     21 C17         0.8594    0.2174    8.9663 C.ar      1 <0>         0.1359
     22 C18         1.5597   -0.3186   10.0373 C.ar      1 <0>        -0.2136
     23 C19         1.1941    0.0021   11.3302 C.ar      1 <0>        -0.0814
     24 C20         0.1309    0.8563   11.5575 C.ar      1 <0>        -0.1666
     25 C21        -0.5690    1.3915   10.4919 C.ar      1 <0>        -0.0811
     26 C22        -0.2034    1.0787    9.1970 C.ar      1 <0>        -0.1552
     27 H1          8.3510   -4.9748    1.7137 H         1 <0>         0.1152
     28 H2          6.5223   -6.6192    1.5926 H         1 <0>         0.1171
     29 H3          4.2675   -5.9048    0.9078 H         1 <0>         0.1213
     30 H4          5.6720   -1.9030    0.4582 H         1 <0>         0.1228
     31 H5          7.9271   -2.6176    1.1417 H         1 <0>         0.1172
     32 H6          3.5306   -2.5790   -0.4641 H         1 <0>         0.0788
     33 H7          2.9445   -4.2493   -0.2769 H         1 <0>         0.0965
     34 H8          2.6477   -3.8185    2.1804 H         1 <0>         0.0670
     35 H9          4.3432    0.0462    3.4870 H         1 <0>         0.1275
     36 H10         3.9330    0.4186    5.8852 H         1 <0>         0.1227
     37 H11         1.2571   -2.9021    5.9507 H         1 <0>         0.1194
     38 H12         1.6533   -3.2742    3.5500 H         1 <0>         0.1297
     39 H13         2.0937   -1.9396    8.0142 H         1 <0>         0.0658
     40 H14         3.2107   -0.5540    7.9870 H         1 <0>         0.0660
     41 H15         2.3899   -0.9864    9.8603 H         1 <0>         0.1274
     42 H16         1.7390   -0.4149   12.1642 H         1 <0>         0.1219
     43 H17        -0.1537    1.1056   12.5691 H         1 <0>         0.1204
     44 H18        -1.3994    2.0582   10.6721 H         1 <0>         0.1268
     45 H19        -0.7476    1.5005    8.3649 H         1 <0>         0.1309
@<TRIPOS>BOND
     1    1    6 ar
     2    1    2 ar
     3    1   27 1
     4    2    3 ar
     5    2   28 1
     6    3    4 ar
     7    3   29 1
     8    4    5 ar
     9    4    7 1
    10    5    6 ar
    11    5   30 1
    12    6   31 1
    13    7    8 1
    14    7   32 1
    15    7   33 1
    16    8    9 1
    17    8   12 1
    18    8   34 1
    19    9   10 2
    20    9   11 1
    21   12   13 1
    22   13   18 ar
    23   13   14 ar
    24   14   15 ar
    25   14   35 1
    26   15   16 ar
    27   15   36 1
    28   16   17 ar
    29   16   19 1
    30   17   18 ar
    31   17   37 1
    32   18   38 1
    33   19   20 1
    34   19   39 1
    35   19   40 1
    36   20   21 1
    37   21   26 ar
    38   21   22 ar
    39   22   23 ar
    40   22   41 1
    41   23   24 ar
    42   23   42 1
    43   24   25 ar
    44   24   43 1
    45   25   26 ar
    46   25   44 1
    47   26   45 1
@<TRIPOS>MOLECULE
CHEMBL572566__1
   45    47     0     0     0
SMALL
USER_CHARGES

@<TRIPOS>ATOM
      1 C1          9.0062   -1.2809    0.6393 C.ar      1 <0>        -0.1327
      2 C2          7.7691   -1.8819    0.5003 C.ar      1 <0>        -0.1225
      3 C3          6.6414   -1.1059    0.3081 C.ar      1 <0>        -0.1036
      4 C4          6.7507    0.2711    0.2553 C.ar      1 <0>        -0.0705
      5 C5          7.9876    0.8722    0.3952 C.ar      1 <0>        -0.1196
      6 C6          9.1156    0.0961    0.5860 C.ar      1 <0>        -0.1228
      7 C7          5.5214    1.1171    0.0448 C.3       1 <0>        -0.0635
      8 C8          4.9093    1.4736    1.4009 C.3       1 <0>         0.0227
      9 C9          3.7535    2.4190    1.1974 C.2       1 <0>         0.4812
     10 O1          2.6213    2.0680    1.4825 O.co2     1 <0>        -0.6703
     11 O2          3.9507    3.5350    0.7476 O.co2     1 <0>        -0.6891
     12 O3          4.4442    0.2837    2.0412 O.3       1 <0>        -0.2884
     13 C10         4.3513    0.3086    3.3968 C.ar      1 <0>         0.1831
     14 C11         4.0204   -0.8456    4.0919 C.ar      1 <0>        -0.1695
     15 C12         3.9271   -0.8178    5.4699 C.ar      1 <0>        -0.0569
     16 C13         4.1626    0.3591    6.1563 C.ar      1 <0>        -0.1621
     17 C14         4.4921    1.5108    5.4659 C.ar      1 <0>        -0.0513
     18 C15         4.5928    1.4868    4.0883 C.ar      1 <0>        -0.2046
     19 C16         4.0596    0.3866    7.6596 C.3       1 <0>         0.1148
     20 O4          5.3330    0.0783    8.2300 O.3       1 <0>        -0.3085
     21 C17         5.4135    0.0611    9.5865 C.ar      1 <0>         0.1357
     22 C18         4.2886    0.3296   10.3528 C.ar      1 <0>        -0.2126
     23 C19         4.3729    0.3109   11.7315 C.ar      1 <0>        -0.0804
     24 C20         5.5772    0.0254   12.3479 C.ar      1 <0>        -0.1663
     25 C21         6.6999   -0.2420   11.5864 C.ar      1 <0>        -0.0818
     26 C22         6.6194   -0.2307   10.2074 C.ar      1 <0>        -0.1564
     27 H1          9.8867   -1.8869    0.7940 H         1 <0>         0.1154
     28 H2          7.6837   -2.9577    0.5415 H         1 <0>         0.1172
     29 H3          5.6750   -1.5754    0.1988 H         1 <0>         0.1226
     30 H4          8.0731    1.9480    0.3537 H         1 <0>         0.1212
     31 H5         10.0820    0.5657    0.6950 H         1 <0>         0.1172
     32 H6          5.7953    2.0313   -0.4819 H         1 <0>         0.0964
     33 H7          4.7945    0.5607   -0.5470 H         1 <0>         0.0787
     34 H8          5.6638    1.9514    2.0258 H         1 <0>         0.0671
     35 H9          3.8357   -1.7649    3.5561 H         1 <0>         0.1275
     36 H10         3.6695   -1.7160    6.0114 H         1 <0>         0.1227
     37 H11         4.6753    2.4289    6.0044 H         1 <0>         0.1194
     38 H12         4.8545    2.3856    3.5498 H         1 <0>         0.1296
     39 H13         3.7467    1.3790    7.9842 H         1 <0>         0.0671
     40 H14         3.3267   -0.3507    7.9871 H         1 <0>         0.0670
     41 H15         3.3479    0.5533    9.8718 H         1 <0>         0.1284
     42 H16         3.4975    0.5199   12.3285 H         1 <0>         0.1225
     43 H17         5.6412    0.0117   13.4259 H         1 <0>         0.1206
     44 H18         7.6395   -0.4644   12.0702 H         1 <0>         0.1264
     45 H19         7.4955   -0.4441    9.6130 H         1 <0>         0.1294
@<TRIPOS>BOND
     1    1    6 ar
     2    1    2 ar
     3    1   27 1
     4    2    3 ar
     5    2   28 1
     6    3    4 ar
     7    3   29 1
     8    4    5 ar
     9    4    7 1
    10    5    6 ar
    11    5   30 1
    12    6   31 1
    13    7    8 1
    14    7   32 1
    15    7   33 1
    16    8    9 1
    17    8   12 1
    18    8   34 1
    19    9   10 2
    20    9   11 1
    21   12   13 1
    22   13   18 ar
    23   13   14 ar
    24   14   15 ar
    25   14   35 1
    26   15   16 ar
    27   15   36 1
    28   16   17 ar
    29   16   19 1
    30   17   18 ar
    31   17   37 1
    32   18   38 1
    33   19   20 1
    34   19   39 1
    35   19   40 1
    36   20   21 1
    37   21   26 ar
    38   21   22 ar
    39   22   23 ar
    40   22   41 1
    41   23   24 ar
    42   23   42 1
    43   24   25 ar
    44   24   43 1
    45   25   26 ar
    46   25   44 1
    47   26   45 1
@<TRIPOS>MOLECULE
CHEMBL438346
   43    45     0     0     0
SMALL
USER_CHARGES

@<TRIPOS>ATOM
      1 C1         -0.0173    1.4248    0.0099 C.3       1 <0>         0.0262
      2 O1          0.0021   -0.0041    0.0020 O.3       1 <0>        -0.3178
      3 C2         -1.2010   -0.6379    0.0101 C.ar      1 <0>         0.1205
      4 C3         -2.3716    0.1194    0.0196 C.ar      1 <0>        -0.1701
      5 C4         -3.5935   -0.5201    0.0273 C.ar      1 <0>        -0.0387
      6 C5         -3.6445   -1.8979    0.0256 C.ar      1 <0>        -0.1397
      7 C6         -2.4785   -2.6987    0.0161 C.ar      1 <0>        -0.0578
      8 C7         -1.2380   -2.0091    0.0031 C.ar      1 <0>        -0.1061
      9 C8         -2.7007   -4.0876    0.0161 C.2       1 <0>        -0.0750
     10 C9         -3.9713   -4.5714    0.0248 C.2       1 <0>        -0.1718
     11 S1         -4.9624   -3.0877    0.0338 S.3       1 <0>         0.0785
     12 C10        -4.4183   -5.9717    0.0268 C.2       1 <0>         0.5942
     13 O2         -3.5997   -6.8716    0.0201 O.2       1 <0>        -0.5282
     14 N1         -5.7352   -6.2587    0.0360 N.am      1 <0>        -0.7088
     15 C11        -6.1807   -7.6543    0.0380 C.3       1 <0>         0.1801
     16 C12        -7.6870   -7.7007    0.0487 C.ar      1 <0>        -0.2206
     17 C13        -8.3680   -7.7173    1.2521 C.ar      1 <0>        -0.0558
     18 C14        -9.7484   -7.7599    1.2656 C.ar      1 <0>        -0.1746
     19 C15       -10.4526   -7.7860    0.0685 C.ar      1 <0>         0.2869
     20 C16        -9.7653   -7.7692   -1.1385 C.ar      1 <0>        -0.2595
     21 C17        -8.3851   -7.7209   -1.1448 C.ar      1 <0>        -0.0420
     22 N2        -11.8486   -7.8295    0.0785 N.2       1 <0>        -1.0565
     23 S2        -12.6863   -7.8605   -1.3496 S.o2      1 <0>         2.5060
     24 O3        -12.3885   -6.6182   -1.9718 O.2       1 <0>        -0.9571
     25 O4        -12.3115   -9.0862   -1.9632 O.2       1 <0>        -0.9567
     26 C18       -14.4334   -7.9133   -0.8643 C.3       1 <0>        -0.0070
     27 F1        -14.7418   -6.7775   -0.1081 F         1 <0>        -0.1647
     28 F2        -15.2351   -7.9423   -2.0104 F         1 <0>        -0.1839
     29 F3        -14.6706   -9.0609   -0.1001 F         1 <0>        -0.1645
     30 H1          1.0053    1.8021    0.0021 H         1 <0>         0.1007
     31 H2         -0.5445    1.7859   -0.8732 H         1 <0>         0.0566
     32 H3         -0.5275    1.7763    0.9067 H         1 <0>         0.0566
     33 H4         -2.3219    1.1982    0.0212 H         1 <0>         0.1414
     34 H5         -4.5068    0.0562    0.0350 H         1 <0>         0.1384
     35 H6         -0.3147   -2.5692   -0.0087 H         1 <0>         0.1372
     36 H7         -1.8628   -4.7691    0.0088 H         1 <0>         0.1488
     37 H8         -6.3879   -5.5412    0.0413 H         1 <0>         0.4032
     38 H9         -5.8081   -8.1559   -0.8552 H         1 <0>         0.0709
     39 H10        -5.7954   -8.1575    0.9248 H         1 <0>         0.0721
     40 H11        -7.8199   -7.6974    2.1825 H         1 <0>         0.1107
     41 H12       -10.2797   -7.7732    2.2058 H         1 <0>         0.1187
     42 H13       -10.3098   -7.7898   -2.0710 H         1 <0>         0.1020
     43 H14        -7.8502   -7.7034   -2.0829 H         1 <0>         0.1071
@<TRIPOS>BOND
     1    1    2 1
     2    1   30 1
     3    1   31 1
     4    1   32 1
     5    2    3 1
     6    3    8 ar
     7    3    4 ar
     8    4    5 ar
     9    4   33 1
    10    5    6 ar
    11    5   34 1
    12    6   11 1
    13    6    7 ar
    14    7    8 ar
    15    7    9 1
    16    8   35 1
    17    9   10 2
    18    9   36 1
    19   10   11 1
    20   10   12 1
    21   12   13 2
    22   12   14 am
    23   14   15 1
    24   14   37 1
    25   15   16 1
    26   15   38 1
    27   15   39 1
    28   16   21 ar
    29   16   17 ar
    30   17   18 ar
    31   17   40 1
    32   18   19 ar
    33   18   41 1
    34   19   20 ar
    35   19   22 1
    36   20   21 ar
    37   20   42 1
    38   21   43 1
    39   22   23 1
    40   23   24 2
    41   23   25 2
    42   23   26 1
    43   26   27 1
    44   26   28 1
    45   26   29 1
@<TRIPOS>MOLECULE
CHEMBL438346__1
   44    46     0     0     0
SMALL
USER_CHARGES

@<TRIPOS>ATOM
      1 C1          0.1358    1.2133   -0.2587 C.3       1 <0>         0.0248
      2 O1          0.1058   -0.2145   -0.2080 O.3       1 <0>        -0.3156
      3 C2          0.7254   -0.8079    0.8470 C.ar      1 <0>         0.1243
      4 C3          1.3423   -0.0129    1.8119 C.ar      1 <0>        -0.1632
      5 C4          1.9713   -0.6114    2.8835 C.ar      1 <0>        -0.0416
      6 C5          1.9833   -1.9860    2.9891 C.ar      1 <0>        -0.1323
      7 C6          1.3682   -2.8245    2.0300 C.ar      1 <0>        -0.0638
      8 C7          0.7257   -2.1764    0.9430 C.ar      1 <0>        -0.1025
      9 C8          1.4695   -4.2046    2.2819 C.2       1 <0>        -0.0573
     10 C9          2.1257   -4.6459    3.3879 C.2       1 <0>        -0.1885
     11 S1          2.6568   -3.1311    4.1670 S.3       1 <0>         0.0647
     12 C10         2.3443   -6.0301    3.8320 C.2       1 <0>         0.6045
     13 O2          1.9093   -6.9560    3.1736 O.2       1 <0>        -0.5167
     14 N1          3.0265   -6.2733    4.9686 N.am      1 <0>        -0.7193
     15 C11         3.2443   -7.6528    5.4112 C.3       1 <0>         0.1606
     16 C12         4.0276   -7.6495    6.6987 C.ar      1 <0>        -0.1074
     17 C13         5.4097   -7.6804    6.6654 C.ar      1 <0>        -0.0810
     18 C14         6.1305   -7.6775    7.8434 C.ar      1 <0>        -0.1149
     19 C15         5.4656   -7.6434    9.0626 C.ar      1 <0>         0.1219
     20 C16         4.0772   -7.6124    9.0924 C.ar      1 <0>        -0.1393
     21 C17         3.3627   -7.6098    7.9105 C.ar      1 <0>        -0.0742
     22 N2          6.1915   -7.6408   10.2559 N.pl3     1 <0>        -1.0224
     23 S2          5.7976   -6.5771   11.4624 S.o2      1 <0>         2.6039
     24 O3          4.4154   -6.8001   11.7054 O.2       1 <0>        -0.8656
     25 O4          6.7595   -6.8124   12.4816 O.2       1 <0>        -0.8754
     26 C18         6.0470   -4.9341   10.7351 C.3       1 <0>        -0.0372
     27 F1          5.1312   -4.7405    9.6954 F         1 <0>        -0.1552
     28 F2          5.8527   -3.9556   11.7160 F         1 <0>        -0.1580
     29 F3          7.3494   -4.8392   10.2332 F         1 <0>        -0.1578
     30 H1          1.1705    1.5539   -0.2973 H         1 <0>         0.0579
     31 H2         -0.3931    1.5565   -1.1479 H         1 <0>         0.1038
     32 H3         -0.3472    1.6186    0.6304 H         1 <0>         0.0579
     33 H4          1.3282    1.0631    1.7207 H         1 <0>         0.1443
     34 H5          2.4528   -0.0056    3.6368 H         1 <0>         0.1392
     35 H6          0.2356   -2.7662    0.1825 H         1 <0>         0.1399
     36 H7          1.0262   -4.9129    1.5978 H         1 <0>         0.1505
     37 H8          3.3733   -5.5351    5.4935 H         1 <0>         0.4039
     38 H9          2.2821   -8.1388    5.5725 H         1 <0>         0.0865
     39 H10         3.8021   -8.1955    4.6480 H         1 <0>         0.0859
     40 H11         5.9260   -7.7072    5.7172 H         1 <0>         0.1365
     41 H12         7.2099   -7.7020    7.8168 H         1 <0>         0.1379
     42 H13         3.5572   -7.5863   10.0386 H         1 <0>         0.1599
     43 H14         2.2833   -7.5813    7.9329 H         1 <0>         0.1390
     44 H15         6.9264   -8.2621   10.3779 H         1 <0>         0.4412
@<TRIPOS>BOND
     1    1    2 1
     2    1   30 1
     3    1   31 1
     4    1   32 1
     5    2    3 1
     6    3    8 ar
     7    3    4 ar
     8    4    5 ar
     9    4   33 1
    10    5    6 ar
    11    5   34 1
    12    6   11 1
    13    6    7 ar
    14    7    8 ar
    15    7    9 1
    16    8   35 1
    17    9   10 2
    18    9   36 1
    19   10   11 1
    20   10   12 1
    21   12   13 2
    22   12   14 am
    23   14   15 1
    24   14   37 1
    25   15   16 1
    26   15   38 1
    27   15   39 1
    28   16   21 ar
    29   16   17 ar
    30   17   18 ar
    31   17   40 1
    32   18   19 ar
    33   18   41 1
    34   19   20 ar
    35   19   22 1
    36   20   21 ar
    37   20   42 1
    38   21   43 1
    39   22   23 1
    40   22   44 1
    41   23   24 2
    42   23   25 2
    43   23   26 1
    44   26   27 1
    45   26   28 1
    46   26   29 1
@<TRIPOS>MOLECULE
CHEMBL262558
   52    53     0     0     0
SMALL
USER_CHARGES

@<TRIPOS>ATOM
      1 C1          2.4202    0.3134   -0.3075 C.3       1 <0>        -0.1492
      2 C2          1.5132    0.6186    0.8863 C.3       1 <0>        -0.1022
      3 C3          0.6827   -0.6207    1.2257 C.3       1 <0>        -0.1510
      4 C4         -0.2383   -0.9549    0.0506 C.3       1 <0>        -0.0573
      5 C5         -0.9664   -2.2437    0.3337 C.ar      1 <0>        -0.0921
      6 C6         -0.4102   -3.4497   -0.0517 C.ar      1 <0>        -0.0864
      7 C7         -1.0757   -4.6322    0.2062 C.ar      1 <0>        -0.2093
      8 C8         -2.3031   -4.6094    0.8530 C.ar      1 <0>         0.1130
      9 C9         -2.8586   -3.3984    1.2390 C.ar      1 <0>        -0.1109
     10 C10        -2.1865   -2.2186    0.9833 C.ar      1 <0>        -0.0530
     11 C11        -4.1915   -3.3700    1.9416 C.3       1 <0>        -0.0674
     12 C12        -5.3140   -3.5128    0.9119 C.3       1 <0>        -0.1026
     13 C13        -6.6672   -3.4839    1.6252 C.3       1 <0>        -0.0893
     14 C14        -7.7729   -3.6245    0.6109 C.ar      1 <0>        -0.0382
     15 C15        -8.3152   -2.4991    0.0192 C.ar      1 <0>        -0.1185
     16 C16        -9.3294   -2.6281   -0.9112 C.ar      1 <0>        -0.0679
     17 C17        -9.8010   -3.8825   -1.2502 C.ar      1 <0>        -0.1953
     18 C18        -9.2580   -5.0080   -0.6591 C.ar      1 <0>        -0.0693
     19 C19        -8.2409   -4.8793    0.2681 C.ar      1 <0>        -0.1191
     20 C20       -10.9073   -4.0231   -2.2637 C.3       1 <0>         0.5091
     21 F1        -10.3549   -4.1419   -3.5436 F         1 <0>        -0.1778
     22 F2        -11.6628   -5.1644   -1.9742 F         1 <0>        -0.1792
     23 F3        -11.7312   -2.8936   -2.2144 F         1 <0>        -0.1785
     24 O1         -2.9600   -5.7715    1.1075 O.3       1 <0>        -0.3166
     25 C21        -2.3286   -6.9805    0.6813 C.3       1 <0>         0.0298
     26 C22        -0.1480   -0.3480    2.4532 C.2       1 <0>         0.5022
     27 O2         -0.0699   -1.0881    3.4189 O.co2     1 <0>        -0.6993
     28 O3         -0.8981    0.6128    2.4805 O.co2     1 <0>        -0.7018
     29 H1          1.8091    0.1444   -1.1942 H         1 <0>         0.0508
     30 H2          3.0877    1.1573   -0.4817 H         1 <0>         0.0441
     31 H3          3.0098   -0.5789   -0.0971 H         1 <0>         0.0474
     32 H4          2.1244    0.8930    1.7461 H         1 <0>         0.0517
     33 H5          0.8476    1.4444    0.6352 H         1 <0>         0.0637
     34 H6          1.3479   -1.4627    1.4169 H         1 <0>         0.0572
     35 H7         -0.9619   -0.1509   -0.0841 H         1 <0>         0.0707
     36 H8          0.3556   -1.0650   -0.8567 H         1 <0>         0.0578
     37 H9          0.5451   -3.4669   -0.5551 H         1 <0>         0.1170
     38 H10        -0.6413   -5.5738   -0.0956 H         1 <0>         0.1198
     39 H11        -2.6166   -1.2758    1.2872 H         1 <0>         0.1310
     40 H12        -4.2446   -4.1937    2.6535 H         1 <0>         0.0723
     41 H13        -4.3027   -2.4240    2.4716 H         1 <0>         0.0731
     42 H14        -5.2609   -2.6891    0.2000 H         1 <0>         0.0635
     43 H15        -5.2027   -4.4587    0.3819 H         1 <0>         0.0668
     44 H16        -6.7203   -4.3076    2.3371 H         1 <0>         0.0783
     45 H17        -6.7785   -2.5379    2.1552 H         1 <0>         0.0798
     46 H18        -7.9468   -1.5190    0.2840 H         1 <0>         0.1367
     47 H19        -9.7536   -1.7488   -1.3730 H         1 <0>         0.1342
     48 H20        -9.6266   -5.9881   -0.9237 H         1 <0>         0.1331
     49 H21        -7.8141   -5.7588    0.7272 H         1 <0>         0.1347
     50 H22        -2.9570   -7.8312    0.9451 H         1 <0>         0.0930
     51 H23        -2.1866   -6.9549   -0.3991 H         1 <0>         0.0498
     52 H24        -1.3605   -7.0776    1.1727 H         1 <0>         0.0515
@<TRIPOS>BOND
     1    1    2 1
     2    1   29 1
     3    1   30 1
     4    1   31 1
     5    2    3 1
     6    2   32 1
     7    2   33 1
     8    3    4 1
     9    3   26 1
    10    3   34 1
    11    4    5 1
    12    4   35 1
    13    4   36 1
    14    5   10 ar
    15    5    6 ar
    16    6    7 ar
    17    6   37 1
    18    7    8 ar
    19    7   38 1
    20    8    9 ar
    21    8   24 1
    22    9   10 ar
    23    9   11 1
    24   10   39 1
    25   11   12 1
    26   11   40 1
    27   11   41 1
    28   12   13 1
    29   12   42 1
    30   12   43 1
    31   13   14 1
    32   13   44 1
    33   13   45 1
    34   14   19 ar
    35   14   15 ar
    36   15   16 ar
    37   15   46 1
    38   16   17 ar
    39   16   47 1
    40   17   18 ar
    41   17   20 1
    42   18   19 ar
    43   18   48 1
    44   19   49 1
    45   20   21 1
    46   20   22 1
    47   20   23 1
    48   24   25 1
    49   25   50 1
    50   25   51 1
    51   25   52 1
    52   26   27 2
    53   26   28 1
@<TRIPOS>MOLECULE
CHEMBL262558__1
   52    53     0     0     0
SMALL
USER_CHARGES

@<TRIPOS>ATOM
      1 C1         -0.0187    1.5258    0.0104 C.3       1 <0>        -0.1446
      2 C2          0.0021   -0.0041    0.0020 C.3       1 <0>        -0.1003
      3 C3          0.7421   -0.5109    1.2415 C.3       1 <0>        -0.1541
      4 C4          0.6554   -2.0374    1.2986 C.3       1 <0>        -0.0573
      5 C5          1.2769   -2.5282    2.5808 C.ar      1 <0>        -0.0924
      6 C6          2.6261   -2.8284    2.6232 C.ar      1 <0>        -0.0578
      7 C7          3.1980   -3.2789    3.7970 C.ar      1 <0>        -0.2017
      8 C8          2.4176   -3.4297    4.9343 C.ar      1 <0>         0.1139
      9 C9          1.0646   -3.1274    4.8893 C.ar      1 <0>        -0.1216
     10 C10         0.4983   -2.6722    3.7141 C.ar      1 <0>        -0.0809
     11 C11         0.2140   -3.2900    6.1227 C.3       1 <0>        -0.0629
     12 C12        -0.1602   -4.7637    6.2935 C.3       1 <0>        -0.1045
     13 C13        -1.0237   -4.9288    7.5457 C.3       1 <0>        -0.0879
     14 C14        -1.3923   -6.3803    7.7139 C.ar      1 <0>        -0.0401
     15 C15        -2.5440   -6.8732    7.1296 C.ar      1 <0>        -0.1192
     16 C16        -2.8822   -8.2046    7.2839 C.ar      1 <0>        -0.0681
     17 C17        -2.0682   -9.0433    8.0221 C.ar      1 <0>        -0.1939
     18 C18        -0.9160   -8.5507    8.6056 C.ar      1 <0>        -0.0684
     19 C19        -0.5756   -7.2202    8.4478 C.ar      1 <0>        -0.1184
     20 C20        -2.4373  -10.4946    8.1911 C.3       1 <0>         0.5088
     21 F1         -1.8719  -11.2435    7.1535 F         1 <0>        -0.1772
     22 F2         -1.9532  -10.9590    9.4188 F         1 <0>        -0.1788
     23 F3         -3.8295  -10.6286    8.1580 F         1 <0>        -0.1786
     24 O1          2.9778   -3.8731    6.0903 O.3       1 <0>        -0.3182
     25 C21         4.3763   -4.1654    6.0631 C.3       1 <0>         0.0285
     26 C22         2.1879   -0.0922    1.1696 C.2       1 <0>         0.5068
     27 O2          2.6616    0.6161    2.0417 O.co2     1 <0>        -0.7010
     28 O3          2.8841   -0.4617    0.2394 O.co2     1 <0>        -0.7026
     29 H1          1.0039    1.9031    0.0027 H         1 <0>         0.0583
     30 H2         -0.5459    1.8868   -0.8726 H         1 <0>         0.0417
     31 H3         -0.5289    1.8773    0.9072 H         1 <0>         0.0459
     32 H4         -1.0205   -0.3814    0.0098 H         1 <0>         0.0435
     33 H5          0.5123   -0.3556   -0.8948 H         1 <0>         0.0629
     34 H6          0.2852   -0.0874    2.1360 H         1 <0>         0.0578
     35 H7         -0.3900   -2.3436    1.2611 H         1 <0>         0.0547
     36 H8          1.1896   -2.4636    0.4495 H         1 <0>         0.0721
     37 H9          3.2331   -2.7109    1.7377 H         1 <0>         0.1287
     38 H10         4.2516   -3.5139    3.8295 H         1 <0>         0.1216
     39 H11        -0.5542   -2.4328    3.6796 H         1 <0>         0.1218
     40 H12         0.7725   -2.9534    6.9961 H         1 <0>         0.0719
     41 H13        -0.6930   -2.6944    6.0197 H         1 <0>         0.0674
     42 H14        -0.7187   -5.1003    5.4200 H         1 <0>         0.0633
     43 H15         0.7469   -5.3593    6.3965 H         1 <0>         0.0685
     44 H16        -0.4652   -4.5922    8.4191 H         1 <0>         0.0782
     45 H17        -1.9307   -4.3332    7.4427 H         1 <0>         0.0774
     46 H18        -3.1799   -6.2179    6.5528 H         1 <0>         0.1353
     47 H19        -3.7824   -8.5895    6.8279 H         1 <0>         0.1342
     48 H20        -0.2803   -9.2059    9.1827 H         1 <0>         0.1339
     49 H21         0.3265   -6.8362    8.9006 H         1 <0>         0.1352
     50 H22         4.6949   -4.5090    7.0473 H         1 <0>         0.0933
     51 H23         4.5704   -4.9445    5.3259 H         1 <0>         0.0511
     52 H24         4.9304   -3.2657    5.7954 H         1 <0>         0.0540
@<TRIPOS>BOND
     1    1    2 1
     2    1   29 1
     3    1   30 1
     4    1   31 1
     5    2    3 1
     6    2   32 1
     7    2   33 1
     8    3    4 1
     9    3   26 1
    10    3   34 1
    11    4    5 1
    12    4   35 1
    13    4   36 1
    14    5   10 ar
    15    5    6 ar
    16    6    7 ar
    17    6   37 1
    18    7    8 ar
    19    7   38 1
    20    8    9 ar
    21    8   24 1
    22    9   10 ar
    23    9   11 1
    24   10   39 1
    25   11   12 1
    26   11   40 1
    27   11   41 1
    28   12   13 1
    29   12   42 1
    30   12   43 1
    31   13   14 1
    32   13   44 1
    33   13   45 1
    34   14   19 ar
    35   14   15 ar
    36   15   16 ar
    37   15   46 1
    38   16   17 ar
    39   16   47 1
    40   17   18 ar
    41   17   20 1
    42   18   19 ar
    43   18   48 1
    44   19   49 1
    45   20   21 1
    46   20   22 1
    47   20   23 1
    48   24   25 1
    49   25   50 1
    50   25   51 1
    51   25   52 1
    52   26   27 2
    53   26   28 1
@<TRIPOS>MOLECULE
CHEMBL120570
   67    70     0     0     0
SMALL
USER_CHARGES

@<TRIPOS>ATOM
      1 C1          0.3963    1.7010   -0.6603 C.3       1 <0>        -0.1525
      2 C2          0.3264    0.1878   -0.4449 C.3       1 <0>        -0.1161
      3 C3          0.8874   -0.5288   -1.6747 C.3       1 <0>        -0.0726
      4 C4          0.8186   -2.0192   -1.4626 C.ar      1 <0>        -0.0693
      5 C5          1.9157   -2.6980   -0.9685 C.ar      1 <0>        -0.1140
      6 C6          1.8522   -4.0695   -0.7728 C.ar      1 <0>         0.1033
      7 C7          0.6870   -4.7597   -1.0732 C.ar      1 <0>        -0.1759
      8 C8         -0.4098   -4.0811   -1.5672 C.ar      1 <0>        -0.1656
      9 C9         -0.3480   -2.7085   -1.7579 C.ar      1 <0>         0.0946
     10 O1         -1.4297   -2.0395   -2.2390 O.3       1 <0>        -0.3066
     11 C10        -2.5978   -2.8127   -2.5215 C.3       1 <0>         0.0646
     12 C11        -3.7018   -1.8944   -3.0497 C.3       1 <0>        -0.1195
     13 C12        -4.9524   -2.7223   -3.3523 C.3       1 <0>         0.0635
     14 O2         -5.9835   -1.8647   -3.8456 O.3       1 <0>        -0.3079
     15 C13        -7.1696   -2.4463   -4.1648 C.ar      1 <0>         0.1361
     16 C14        -7.3394   -3.8136   -4.0009 C.ar      1 <0>        -0.1914
     17 C15        -8.5461   -4.4022   -4.3256 C.ar      1 <0>        -0.0708
     18 C16        -9.5843   -3.6300   -4.8136 C.ar      1 <0>        -0.1323
     19 C17        -9.4174   -2.2676   -4.9781 C.ar      1 <0>        -0.0408
     20 C18        -8.2143   -1.6731   -4.6494 C.ar      1 <0>        -0.1186
     21 C19       -10.5508   -1.4291   -5.5106 C.3       1 <0>        -0.0337
     22 C20       -11.8322   -1.6659   -4.7237 C.2       1 <0>         0.5342
     23 O3        -11.9233   -1.4111   -3.5419 O.2       1 <0>        -0.4481
     24 N1        -12.8389   -2.1690   -5.4180 N.am      1 <0>        -0.6896
     25 C21       -12.7631   -2.4607   -6.7297 C.2       1 <0>         0.5628
     26 O4        -13.6299   -2.9222   -7.4465 O.2       1 <0>        -0.4137
     27 S1        -11.0913   -2.0106   -7.1720 S.3       1 <0>        -0.1362
     28 O5          2.9322   -4.7377   -0.2869 O.3       1 <0>        -0.3098
     29 C22         2.8392   -6.1623   -0.2237 C.3       1 <0>         0.0877
     30 C23         2.1473   -6.5709    1.0783 C.3       1 <0>        -0.1459
     31 C24         2.0477   -8.0962    1.1459 C.3       1 <0>        -0.1173
     32 C25         3.4522   -8.7013    1.1031 C.3       1 <0>        -0.1246
     33 C26         4.1442   -8.2927   -0.1988 C.3       1 <0>        -0.1166
     34 C27         4.2438   -6.7674   -0.2665 C.3       1 <0>        -0.1150
     35 H1          1.4337    1.9988   -0.8125 H         1 <0>         0.0538
     36 H2         -0.1916    1.9707   -1.5377 H         1 <0>         0.0550
     37 H3         -0.0034    2.2116    0.2159 H         1 <0>         0.0543
     38 H4          0.9142   -0.0818    0.4325 H         1 <0>         0.0607
     39 H5         -0.7111   -0.1099   -0.2927 H         1 <0>         0.0641
     40 H6          0.2996   -0.2592   -2.5521 H         1 <0>         0.0786
     41 H7          1.9249   -0.2310   -1.8270 H         1 <0>         0.0723
     42 H8          2.8230   -2.1607   -0.7350 H         1 <0>         0.1371
     43 H9          0.6376   -5.8278   -0.9212 H         1 <0>         0.1312
     44 H10        -1.3167   -4.6186   -1.8017 H         1 <0>         0.1288
     45 H11        -2.3617   -3.5663   -3.2728 H         1 <0>         0.0642
     46 H12        -2.9384   -3.3029   -1.6095 H         1 <0>         0.0643
     47 H13        -3.9379   -1.1408   -2.2985 H         1 <0>         0.0882
     48 H14        -3.3612   -1.4042   -3.9617 H         1 <0>         0.0882
     49 H15        -4.7163   -3.4759   -4.1035 H         1 <0>         0.0683
     50 H16        -5.2930   -3.2126   -2.4403 H         1 <0>         0.0681
     51 H17        -6.5288   -4.4171   -3.6202 H         1 <0>         0.1336
     52 H18        -8.6787   -5.4665   -4.1986 H         1 <0>         0.1336
     53 H19       -10.5270   -4.0921   -5.0669 H         1 <0>         0.1208
     54 H20        -8.0858   -0.6080   -4.7740 H         1 <0>         0.1407
     55 H21       -10.2843   -0.3723   -5.5276 H         1 <0>         0.1697
     56 H22       -13.6760   -2.3370   -4.9576 H         1 <0>         0.4203
     57 H23         2.2606   -6.5266   -1.0725 H         1 <0>         0.0716
     58 H24         2.7259   -6.2066    1.9271 H         1 <0>         0.0748
     59 H25         1.1466   -6.1398    1.1088 H         1 <0>         0.0684
     60 H26         1.5547   -8.3873    2.0735 H         1 <0>         0.0687
     61 H27         1.4690   -8.4605    0.2971 H         1 <0>         0.0629
     62 H28         4.0309   -8.3370    1.9520 H         1 <0>         0.0656
     63 H29         3.3813   -9.7880    1.1513 H         1 <0>         0.0663
     64 H30         5.1448   -8.7239   -0.2293 H         1 <0>         0.0723
     65 H31         3.5655   -8.6570   -1.0477 H         1 <0>         0.0644
     66 H32         4.7367   -6.4763   -1.1941 H         1 <0>         0.0722
     67 H33         4.8224   -6.4031    0.5823 H         1 <0>         0.0747
@<TRIPOS>BOND
     1    1    2 1
     2    1   35 1
     3    1   36 1
     4    1   37 1
     5    2    3 1
     6    2   38 1
     7    2   39 1
     8    3    4 1
     9    3   40 1
    10    3   41 1
    11    4    9 ar
    12    4    5 ar
    13    5    6 ar
    14    5   42 1
    15    6    7 ar
    16    6   28 1
    17    7    8 ar
    18    7   43 1
    19    8    9 ar
    20    8   44 1
    21    9   10 1
    22   10   11 1
    23   11   12 1
    24   11   45 1
    25   11   46 1
    26   12   13 1
    27   12   47 1
    28   12   48 1
    29   13   14 1
    30   13   49 1
    31   13   50 1
    32   14   15 1
    33   15   20 ar
    34   15   16 ar
    35   16   17 ar
    36   16   51 1
    37   17   18 ar
    38   17   52 1
    39   18   19 ar
    40   18   53 1
    41   19   20 ar
    42   19   21 1
    43   20   54 1
    44   21   27 1
    45   21   22 1
    46   21   55 1
    47   22   23 2
    48   22   24 am
    49   24   25 am
    50   24   56 1
    51   25   26 2
    52   25   27 1
    53   28   29 1
    54   29   34 1
    55   29   30 1
    56   29   57 1
    57   30   31 1
    58   30   58 1
    59   30   59 1
    60   31   32 1
    61   31   60 1
    62   31   61 1
    63   32   33 1
    64   32   62 1
    65   32   63 1
    66   33   34 1
    67   33   64 1
    68   33   65 1
    69   34   66 1
    70   34   67 1
@<TRIPOS>MOLECULE
CHEMBL120570__1
   67    70     0     0     0
SMALL
USER_CHARGES

@<TRIPOS>ATOM
      1 C1          0.3963    1.7010   -0.6603 C.3       1 <0>        -0.1525
      2 C2          0.3264    0.1878   -0.4449 C.3       1 <0>        -0.1160
      3 C3          0.8874   -0.5288   -1.6747 C.3       1 <0>        -0.0727
      4 C4          0.8186   -2.0192   -1.4626 C.ar      1 <0>        -0.0693
      5 C5          1.9157   -2.6980   -0.9685 C.ar      1 <0>        -0.1140
      6 C6          1.8522   -4.0695   -0.7728 C.ar      1 <0>         0.1033
      7 C7          0.6870   -4.7597   -1.0732 C.ar      1 <0>        -0.1759
      8 C8         -0.4098   -4.0811   -1.5672 C.ar      1 <0>        -0.1656
      9 C9         -0.3480   -2.7085   -1.7579 C.ar      1 <0>         0.0946
     10 O1         -1.4297   -2.0395   -2.2390 O.3       1 <0>        -0.3066
     11 C10        -2.5978   -2.8127   -2.5215 C.3       1 <0>         0.0646
     12 C11        -3.7018   -1.8944   -3.0497 C.3       1 <0>        -0.1195
     13 C12        -4.9524   -2.7223   -3.3523 C.3       1 <0>         0.0635
     14 O2         -5.9835   -1.8647   -3.8456 O.3       1 <0>        -0.3079
     15 C13        -7.1696   -2.4463   -4.1648 C.ar      1 <0>         0.1362
     16 C14        -7.3394   -3.8136   -4.0009 C.ar      1 <0>        -0.1915
     17 C15        -8.5461   -4.4022   -4.3256 C.ar      1 <0>        -0.0708
     18 C16        -9.5843   -3.6300   -4.8136 C.ar      1 <0>        -0.1323
     19 C17        -9.4174   -2.2676   -4.9781 C.ar      1 <0>        -0.0407
     20 C18        -8.2143   -1.6731   -4.6494 C.ar      1 <0>        -0.1187
     21 C19       -10.5508   -1.4291   -5.5106 C.3       1 <0>        -0.0337
     22 C20       -11.1061   -2.0062   -6.8052 C.2       1 <0>         0.5343
     23 O3        -10.4346   -2.1090   -7.8094 O.2       1 <0>        -0.4481
     24 N1        -12.3712   -2.3882   -6.7587 N.am      1 <0>        -0.6896
     25 C21       -13.1374   -2.2852   -5.6569 C.2       1 <0>         0.5629
     26 O4        -14.3015   -2.6079   -5.5203 O.2       1 <0>        -0.4136
     27 S1        -12.0439   -1.5641   -4.4415 S.3       1 <0>        -0.1364
     28 O5          2.9322   -4.7377   -0.2869 O.3       1 <0>        -0.3098
     29 C22         2.8392   -6.1623   -0.2237 C.3       1 <0>         0.0877
     30 C23         2.1473   -6.5709    1.0783 C.3       1 <0>        -0.1458
     31 C24         2.0477   -8.0962    1.1459 C.3       1 <0>        -0.1173
     32 C25         3.4522   -8.7013    1.1031 C.3       1 <0>        -0.1246
     33 C26         4.1442   -8.2927   -0.1988 C.3       1 <0>        -0.1166
     34 C27         4.2438   -6.7674   -0.2665 C.3       1 <0>        -0.1150
     35 H1          1.4337    1.9988   -0.8125 H         1 <0>         0.0538
     36 H2         -0.1916    1.9707   -1.5377 H         1 <0>         0.0550
     37 H3         -0.0034    2.2116    0.2159 H         1 <0>         0.0543
     38 H4          0.9142   -0.0818    0.4325 H         1 <0>         0.0607
     39 H5         -0.7111   -0.1099   -0.2927 H         1 <0>         0.0641
     40 H6          0.2996   -0.2592   -2.5521 H         1 <0>         0.0786
     41 H7          1.9249   -0.2310   -1.8270 H         1 <0>         0.0723
     42 H8          2.8230   -2.1607   -0.7350 H         1 <0>         0.1371
     43 H9          0.6376   -5.8278   -0.9212 H         1 <0>         0.1312
     44 H10        -1.3167   -4.6186   -1.8017 H         1 <0>         0.1288
     45 H11        -2.3617   -3.5663   -3.2728 H         1 <0>         0.0642
     46 H12        -2.9384   -3.3029   -1.6095 H         1 <0>         0.0644
     47 H13        -3.9379   -1.1408   -2.2985 H         1 <0>         0.0882
     48 H14        -3.3612   -1.4042   -3.9617 H         1 <0>         0.0881
     49 H15        -4.7163   -3.4759   -4.1035 H         1 <0>         0.0681
     50 H16        -5.2930   -3.2126   -2.4403 H         1 <0>         0.0683
     51 H17        -6.5288   -4.4171   -3.6202 H         1 <0>         0.1336
     52 H18        -8.6787   -5.4665   -4.1986 H         1 <0>         0.1336
     53 H19       -10.5270   -4.0921   -5.0669 H         1 <0>         0.1208
     54 H20        -8.0858   -0.6080   -4.7740 H         1 <0>         0.1407
     55 H21       -10.2461   -0.3903   -5.6371 H         1 <0>         0.1697
     56 H22       -12.7681   -2.7620   -7.5610 H         1 <0>         0.4203
     57 H23         2.2606   -6.5266   -1.0725 H         1 <0>         0.0716
     58 H24         2.7259   -6.2066    1.9271 H         1 <0>         0.0749
     59 H25         1.1466   -6.1398    1.1088 H         1 <0>         0.0684
     60 H26         1.5547   -8.3873    2.0735 H         1 <0>         0.0687
     61 H27         1.4690   -8.4605    0.2971 H         1 <0>         0.0628
     62 H28         4.0309   -8.3370    1.9520 H         1 <0>         0.0657
     63 H29         3.3813   -9.7880    1.1513 H         1 <0>         0.0663
     64 H30         5.1448   -8.7239   -0.2293 H         1 <0>         0.0723
     65 H31         3.5655   -8.6570   -1.0477 H         1 <0>         0.0643
     66 H32         4.7367   -6.4763   -1.1941 H         1 <0>         0.0722
     67 H33         4.8224   -6.4031    0.5823 H         1 <0>         0.0747
@<TRIPOS>BOND
     1    1    2 1
     2    1   35 1
     3    1   36 1
     4    1   37 1
     5    2    3 1
     6    2   38 1
     7    2   39 1
     8    3    4 1
     9    3   40 1
    10    3   41 1
    11    4    9 ar
    12    4    5 ar
    13    5    6 ar
    14    5   42 1
    15    6    7 ar
    16    6   28 1
    17    7    8 ar
    18    7   43 1
    19    8    9 ar
    20    8   44 1
    21    9   10 1
    22   10   11 1
    23   11   12 1
    24   11   45 1
    25   11   46 1
    26   12   13 1
    27   12   47 1
    28   12   48 1
    29   13   14 1
    30   13   49 1
    31   13   50 1
    32   14   15 1
    33   15   20 ar
    34   15   16 ar
    35   16   17 ar
    36   16   51 1
    37   17   18 ar
    38   17   52 1
    39   18   19 ar
    40   18   53 1
    41   19   20 ar
    42   19   21 1
    43   20   54 1
    44   21   27 1
    45   21   22 1
    46   21   55 1
    47   22   23 2
    48   22   24 am
    49   24   25 am
    50   24   56 1
    51   25   26 2
    52   25   27 1
    53   28   29 1
    54   29   34 1
    55   29   30 1
    56   29   57 1
    57   30   31 1
    58   30   58 1
    59   30   59 1
    60   31   32 1
    61   31   60 1
    62   31   61 1
    63   32   33 1
    64   32   62 1
    65   32   63 1
    66   33   34 1
    67   33   64 1
    68   33   65 1
    69   34   66 1
    70   34   67 1
@<TRIPOS>MOLECULE
CHEMBL256468
   73    77     0     0     0
SMALL
USER_CHARGES

@<TRIPOS>ATOM
      1 C1         -0.0184    1.5028    0.0103 C.3       1 <0>        -0.0719
      2 C2          0.0021   -0.0041    0.0020 C.2       1 <0>        -0.0322
      3 C3         -1.0705   -0.8164    0.0025 C.2       1 <0>        -0.0070
      4 N1         -0.6270   -2.0826   -0.0064 N.2       1 <0>        -0.4587
      5 C4          0.6851   -2.0676   -0.0123 C.2       1 <0>         0.2293
      6 O1          1.0981   -0.7883   -0.0131 O.3       1 <0>        -0.1932
      7 C5          1.5619   -3.2577   -0.0227 C.ar      1 <0>        -0.0173
      8 C6          1.0059   -4.5378   -0.0330 C.ar      1 <0>        -0.0704
      9 C7          1.8298   -5.6443   -0.0432 C.ar      1 <0>        -0.1204
     10 C8          3.2044   -5.4871   -0.0433 C.ar      1 <0>        -0.1011
     11 C9          3.7620   -4.2209   -0.0327 C.ar      1 <0>        -0.1213
     12 C10         2.9493   -3.1060   -0.0282 C.ar      1 <0>        -0.0906
     13 C11        -2.5133   -0.3814    0.0119 C.3       1 <0>        -0.0334
     14 C12        -3.0085   -0.2260   -1.4274 C.3       1 <0>         0.0676
     15 O2         -4.3766    0.1865   -1.4185 O.3       1 <0>        -0.3165
     16 C13        -4.9731    0.3716   -2.6255 C.ar      1 <0>         0.1183
     17 C14        -4.2580    0.1549   -3.7944 C.ar      1 <0>        -0.2049
     18 C15        -4.8667    0.3432   -5.0201 C.ar      1 <0>        -0.0618
     19 C16        -6.1874    0.7477   -5.0825 C.ar      1 <0>        -0.1081
     20 C17        -6.9021    0.9648   -3.9190 C.ar      1 <0>        -0.0743
     21 C18        -6.2998    0.7719   -2.6908 C.ar      1 <0>        -0.1517
     22 C19        -6.8489    0.9529   -6.4210 C.3       1 <0>        -0.0586
     23 C20        -7.4951   -0.3570   -6.8767 C.3       1 <0>        -0.1216
     24 H1         -8.0562   -0.8462   -6.0805 H         1 <0>         0.1105
     25 C21        -8.2886   -0.2192   -8.1799 C.3       1 <0>         0.0677
     26 H2         -9.2895   -0.6491   -8.1397 H         1 <0>         0.0994
     27 N2         -7.2669   -1.1271   -8.7143 N.am      1 <0>        -0.5469
     28 C22        -6.5342   -1.2815   -7.5839 C.2       1 <0>         0.5352
     29 O3         -5.5361   -1.8963   -7.2726 O.2       1 <0>        -0.4972
     30 C23        -7.1018   -1.6685   -9.9939 C.ar      1 <0>         0.1812
     31 C24        -8.0002   -1.3523  -11.0045 C.ar      1 <0>        -0.1201
     32 C25        -7.8344   -1.8884  -12.2665 C.ar      1 <0>        -0.0896
     33 C26        -6.7755   -2.7395  -12.5242 C.ar      1 <0>        -0.1128
     34 C27        -5.8793   -3.0567  -11.5199 C.ar      1 <0>        -0.0965
     35 C28        -6.0358   -2.5187  -10.2575 C.ar      1 <0>        -0.1641
     36 C29        -6.5979   -3.3230  -13.9023 C.3       1 <0>        -0.0227
     37 C30        -6.4189   -2.1912  -14.9161 C.3       1 <0>        -0.1378
     38 C31        -5.3610   -4.2234  -13.9193 C.3       1 <0>        -0.1418
     39 C32        -7.8335   -4.1468  -14.2704 C.3       1 <0>        -0.1364
     40 C33        -8.2600    1.1651   -8.7750 C.2       1 <0>         0.5030
     41 O4         -7.6456    1.3722   -9.8075 O.co2     1 <0>        -0.6664
     42 O5         -8.8512    2.0779   -8.2239 O.co2     1 <0>        -0.6785
     43 H3          1.0042    1.8801    0.0026 H         1 <0>         0.0806
     44 H4         -0.5455    1.8639   -0.8728 H         1 <0>         0.0925
     45 H5         -0.5286    1.8543    0.9071 H         1 <0>         0.0930
     46 H6         -0.0670   -4.6619   -0.0326 H         1 <0>         0.1391
     47 H7          1.4008   -6.6354   -0.0508 H         1 <0>         0.1328
     48 H8          3.8450   -6.3565   -0.0513 H         1 <0>         0.1284
     49 H9          4.8357   -4.1050   -0.0321 H         1 <0>         0.1306
     50 H10         3.3858   -2.1181   -0.0249 H         1 <0>         0.1300
     51 H11        -3.1156   -1.1316    0.5243 H         1 <0>         0.0943
     52 H12        -2.6018    0.5726    0.5316 H         1 <0>         0.0925
     53 H13        -2.4061    0.5242   -1.9398 H         1 <0>         0.0607
     54 H14        -2.9200   -1.1800   -1.9471 H         1 <0>         0.0657
     55 H15        -3.2262   -0.1604   -3.7462 H         1 <0>         0.1214
     56 H16        -4.3105    0.1747   -5.9304 H         1 <0>         0.1230
     57 H17        -7.9335    1.2810   -3.9704 H         1 <0>         0.1325
     58 H18        -6.8598    0.9373   -1.7823 H         1 <0>         0.1279
     59 H19        -7.6139    1.7243   -6.3338 H         1 <0>         0.1099
     60 H20        -6.1019    1.2629   -7.1517 H         1 <0>         0.0736
     61 H21        -8.8279   -0.6882  -10.8038 H         1 <0>         0.1253
     62 H22        -8.5328   -1.6429  -13.0529 H         1 <0>         0.1179
     63 H23        -5.0537   -3.7223  -11.7241 H         1 <0>         0.1218
     64 H24        -5.3328   -2.7630   -9.4749 H         1 <0>         0.1247
     65 H25        -5.5386   -1.6043  -14.6539 H         1 <0>         0.0560
     66 H26        -6.2905   -2.6133  -15.9129 H         1 <0>         0.0522
     67 H27        -7.3001   -1.5498  -14.9040 H         1 <0>         0.0571
     68 H28        -5.4885   -5.0297  -13.1970 H         1 <0>         0.0567
     69 H29        -5.2325   -4.6454  -14.9161 H         1 <0>         0.0528
     70 H30        -4.4807   -3.6365  -13.6571 H         1 <0>         0.0576
     71 H31        -8.7147   -3.5054  -14.2582 H         1 <0>         0.0563
     72 H32        -7.7051   -4.5689  -15.2671 H         1 <0>         0.0525
     73 H33        -7.9610   -4.9531  -13.5481 H         1 <0>         0.0542
@<TRIPOS>BOND
     1    1    2 1
     2    1   43 1
     3    1   44 1
     4    1   45 1
     5    2    6 1
     6    2    3 2
     7    3    4 1
     8    3   13 1
     9    4    5 2
    10    5    6 1
    11    5    7 1
    12    7   12 ar
    13    7    8 ar
    14    8    9 ar
    15    8   46 1
    16    9   10 ar
    17    9   47 1
    18   10   11 ar
    19   10   48 1
    20   11   12 ar
    21   11   49 1
    22   12   50 1
    23   13   14 1
    24   13   51 1
    25   13   52 1
    26   14   15 1
    27   14   53 1
    28   14   54 1
    29   15   16 1
    30   16   21 ar
    31   16   17 ar
    32   17   18 ar
    33   17   55 1
    34   18   19 ar
    35   18   56 1
    36   19   20 ar
    37   19   22 1
    38   20   21 ar
    39   20   57 1
    40   21   58 1
    41   22   23 1
    42   22   59 1
    43   22   60 1
    44   23   24 1
    45   23   28 1
    46   23   25 1
    47   25   26 1
    48   25   27 1
    49   25   40 1
    50   27   28 am
    51   27   30 1
    52   28   29 2
    53   30   35 ar
    54   30   31 ar
    55   31   32 ar
    56   31   61 1
    57   32   33 ar
    58   32   62 1
    59   33   34 ar
    60   33   36 1
    61   34   35 ar
    62   34   63 1
    63   35   64 1
    64   36   37 1
    65   36   38 1
    66   36   39 1
    67   37   65 1
    68   37   66 1
    69   37   67 1
    70   38   68 1
    71   38   69 1
    72   38   70 1
    73   39   71 1
    74   39   72 1
    75   39   73 1
    76   40   41 2
    77   40   42 1
@<TRIPOS>MOLECULE
CHEMBL364274
   68    71     0     0     0
SMALL
USER_CHARGES

@<TRIPOS>ATOM
      1 C1         -1.5621    0.2942   -1.4676 C.3       1 <0>        -0.1481
      2 C2         -1.1242   -1.1122   -1.0535 C.3       1 <0>        -0.1038
      3 C3         -2.3383   -1.8978   -0.5536 C.3       1 <0>        -0.1017
      4 C4         -1.9070   -3.2830   -0.1458 C.ar      1 <0>        -0.0531
      5 C5         -2.1012   -4.3466   -1.0056 C.ar      1 <0>        -0.0915
      6 C6         -1.7043   -5.6197   -0.6297 C.ar      1 <0>         0.0546
      7 C7         -1.1096   -5.8290    0.6147 C.ar      1 <0>         0.0419
      8 C8         -0.9169   -4.7592    1.4738 C.ar      1 <0>        -0.0849
      9 C9         -1.3103   -3.4867    1.0909 C.ar      1 <0>         0.1378
     10 O1         -1.1160   -2.4355    1.9312 O.3       1 <0>        -0.2877
     11 C10        -1.8185   -2.4610    3.1754 C.3       1 <0>         0.0585
     12 H1         -2.1761   -3.4721    3.3700 H         1 <0>         0.0697
     13 C11        -0.8918   -2.0337    4.2843 C.ar      1 <0>        -0.0543
     14 C12        -0.0054   -0.9925    4.0816 C.ar      1 <0>        -0.0879
     15 C13         0.8447   -0.6006    5.0988 C.ar      1 <0>        -0.1221
     16 C14         0.8080   -1.2495    6.3188 C.ar      1 <0>        -0.0879
     17 C15        -0.0791   -2.2902    6.5218 C.ar      1 <0>        -0.1172
     18 C16        -0.9321   -2.6793    5.5060 C.ar      1 <0>        -0.1036
     19 C17         1.7354   -0.8229    7.4274 C.3       1 <0>        -0.0530
     20 C18         0.9123   -0.3758    8.6372 C.3       1 <0>        -0.1437
     21 C19         2.6294   -1.9990    7.8254 C.3       1 <0>        -0.1418
     22 C20        -2.9915   -1.5173    3.1094 C.2       1 <0>         0.4948
     23 O2         -3.1147   -0.7633    2.1592 O.co2     1 <0>        -0.6612
     24 O3         -3.8175   -1.5078    4.0062 O.co2     1 <0>        -0.6814
     25 C21        -0.2750   -4.9779    2.8196 C.3       1 <0>        -0.0907
     26 C22         1.2249   -4.6922    2.7218 C.3       1 <0>        -0.1094
     27 C23         1.8766   -4.9143    4.0881 C.3       1 <0>        -0.1488
     28 O4         -0.8296   -7.1520    0.7098 O.3       1 <0>        -0.2342
     29 C24        -1.2227   -7.7689   -0.4155 C.2       1 <0>         0.6335
     30 O5         -1.1103   -8.9588   -0.6399 O.2       1 <0>        -0.4993
     31 N1         -1.7621   -6.8658   -1.2580 N.am      1 <0>        -0.5407
     32 C25        -2.3088   -7.1406   -2.5891 C.3       1 <0>         0.1653
     33 C26        -1.1999   -7.0032   -3.6343 C.3       1 <0>        -0.1770
     34 C27        -1.3516   -5.9009   -4.6844 C.3       1 <0>        -0.1733
     35 C28        -1.5431   -7.3663   -5.0804 C.3       1 <0>        -0.1686
     36 H2         -0.6972    0.8538   -1.8238 H         1 <0>         0.0451
     37 H3         -2.3028    0.2243   -2.2642 H         1 <0>         0.0459
     38 H4         -1.9982    0.8062   -0.6099 H         1 <0>         0.0648
     39 H5         -0.6882   -1.6243   -1.9113 H         1 <0>         0.0451
     40 H6         -0.3835   -1.0423   -0.2569 H         1 <0>         0.0669
     41 H7         -2.7744   -1.3857    0.3041 H         1 <0>         0.1387
     42 H8         -3.0790   -1.9676   -1.3503 H         1 <0>         0.0579
     43 H9         -2.5618   -4.1860   -1.9692 H         1 <0>         0.1339
     44 H10         0.0233   -0.4855    3.1285 H         1 <0>         0.1254
     45 H11         1.5377    0.2124    4.9403 H         1 <0>         0.1148
     46 H12        -0.1075   -2.7974    7.4748 H         1 <0>         0.1153
     47 H13        -1.6277   -3.4898    5.6657 H         1 <0>         0.1170
     48 H14         2.3556    0.0050    7.0839 H         1 <0>         0.0728
     49 H15         0.2921   -1.2037    8.9807 H         1 <0>         0.0562
     50 H16         1.5830   -0.0672    9.4390 H         1 <0>         0.0525
     51 H17         0.2753    0.4621    8.3537 H         1 <0>         0.0562
     52 H18         3.2158   -2.3175    6.9635 H         1 <0>         0.0548
     53 H19         3.3002   -1.6904    8.6272 H         1 <0>         0.0523
     54 H20         2.0092   -2.8269    8.1689 H         1 <0>         0.0558
     55 H21        -0.7258   -4.3067    3.5506 H         1 <0>         0.0920
     56 H22        -0.4284   -6.0109    3.1318 H         1 <0>         0.0709
     57 H23         1.6757   -5.3634    1.9908 H         1 <0>         0.0551
     58 H24         1.3784   -3.6592    2.4096 H         1 <0>         0.0691
     59 H25         2.9452   -4.7107    4.0184 H         1 <0>         0.0508
     60 H26         1.4258   -4.2430    4.8191 H         1 <0>         0.0602
     61 H27         1.7232   -5.9473    4.4003 H         1 <0>         0.0495
     62 H28        -2.7091   -8.1541   -2.6153 H         1 <0>         0.0990
     63 H29        -3.1052   -6.4296   -2.8087 H         1 <0>         0.0946
     64 H30        -0.1929   -7.2298   -3.2839 H         1 <0>         0.1083
     65 H31        -2.2414   -5.2736   -4.6307 H         1 <0>         0.0984
     66 H32        -0.4443   -5.4019   -5.0251 H         1 <0>         0.0965
     67 H33        -0.7618   -7.8314   -5.6815 H         1 <0>         0.0973
     68 H34        -2.5589   -7.7031   -5.2872 H         1 <0>         0.0979
@<TRIPOS>BOND
     1    1    2 1
     2    1   36 1
     3    1   37 1
     4    1   38 1
     5    2    3 1
     6    2   39 1
     7    2   40 1
     8    3    4 1
     9    3   41 1
    10    3   42 1
    11    4    9 ar
    12    4    5 ar
    13    5    6 ar
    14    5   43 1
    15    6   31 1
    16    6    7 ar
    17    7    8 ar
    18    7   28 1
    19    8    9 ar
    20    8   25 1
    21    9   10 1
    22   10   11 1
    23   11   12 1
    24   11   13 1
    25   11   22 1
    26   13   18 ar
    27   13   14 ar
    28   14   15 ar
    29   14   44 1
    30   15   16 ar
    31   15   45 1
    32   16   17 ar
    33   16   19 1
    34   17   18 ar
    35   17   46 1
    36   18   47 1
    37   19   20 1
    38   19   21 1
    39   19   48 1
    40   20   49 1
    41   20   50 1
    42   20   51 1
    43   21   52 1
    44   21   53 1
    45   21   54 1
    46   22   23 2
    47   22   24 1
    48   25   26 1
    49   25   55 1
    50   25   56 1
    51   26   27 1
    52   26   57 1
    53   26   58 1
    54   27   59 1
    55   27   60 1
    56   27   61 1
    57   28   29 1
    58   29   30 2
    59   29   31 am
    60   31   32 1
    61   32   33 1
    62   32   62 1
    63   32   63 1
    64   33   35 1
    65   33   34 1
    66   33   64 1
    67   34   35 1
    68   34   65 1
    69   34   66 1
    70   35   67 1
    71   35   68 1
@<TRIPOS>MOLECULE
CHEMBL331388
   50    52     0     0     0
SMALL
USER_CHARGES

@<TRIPOS>ATOM
      1 C1         -0.0173    1.4248    0.0099 C.3       1 <0>         0.0347
      2 O1          0.0021   -0.0041    0.0020 O.3       1 <0>        -0.3484
      3 C2         -1.1855   -0.6297    0.0100 C.2       1 <0>         0.4909
      4 O2         -2.2076    0.0145    0.0232 O.2       1 <0>        -0.5262
      5 C3         -1.2439   -2.1355    0.0025 C.3       1 <0>        -0.1542
      6 C4         -2.7051   -2.5893    0.0140 C.3       1 <0>        -0.0436
      7 C5         -2.7663   -4.0893   -0.1173 C.ar      1 <0>        -0.1024
      8 C6         -2.8310   -4.6703   -1.3703 C.ar      1 <0>        -0.0780
      9 C7         -2.8877   -6.0451   -1.4933 C.ar      1 <0>        -0.1535
     10 C8         -2.8792   -6.8429   -0.3584 C.ar      1 <0>         0.1167
     11 C9         -2.8137   -6.2574    0.8977 C.ar      1 <0>        -0.2047
     12 C10        -2.7520   -4.8824    1.0152 C.ar      1 <0>        -0.0513
     13 O3         -2.9353   -8.1955   -0.4768 O.3       1 <0>        -0.3119
     14 C11        -2.9226   -8.9538    0.7344 C.3       1 <0>         0.0597
     15 C12        -2.9915  -10.4459    0.4026 C.3       1 <0>         0.0627
     16 O4         -1.8079  -10.8331   -0.2982 O.3       1 <0>        -0.3030
     17 C13        -1.7093  -12.1366   -0.6693 C.ar      1 <0>         0.1368
     18 C14        -2.7475  -13.0219   -0.3625 C.ar      1 <0>        -0.1892
     19 C15        -2.6779  -14.3319   -0.7205 C.ar      1 <0>        -0.0671
     20 C16        -1.5483  -14.8073   -1.4094 C.ar      1 <0>        -0.0864
     21 C17        -1.4438  -16.1546   -1.7949 C.ar      1 <0>        -0.0946
     22 C18        -0.3361  -16.5809   -2.4610 C.ar      1 <0>        -0.1316
     23 C19         0.6998  -15.7005   -2.7683 C.ar      1 <0>        -0.1081
     24 C20         0.6336  -14.3890   -2.4111 C.ar      1 <0>        -0.1134
     25 C21        -0.4949  -13.9118   -1.7219 C.ar      1 <0>        -0.0119
     26 C22        -0.6001  -12.5638   -1.3419 C.ar      1 <0>        -0.1552
     27 C23        -0.5418   -2.6716    1.2234 C.2       1 <0>         0.5177
     28 O5         -0.9361   -2.3671    2.3362 O.co2     1 <0>        -0.6850
     29 O6          0.4204   -3.4098    1.0984 O.co2     1 <0>        -0.6749
     30 H1          1.0053    1.8021    0.0021 H         1 <0>         0.0946
     31 H2         -0.5445    1.7859   -0.8732 H         1 <0>         0.0531
     32 H3         -0.5275    1.7763    0.9067 H         1 <0>         0.0561
     33 H4         -0.7531   -2.5137   -0.8943 H         1 <0>         0.1017
     34 H5         -3.1719   -2.2872    0.9515 H         1 <0>         0.0823
     35 H6         -3.2349   -2.1296   -0.8204 H         1 <0>         0.0684
     36 H7         -2.8376   -4.0488   -2.2535 H         1 <0>         0.1256
     37 H8         -2.9389   -6.4984   -2.4722 H         1 <0>         0.1251
     38 H9         -2.8070   -6.8763    1.7827 H         1 <0>         0.1227
     39 H10        -2.6966   -4.4263    1.9926 H         1 <0>         0.1317
     40 H11        -2.0045   -8.7458    1.2837 H         1 <0>         0.0764
     41 H12        -3.7821   -8.6774    1.3451 H         1 <0>         0.0845
     42 H13        -3.0714  -11.0200    1.3257 H         1 <0>         0.0835
     43 H14        -3.8634  -10.6393   -0.2222 H         1 <0>         0.0740
     44 H15        -3.6167  -12.6601    0.1667 H         1 <0>         0.1308
     45 H16        -3.4868  -15.0045   -0.4763 H         1 <0>         0.1309
     46 H17        -2.2384  -16.8485   -1.5634 H         1 <0>         0.1249
     47 H18        -0.2585  -17.6170   -2.7557 H         1 <0>         0.1210
     48 H19         1.5680  -16.0646   -3.2974 H         1 <0>         0.1225
     49 H20         1.4441  -13.7183   -2.6555 H         1 <0>         0.1286
     50 H21         0.1932  -11.8697   -1.5772 H         1 <0>         0.1367
@<TRIPOS>BOND
     1    1    2 1
     2    1   30 1
     3    1   31 1
     4    1   32 1
     5    2    3 1
     6    3    4 2
     7    3    5 1
     8    5    6 1
     9    5   27 1
    10    5   33 1
    11    6    7 1
    12    6   34 1
    13    6   35 1
    14    7   12 ar
    15    7    8 ar
    16    8    9 ar
    17    8   36 1
    18    9   10 ar
    19    9   37 1
    20   10   11 ar
    21   10   13 1
    22   11   12 ar
    23   11   38 1
    24   12   39 1
    25   13   14 1
    26   14   15 1
    27   14   40 1
    28   14   41 1
    29   15   16 1
    30   15   42 1
    31   15   43 1
    32   16   17 1
    33   17   26 ar
    34   17   18 ar
    35   18   19 ar
    36   18   44 1
    37   19   20 ar
    38   19   45 1
    39   20   25 ar
    40   20   21 ar
    41   21   22 ar
    42   21   46 1
    43   22   23 ar
    44   22   47 1
    45   23   24 ar
    46   23   48 1
    47   24   25 ar
    48   24   49 1
    49   25   26 ar
    50   26   50 1
    51   27   28 2
    52   27   29 1
@<TRIPOS>MOLECULE
CHEMBL331388__1
   50    52     0     0     0
SMALL
USER_CHARGES

@<TRIPOS>ATOM
      1 C1         -0.0173    1.4248    0.0099 C.3       1 <0>         0.0366
      2 O1          0.0021   -0.0041    0.0020 O.3       1 <0>        -0.3352
      3 C2         -1.1855   -0.6297    0.0100 C.2       1 <0>         0.4972
      4 O2         -2.2076    0.0145    0.0232 O.2       1 <0>        -0.5376
      5 C3         -1.2439   -2.1355    0.0025 C.3       1 <0>        -0.1571
      6 C4         -2.7051   -2.5893    0.0140 C.3       1 <0>        -0.0392
      7 C5         -2.7639   -4.0906    0.1303 C.ar      1 <0>        -0.0997
      8 C6         -2.7656   -4.8717   -1.0106 C.ar      1 <0>         0.0002
      9 C7         -2.8200   -6.2481   -0.9066 C.ar      1 <0>        -0.1539
     10 C8         -2.8725   -6.8466    0.3439 C.ar      1 <0>         0.1179
     11 C9         -2.8702   -6.0607    1.4871 C.ar      1 <0>        -0.2231
     12 C10        -2.8105   -4.6849    1.3779 C.ar      1 <0>        -0.0811
     13 O3         -2.9265   -8.2005    0.4487 O.3       1 <0>        -0.3122
     14 C11        -2.9786   -8.7474    1.7679 C.3       1 <0>         0.0623
     15 C12        -3.0347  -10.2742    1.6852 C.3       1 <0>         0.0620
     16 O4         -1.8177  -10.7656    1.1200 O.3       1 <0>        -0.3025
     17 C13        -1.7040  -12.1120    0.9758 C.ar      1 <0>         0.1365
     18 C14        -2.7593  -12.9400    1.3715 C.ar      1 <0>        -0.1891
     19 C15        -2.6752  -14.2908    1.2398 C.ar      1 <0>        -0.0674
     20 C16        -1.5130  -14.8675    0.6982 C.ar      1 <0>        -0.0864
     21 C17        -1.3928  -16.2595    0.5474 C.ar      1 <0>        -0.0949
     22 C18        -0.2535  -16.7841    0.0190 C.ar      1 <0>        -0.1315
     23 C19         0.7995  -15.9610   -0.3763 C.ar      1 <0>        -0.1082
     24 C20         0.7189  -14.6088   -0.2455 C.ar      1 <0>        -0.1130
     25 C21        -0.4422  -14.0304    0.2961 C.ar      1 <0>        -0.0119
     26 C22        -0.5628  -12.6385    0.4413 C.ar      1 <0>        -0.1547
     27 C23        -0.5653   -2.6584   -1.2374 C.2       1 <0>         0.5085
     28 O5         -0.0793   -1.8803   -2.0404 O.co2     1 <0>        -0.6810
     29 O6         -0.5024   -3.8594   -1.4374 O.co2     1 <0>        -0.6648
     30 H1          1.0053    1.8021    0.0021 H         1 <0>         0.0923
     31 H2         -0.5445    1.7859   -0.8732 H         1 <0>         0.0548
     32 H3         -0.5275    1.7763    0.9067 H         1 <0>         0.0492
     33 H4         -0.7361   -2.5233    0.8856 H         1 <0>         0.1011
     34 H5         -3.2188   -2.1386    0.8632 H         1 <0>         0.0671
     35 H6         -3.1897   -2.2772   -0.9111 H         1 <0>         0.0709
     36 H7         -2.7248   -4.4053   -1.9838 H         1 <0>         0.1275
     37 H8         -2.8220   -6.8578   -1.7981 H         1 <0>         0.1224
     38 H9         -2.9110   -6.5242    2.4617 H         1 <0>         0.1168
     39 H10        -2.8042   -4.0727    2.2677 H         1 <0>         0.1157
     40 H11        -2.0894   -8.4460    2.3216 H         1 <0>         0.0726
     41 H12        -3.8676   -8.3784    2.2794 H         1 <0>         0.0820
     42 H13        -3.1638  -10.6877    2.6853 H         1 <0>         0.0819
     43 H14        -3.8738  -10.5734    1.0571 H         1 <0>         0.0741
     44 H15        -3.6536  -12.5004    1.7879 H         1 <0>         0.1305
     45 H16        -3.4977  -14.9181    1.5502 H         1 <0>         0.1307
     46 H17        -2.2003  -16.9098    0.8497 H         1 <0>         0.1248
     47 H18        -0.1639  -17.8542   -0.0953 H         1 <0>         0.1210
     48 H19         1.6928  -16.4029   -0.7924 H         1 <0>         0.1225
     49 H20         1.5429  -13.9834   -0.5558 H         1 <0>         0.1288
     50 H21         0.2436  -11.9887    0.1353 H         1 <0>         0.1370
@<TRIPOS>BOND
     1    1    2 1
     2    1   30 1
     3    1   31 1
     4    1   32 1
     5    2    3 1
     6    3    4 2
     7    3    5 1
     8    5    6 1
     9    5   27 1
    10    5   33 1
    11    6    7 1
    12    6   34 1
    13    6   35 1
    14    7   12 ar
    15    7    8 ar
    16    8    9 ar
    17    8   36 1
    18    9   10 ar
    19    9   37 1
    20   10   11 ar
    21   10   13 1
    22   11   12 ar
    23   11   38 1
    24   12   39 1
    25   13   14 1
    26   14   15 1
    27   14   40 1
    28   14   41 1
    29   15   16 1
    30   15   42 1
    31   15   43 1
    32   16   17 1
    33   17   26 ar
    34   17   18 ar
    35   18   19 ar
    36   18   44 1
    37   19   20 ar
    38   19   45 1
    39   20   25 ar
    40   20   21 ar
    41   21   22 ar
    42   21   46 1
    43   22   23 ar
    44   22   47 1
    45   23   24 ar
    46   23   48 1
    47   24   25 ar
    48   24   49 1
    49   25   26 ar
    50   26   50 1
    51   27   28 2
    52   27   29 1
@<TRIPOS>MOLECULE
CHEMBL200207
   55    58     0     0     0
SMALL
USER_CHARGES

@<TRIPOS>ATOM
      1 C1          0.0525    1.4992    0.0805 C.3       1 <0>        -0.1541
      2 C2          0.0074   -0.0286    0.0134 C.3       1 <0>        -0.0950
      3 C3          0.6061   -0.4987   -1.3138 C.3       1 <0>        -0.1421
      4 C4          0.4006   -2.0078   -1.4600 C.3       1 <0>        -0.0212
      5 C5          0.9355   -2.4914   -2.8245 C.3       1 <0>        -0.1253
      6 C6         -0.3200   -2.4142   -3.7189 C.3       1 <0>        -0.0831
      7 C7         -1.4909   -2.5715   -2.7726 C.ar      1 <0>        -0.0567
      8 C8         -1.0769   -2.3378   -1.4738 C.ar      1 <0>        -0.1056
      9 C9         -1.9853   -2.4266   -0.4322 C.ar      1 <0>        -0.0698
     10 C10        -3.3040   -2.7483   -0.6839 C.ar      1 <0>        -0.2107
     11 C11        -3.7216   -2.9833   -1.9855 C.ar      1 <0>         0.1166
     12 C12        -2.8121   -2.8937   -3.0281 C.ar      1 <0>        -0.1421
     13 O1         -5.0186   -3.3011   -2.2382 O.3       1 <0>        -0.3162
     14 C13        -5.8988   -3.3759   -1.1149 C.3       1 <0>         0.0682
     15 C14        -7.3053   -3.7427   -1.5928 C.3       1 <0>        -0.0355
     16 C15        -8.2335   -3.8216   -0.4082 C.2       1 <0>        -0.0085
     17 C16        -8.4817   -4.9179    0.3333 C.2       1 <0>        -0.0083
     18 O2         -9.3623   -4.5631    1.2886 O.3       1 <0>        -0.1813
     19 C17        -9.6423   -3.2590    1.1218 C.2       1 <0>         0.2331
     20 N1         -8.9548   -2.8117    0.0983 N.2       1 <0>        -0.4185
     21 C18       -10.5675   -2.4607    1.9561 C.2       1 <0>         0.1889
     22 C19       -11.3061   -2.9320    3.0696 C.2       1 <0>        -0.2704
     23 C20       -12.0263   -1.9065    3.5559 C.2       1 <0>         0.0821
     24 O3        -11.7759   -0.8226    2.8052 O.3       1 <0>        -0.0592
     25 N2        -10.8468   -1.1875    1.8007 N.2       1 <0>        -0.2646
     26 C21       -12.9560   -1.9641    4.7405 C.3       1 <0>        -0.0898
     27 C22        -7.8853   -6.2871    0.1316 C.3       1 <0>        -0.0749
     28 C23         2.0804   -0.1878   -1.3380 C.2       1 <0>         0.4992
     29 O4          2.8330   -0.8552   -2.0271 O.co2     1 <0>        -0.6907
     30 O5          2.5208    0.7311   -0.6686 O.co2     1 <0>        -0.6890
     31 H1          1.0890    1.8294    0.1502 H         1 <0>         0.0958
     32 H2         -0.4019    1.9160   -0.8183 H         1 <0>         0.0341
     33 H3         -0.4973    1.8408    0.9575 H         1 <0>         0.0272
     34 H4          0.5832   -0.4458    0.8396 H         1 <0>         0.0490
     35 H5         -1.0269   -0.3651    0.0849 H         1 <0>         0.0417
     36 H6          0.1125    0.0167   -2.1378 H         1 <0>         0.0612
     37 H7          0.8987   -2.5371   -0.6477 H         1 <0>         0.0667
     38 H8          1.7154   -1.8251   -3.1932 H         1 <0>         0.1285
     39 H9          1.3003   -3.5163   -2.7565 H         1 <0>         0.0548
     40 H10        -0.3672   -1.4484   -4.2219 H         1 <0>         0.0773
     41 H11        -0.3135   -3.2224   -4.4503 H         1 <0>         0.0675
     42 H12        -1.6606   -2.2437    0.5815 H         1 <0>         0.1208
     43 H13        -4.0091   -2.8173    0.1313 H         1 <0>         0.1209
     44 H14        -3.1355   -3.0764   -4.0422 H         1 <0>         0.1234
     45 H15        -5.5402   -4.1375   -0.4225 H         1 <0>         0.0612
     46 H16        -5.9268   -2.4102   -0.6103 H         1 <0>         0.0653
     47 H17        -7.6638   -2.9811   -2.2852 H         1 <0>         0.0975
     48 H18        -7.2773   -4.7084   -2.0974 H         1 <0>         0.0959
     49 H19       -11.2930   -3.9392    3.4593 H         1 <0>         0.1682
     50 H20       -12.4022   -1.7269    5.6489 H         1 <0>         0.0986
     51 H21       -13.7607   -1.2412    4.6064 H         1 <0>         0.0905
     52 H22       -13.3776   -2.9659    4.8231 H         1 <0>         0.0982
     53 H23        -6.9638   -6.3706    0.7078 H         1 <0>         0.0938
     54 H24        -8.5935   -7.0449    0.4670 H         1 <0>         0.0852
     55 H25        -7.6673   -6.4363   -0.9259 H         1 <0>         0.1010
@<TRIPOS>BOND
     1    1    2 1
     2    1   31 1
     3    1   32 1
     4    1   33 1
     5    2    3 1
     6    2   34 1
     7    2   35 1
     8    3    4 1
     9    3   28 1
    10    3   36 1
    11    4    8 1
    12    4    5 1
    13    4   37 1
    14    5    6 1
    15    5   38 1
    16    5   39 1
    17    6    7 1
    18    6   40 1
    19    6   41 1
    20    7   12 ar
    21    7    8 ar
    22    8    9 ar
    23    9   10 ar
    24    9   42 1
    25   10   11 ar
    26   10   43 1
    27   11   12 ar
    28   11   13 1
    29   12   44 1
    30   13   14 1
    31   14   15 1
    32   14   45 1
    33   14   46 1
    34   15   16 1
    35   15   47 1
    36   15   48 1
    37   16   20 1
    38   16   17 2
    39   17   18 1
    40   17   27 1
    41   18   19 1
    42   19   20 2
    43   19   21 1
    44   21   25 2
    45   21   22 1
    46   22   23 2
    47   22   49 1
    48   23   24 1
    49   23   26 1
    50   24   25 1
    51   26   50 1
    52   26   51 1
    53   26   52 1
    54   27   53 1
    55   27   54 1
    56   27   55 1
    57   28   29 2
    58   28   30 1
@<TRIPOS>MOLECULE
CHEMBL200207__1
   55    58     0     0     0
SMALL
USER_CHARGES

@<TRIPOS>ATOM
      1 C1          0.0125    1.8056   -0.5483 C.3       1 <0>        -0.1444
      2 C2         -0.1995    0.3121   -0.2928 C.3       1 <0>        -0.1005
      3 C3          0.6046   -0.4987   -1.3110 C.3       1 <0>        -0.1485
      4 C4          0.3143   -1.9888   -1.1201 C.3       1 <0>        -0.0294
      5 C5         -1.1945   -2.2662   -1.2891 C.3       1 <0>        -0.1159
      6 C6         -1.2031   -3.6609   -1.9502 C.3       1 <0>        -0.0759
      7 C7          0.1178   -3.7601   -2.6829 C.ar      1 <0>        -0.0717
      8 C8          0.9903   -2.7989   -2.2057 C.ar      1 <0>        -0.1020
      9 C9          2.2671   -2.7015   -2.7334 C.ar      1 <0>        -0.0507
     10 C10         2.6742   -3.5604   -3.7346 C.ar      1 <0>        -0.2067
     11 C11         1.8009   -4.5251   -4.2149 C.ar      1 <0>         0.1163
     12 C12         0.5228   -4.6221   -3.6866 C.ar      1 <0>        -0.1474
     13 O1          2.1969   -5.3723   -5.2009 O.3       1 <0>        -0.3172
     14 C13         3.5275   -5.2133   -5.6973 C.3       1 <0>         0.0663
     15 C14         3.7897   -6.2477   -6.7937 C.3       1 <0>        -0.0340
     16 C15         5.1928   -6.0801   -7.3173 C.2       1 <0>        -0.0091
     17 C16         5.5690   -5.2863   -8.3380 C.2       1 <0>        -0.0066
     18 O2          6.9007   -5.4257   -8.4826 O.3       1 <0>        -0.1812
     19 C17         7.3232   -6.2997   -7.5527 C.2       1 <0>         0.2314
     20 N1          6.2895   -6.6901   -6.8461 N.2       1 <0>        -0.4181
     21 C18         8.7210   -6.7433   -7.3561 C.2       1 <0>         0.1903
     22 C19         9.8454   -6.3194   -8.1069 C.2       1 <0>        -0.2696
     23 C20        10.9304   -6.9483   -7.6230 C.2       1 <0>         0.0809
     24 O3         10.5420   -7.7406   -6.6118 O.3       1 <0>        -0.0600
     25 N2          9.1425   -7.5958   -6.4512 N.2       1 <0>        -0.2652
     26 C21        12.3410   -6.7912   -8.1295 C.3       1 <0>        -0.0892
     27 C22         4.6675   -4.4061   -9.1649 C.3       1 <0>        -0.0754
     28 C23         2.0758   -0.2435   -1.1071 C.2       1 <0>         0.5053
     29 O4          2.6291   -0.6408   -0.0959 O.co2     1 <0>        -0.6991
     30 O5          2.7128    0.3602   -1.9534 O.co2     1 <0>        -0.7027
     31 H1          1.0546    2.0624   -0.3581 H         1 <0>         0.0573
     32 H2         -0.2351    2.0357   -1.5846 H         1 <0>         0.0474
     33 H3         -0.6310    2.3828    0.1158 H         1 <0>         0.0407
     34 H4          0.1353    0.0647    0.7146 H         1 <0>         0.0603
     35 H5         -1.2583    0.0731   -0.3927 H         1 <0>         0.0476
     36 H6          0.3203   -0.1995   -2.3198 H         1 <0>         0.0584
     37 H7          0.6529   -2.3166   -0.1373 H         1 <0>         0.0875
     38 H8         -1.6943   -2.2935   -0.3208 H         1 <0>         0.0716
     39 H9         -1.6540   -1.5248   -1.9427 H         1 <0>         0.0701
     40 H10        -1.2736   -4.4392   -1.1904 H         1 <0>         0.0771
     41 H11        -2.0324   -3.7411   -2.6530 H         1 <0>         0.0701
     42 H12         2.9474   -1.9505   -2.3597 H         1 <0>         0.1425
     43 H13         3.6707   -3.4811   -4.1433 H         1 <0>         0.1217
     44 H14        -0.1585   -5.3727   -4.0594 H         1 <0>         0.1214
     45 H15         3.6445   -4.2106   -6.1083 H         1 <0>         0.0629
     46 H16         4.2385   -5.3579   -4.8839 H         1 <0>         0.0660
     47 H17         3.6727   -7.2505   -6.3828 H         1 <0>         0.0964
     48 H18         3.0787   -6.1032   -7.6072 H         1 <0>         0.0953
     49 H19         9.8329   -5.6145   -8.9251 H         1 <0>         0.1682
     50 H20        12.8329   -5.9821   -7.5896 H         1 <0>         0.0984
     51 H21        12.8895   -7.7197   -7.9712 H         1 <0>         0.0899
     52 H22        12.3209   -6.5580   -9.1941 H         1 <0>         0.0979
     53 H23         4.6024   -3.4196   -8.7059 H         1 <0>         0.0954
     54 H24         5.0750   -4.3124  -10.1715 H         1 <0>         0.0848
     55 H25         3.6732   -4.8498   -9.2152 H         1 <0>         0.1008
@<TRIPOS>BOND
     1    1    2 1
     2    1   31 1
     3    1   32 1
     4    1   33 1
     5    2    3 1
     6    2   34 1
     7    2   35 1
     8    3    4 1
     9    3   28 1
    10    3   36 1
    11    4    8 1
    12    4    5 1
    13    4   37 1
    14    5    6 1
    15    5   38 1
    16    5   39 1
    17    6    7 1
    18    6   40 1
    19    6   41 1
    20    7   12 ar
    21    7    8 ar
    22    8    9 ar
    23    9   10 ar
    24    9   42 1
    25   10   11 ar
    26   10   43 1
    27   11   12 ar
    28   11   13 1
    29   12   44 1
    30   13   14 1
    31   14   15 1
    32   14   45 1
    33   14   46 1
    34   15   16 1
    35   15   47 1
    36   15   48 1
    37   16   20 1
    38   16   17 2
    39   17   18 1
    40   17   27 1
    41   18   19 1
    42   19   20 2
    43   19   21 1
    44   21   25 2
    45   21   22 1
    46   22   23 2
    47   22   49 1
    48   23   24 1
    49   23   26 1
    50   24   25 1
    51   26   50 1
    52   26   51 1
    53   26   52 1
    54   27   53 1
    55   27   54 1
    56   27   55 1
    57   28   29 2
    58   28   30 1
@<TRIPOS>MOLECULE
CHEMBL200207__2
   55    58     0     0     0
SMALL
USER_CHARGES

@<TRIPOS>ATOM
      1 C1         -0.0187    1.5258    0.0104 C.3       1 <0>        -0.1450
      2 C2          0.0021   -0.0041    0.0020 C.3       1 <0>        -0.1019
      3 C3          0.7182   -0.4975   -1.2568 C.3       1 <0>        -0.1440
      4 C4          0.8493   -2.0210   -1.2049 C.3       1 <0>        -0.0282
      5 C5          1.7201   -2.4429   -0.0026 C.3       1 <0>        -0.1210
      6 C6          3.1299   -2.5216   -0.6259 C.3       1 <0>        -0.0749
      7 C7          2.8988   -2.8144   -2.0930 C.ar      1 <0>        -0.0671
      8 C8          1.5876   -2.5265   -2.4260 C.ar      1 <0>        -0.0984
      9 C9          1.1461   -2.7193   -3.7246 C.ar      1 <0>        -0.0450
     10 C10         2.0092   -3.1986   -4.6895 C.ar      1 <0>        -0.2056
     11 C11         3.3245   -3.4881   -4.3579 C.ar      1 <0>         0.1175
     12 C12         3.7663   -3.2945   -3.0581 C.ar      1 <0>        -0.1454
     13 O1          4.1776   -3.9608   -5.3042 O.3       1 <0>        -0.3169
     14 C13         3.6526   -4.1360   -6.6217 C.3       1 <0>         0.0667
     15 C14         4.7516   -4.6716   -7.5416 C.3       1 <0>        -0.0347
     16 C15         4.1979   -4.8563   -8.9310 C.2       1 <0>        -0.0073
     17 C16         3.6142   -5.9711   -9.4105 C.2       1 <0>        -0.0096
     18 O2          3.2619   -5.7205  -10.6860 O.3       1 <0>        -0.1817
     19 C17         3.6323   -4.4603  -10.9719 C.2       1 <0>         0.2325
     20 N1          4.1935   -3.9382   -9.9076 N.2       1 <0>        -0.4174
     21 C18         3.4356   -3.7754  -12.2687 C.2       1 <0>         0.1892
     22 C19         2.8212   -4.3271  -13.4201 C.2       1 <0>        -0.2698
     23 C20         2.8348   -3.3935  -14.3871 C.2       1 <0>         0.0808
     24 O3          3.4243   -2.2908  -13.8997 O.3       1 <0>        -0.0593
     25 N2          3.7939   -2.5458  -12.5567 N.2       1 <0>        -0.2634
     26 C21         2.2831   -3.5573  -15.7799 C.3       1 <0>        -0.0892
     27 C22         3.3962   -7.2595   -8.6597 C.3       1 <0>        -0.0740
     28 C23        -0.0771   -0.1029   -2.4745 C.2       1 <0>         0.5061
     29 O4          0.4235    0.6153   -3.3231 O.co2     1 <0>        -0.7001
     30 O5         -1.2211   -0.5017   -2.6110 O.co2     1 <0>        -0.7025
     31 H1          1.0039    1.9031    0.0027 H         1 <0>         0.0458
     32 H2         -0.5459    1.8868   -0.8726 H         1 <0>         0.0580
     33 H3         -0.5289    1.8773    0.9072 H         1 <0>         0.0418
     34 H4          0.5293   -0.3651    0.8851 H         1 <0>         0.0479
     35 H5         -1.0205   -0.3814    0.0098 H         1 <0>         0.0626
     36 H6          1.7103   -0.0491   -1.3098 H         1 <0>         0.0578
     37 H7         -0.1360   -2.4827   -1.1407 H         1 <0>         0.0788
     38 H8          1.6858   -1.6893    0.7841 H         1 <0>         0.0787
     39 H9          1.4099   -3.4161    0.3779 H         1 <0>         0.0660
     40 H10         3.6495   -1.5708   -0.5072 H         1 <0>         0.0785
     41 H11         3.7027   -3.3265   -0.1652 H         1 <0>         0.0695
     42 H12         0.1221   -2.4940   -3.9832 H         1 <0>         0.1276
     43 H13         1.6607   -3.3482   -5.7008 H         1 <0>         0.1213
     44 H14         4.7901   -3.5193   -2.7981 H         1 <0>         0.1218
     45 H15         2.8258   -4.8457   -6.5919 H         1 <0>         0.0613
     46 H16         3.2960   -3.1784   -7.0009 H         1 <0>         0.0670
     47 H17         5.5784   -3.9619   -7.5714 H         1 <0>         0.0972
     48 H18         5.1082   -5.6292   -7.1623 H         1 <0>         0.0951
     49 H19         2.4137   -5.3236  -13.5059 H         1 <0>         0.1679
     50 H20         1.2371   -3.2510  -15.7947 H         1 <0>         0.0984
     51 H21         2.8531   -2.9371  -16.4717 H         1 <0>         0.0900
     52 H22         2.3600   -4.6021  -16.0807 H         1 <0>         0.0977
     53 H23         2.4287   -7.2287   -8.1585 H         1 <0>         0.0939
     54 H24         3.4168   -8.0954   -9.3589 H         1 <0>         0.0844
     55 H25         4.1854   -7.3861   -7.9186 H         1 <0>         0.1005
@<TRIPOS>BOND
     1    1    2 1
     2    1   31 1
     3    1   32 1
     4    1   33 1
     5    2    3 1
     6    2   34 1
     7    2   35 1
     8    3    4 1
     9    3   28 1
    10    3   36 1
    11    4    8 1
    12    4    5 1
    13    4   37 1
    14    5    6 1
    15    5   38 1
    16    5   39 1
    17    6    7 1
    18    6   40 1
    19    6   41 1
    20    7   12 ar
    21    7    8 ar
    22    8    9 ar
    23    9   10 ar
    24    9   42 1
    25   10   11 ar
    26   10   43 1
    27   11   12 ar
    28   11   13 1
    29   12   44 1
    30   13   14 1
    31   14   15 1
    32   14   45 1
    33   14   46 1
    34   15   16 1
    35   15   47 1
    36   15   48 1
    37   16   20 1
    38   16   17 2
    39   17   18 1
    40   17   27 1
    41   18   19 1
    42   19   20 2
    43   19   21 1
    44   21   25 2
    45   21   22 1
    46   22   23 2
    47   22   49 1
    48   23   24 1
    49   23   26 1
    50   24   25 1
    51   26   50 1
    52   26   51 1
    53   26   52 1
    54   27   53 1
    55   27   54 1
    56   27   55 1
    57   28   29 2
    58   28   30 1
@<TRIPOS>MOLECULE
CHEMBL200207__3
   55    58     0     0     0
SMALL
USER_CHARGES

@<TRIPOS>ATOM
      1 C1         -0.0413    0.7206   -3.3017 C.3       1 <0>        -0.1438
      2 C2          0.1503   -0.6589   -2.6683 C.3       1 <0>        -0.0982
      3 C3          0.7182   -0.4975   -1.2568 C.3       1 <0>        -0.1523
      4 C4          0.7680   -1.8627   -0.5679 C.3       1 <0>        -0.0268
      5 C5          1.7514   -2.7979   -1.3030 C.3       1 <0>        -0.1289
      6 C6          2.3519   -3.6234   -0.1454 C.3       1 <0>        -0.0774
      7 C7          2.2355   -2.7364    1.0757 C.ar      1 <0>        -0.0610
      8 C8          1.3248   -1.7242    0.8330 C.ar      1 <0>        -0.0947
      9 C9          1.0556   -0.7864    1.8160 C.ar      1 <0>        -0.0382
     10 C10         1.6923   -0.8570    3.0388 C.ar      1 <0>        -0.2064
     11 C11         2.6061   -1.8711    3.2845 C.ar      1 <0>         0.1174
     12 C12         2.8756   -2.8096    2.3003 C.ar      1 <0>        -0.1442
     13 O1          3.2360   -1.9444    4.4865 O.3       1 <0>        -0.3172
     14 C13         2.9091   -0.9431    5.4523 C.3       1 <0>         0.0677
     15 C14         3.7109   -1.1879    6.7322 C.3       1 <0>        -0.0350
     16 C15         3.3662   -0.1320    7.7506 C.2       1 <0>        -0.0091
     17 C16         3.9828    1.0557    7.9015 C.2       1 <0>        -0.0044
     18 O2          3.3719    1.6967    8.9163 O.3       1 <0>        -0.1814
     19 C17         2.3923    0.8977    9.3734 C.2       1 <0>         0.2285
     20 N1          2.3876   -0.2053    8.6637 N.2       1 <0>        -0.4180
     21 C18         1.4706    1.2119   10.4874 C.2       1 <0>         0.1915
     22 C19         1.4609    2.4044   11.2526 C.2       1 <0>        -0.2696
     23 C20         0.4787    2.3056   12.1650 C.2       1 <0>         0.0807
     24 O3         -0.1232    1.1163   12.0090 O.3       1 <0>        -0.0607
     25 N2          0.5117    0.4381   10.9402 N.2       1 <0>        -0.2663
     26 C21         0.1161    3.3510   13.1881 C.3       1 <0>        -0.0892
     27 C22         5.1410    1.5713    7.0869 C.3       1 <0>        -0.0767
     28 C23         2.1097    0.0754   -1.3376 C.2       1 <0>         0.5078
     29 O4          2.5237    0.7990   -0.4480 O.co2     1 <0>        -0.6961
     30 O5          2.8216   -0.1847   -2.2927 O.co2     1 <0>        -0.6974
     31 H1         -0.7336    1.3055   -2.6962 H         1 <0>         0.0399
     32 H2          0.9192    1.2335   -3.3529 H         1 <0>         0.0616
     33 H3         -0.4458    0.6056   -4.3073 H         1 <0>         0.0403
     34 H4         -0.8101   -1.1717   -2.6171 H         1 <0>         0.0377
     35 H5          0.8427   -1.2437   -3.2738 H         1 <0>         0.0686
     36 H6          0.0809    0.1757   -0.6835 H         1 <0>         0.0551
     37 H7         -0.2271   -2.3066   -0.5372 H         1 <0>         0.0675
     38 H8          1.2219   -3.4426   -2.0046 H         1 <0>         0.0637
     39 H9          2.5256   -2.2234   -1.8116 H         1 <0>         0.1090
     40 H10         1.7832   -4.5421   -0.0012 H         1 <0>         0.0719
     41 H11         3.3980   -3.8531   -0.3477 H         1 <0>         0.0706
     42 H12         0.3442    0.0035    1.6251 H         1 <0>         0.1168
     43 H13         1.4796   -0.1237    3.8026 H         1 <0>         0.1193
     44 H14         3.5868   -3.6000    2.4899 H         1 <0>         0.1211
     45 H15         3.1543    0.0410    5.0526 H         1 <0>         0.0628
     46 H16         1.8435   -0.9889    5.6767 H         1 <0>         0.0637
     47 H17         3.4658   -2.1719    7.1318 H         1 <0>         0.0961
     48 H18         4.7766   -1.1421    6.5077 H         1 <0>         0.0961
     49 H19         2.1264    3.2454   11.1253 H         1 <0>         0.1683
     50 H20        -0.6316    4.0249   12.7697 H         1 <0>         0.0981
     51 H21        -0.2888    2.8654   14.0760 H         1 <0>         0.0899
     52 H22         1.0062    3.9189   13.4586 H         1 <0>         0.0981
     53 H23         4.7628    2.1214    6.2252 H         1 <0>         0.0965
     54 H24         5.7512    2.2333    7.7013 H         1 <0>         0.0850
     55 H25         5.7468    0.7321    6.7449 H         1 <0>         0.1019
@<TRIPOS>BOND
     1    1    2 1
     2    1   31 1
     3    1   32 1
     4    1   33 1
     5    2    3 1
     6    2   34 1
     7    2   35 1
     8    3    4 1
     9    3   28 1
    10    3   36 1
    11    4    8 1
    12    4    5 1
    13    4   37 1
    14    5    6 1
    15    5   38 1
    16    5   39 1
    17    6    7 1
    18    6   40 1
    19    6   41 1
    20    7   12 ar
    21    7    8 ar
    22    8    9 ar
    23    9   10 ar
    24    9   42 1
    25   10   11 ar
    26   10   43 1
    27   11   12 ar
    28   11   13 1
    29   12   44 1
    30   13   14 1
    31   14   15 1
    32   14   45 1
    33   14   46 1
    34   15   16 1
    35   15   47 1
    36   15   48 1
    37   16   20 1
    38   16   17 2
    39   17   18 1
    40   17   27 1
    41   18   19 1
    42   19   20 2
    43   19   21 1
    44   21   25 2
    45   21   22 1
    46   22   23 2
    47   22   49 1
    48   23   24 1
    49   23   26 1
    50   24   25 1
    51   26   50 1
    52   26   51 1
    53   26   52 1
    54   27   53 1
    55   27   54 1
    56   27   55 1
    57   28   29 2
    58   28   30 1
@<TRIPOS>MOLECULE
CHEMBL383011
   62    65     0     0     0
SMALL
USER_CHARGES

@<TRIPOS>ATOM
      1 C1          0.5946    1.6566    3.7719 C.ar      1 <0>        -0.0830
      2 C2          1.7204    2.3364    3.3489 C.ar      1 <0>        -0.1538
      3 C3          2.8799    1.6364    3.0485 C.ar      1 <0>         0.1106
      4 C4          2.9056    0.2550    3.1738 C.ar      1 <0>        -0.2031
      5 C5          1.7772   -0.4201    3.5972 C.ar      1 <0>        -0.0561
      6 C6          0.6228    0.2799    3.8960 C.ar      1 <0>        -0.0941
      7 C7         -0.6066   -0.4591    4.3581 C.3       1 <0>        -0.0555
      8 C8         -1.4578   -0.8414    3.1456 C.3       1 <0>        -0.1403
      9 C9         -2.7643   -1.4803    3.6206 C.3       1 <0>        -0.0839
     10 C10        -3.8991   -1.4045    2.5856 C.3       1 <0>        -0.1339
     11 C11        -4.8445   -1.1033    3.7605 C.3       1 <0>        -0.1424
     12 C12        -3.6161   -0.5554    4.5059 C.3       1 <0>        -0.1389
     13 C13        -0.7003   -1.8237    2.2897 C.2       1 <0>         0.5055
     14 O1         -0.3520   -2.8956    2.7548 O.co2     1 <0>        -0.7030
     15 O2         -0.4359   -1.5466    1.1323 O.co2     1 <0>        -0.7007
     16 O3          3.9885    2.3028    2.6317 O.3       1 <0>        -0.3166
     17 C14         5.1462    1.5175    2.3401 C.3       1 <0>         0.0645
     18 C15         6.2847    2.4350    1.8895 C.3       1 <0>        -0.1170
     19 C16         7.5242    1.5941    1.5773 C.3       1 <0>         0.0617
     20 O4          8.5875    2.4510    1.1565 O.3       1 <0>        -0.2983
     21 C17         9.7694    1.8580    0.8385 C.ar      1 <0>         0.1169
     22 C18         9.8991    0.4800    0.9249 C.ar      1 <0>        -0.1584
     23 C19        11.0995   -0.1226    0.6026 C.ar      1 <0>        -0.1465
     24 C20        12.1760    0.6505    0.1922 C.ar      1 <0>         0.0942
     25 C21        12.0471    2.0288    0.1056 C.ar      1 <0>        -0.0982
     26 C22        10.8440    2.6314    0.4222 C.ar      1 <0>        -0.0344
     27 Cl1        10.6796    4.3557    0.3066 Cl        1 <0>        -0.0422
     28 O5         13.3575    0.0570   -0.1245 O.3       1 <0>        -0.2524
     29 C23        13.4364   -1.2968   -0.0327 C.ar      1 <0>         0.0706
     30 C24        13.1215   -2.0867   -1.1290 C.ar      1 <0>        -0.0946
     31 C25        13.2021   -3.4624   -1.0342 C.ar      1 <0>        -0.1397
     32 C26        13.5969   -4.0532    0.1542 C.ar      1 <0>         0.1048
     33 C27        13.9110   -3.2663    1.2493 C.ar      1 <0>        -0.1403
     34 C28        13.8373   -1.8901    1.1556 C.ar      1 <0>        -0.0951
     35 F1         13.6752   -5.3989    0.2454 F         1 <0>        -0.1334
     36 H1         -0.3069    2.2015    4.0102 H         1 <0>         0.1233
     37 H2          1.6977    3.4118    3.2518 H         1 <0>         0.1236
     38 H3          3.8069   -0.2921    2.9402 H         1 <0>         0.1205
     39 H4          1.7967   -1.4954    3.6949 H         1 <0>         0.1296
     40 H5         -0.3089   -1.3615    4.8921 H         1 <0>         0.0715
     41 H6         -1.1872    0.1812    5.0222 H         1 <0>         0.0571
     42 H7         -1.6812    0.0519    2.5623 H         1 <0>         0.0583
     43 H8         -2.6205   -2.4758    4.0406 H         1 <0>         0.0891
     44 H9         -3.7961   -0.5761    1.8846 H         1 <0>         0.0768
     45 H10        -4.1045   -2.3546    2.0924 H         1 <0>         0.0601
     46 H11        -5.5930   -0.3437    3.5349 H         1 <0>         0.0587
     47 H12        -5.2705   -1.9961    4.2180 H         1 <0>         0.0736
     48 H13        -3.5930   -0.8200    5.5631 H         1 <0>         0.0590
     49 H14        -3.4357    0.5051    4.3300 H         1 <0>         0.0751
     50 H15         5.4505    0.9730    3.2340 H         1 <0>         0.0631
     51 H16         4.9139    0.8092    1.5448 H         1 <0>         0.0657
     52 H17         5.9804    2.9794    0.9956 H         1 <0>         0.0873
     53 H18         6.5170    3.1432    2.6848 H         1 <0>         0.0861
     54 H19         7.8285    1.0497    2.4712 H         1 <0>         0.0688
     55 H20         7.2919    0.8859    0.7820 H         1 <0>         0.0701
     56 H21         9.0615   -0.1222    1.2447 H         1 <0>         0.1441
     57 H22        11.2002   -1.1957    0.6704 H         1 <0>         0.1367
     58 H23        12.8853    2.6307   -0.2132 H         1 <0>         0.1505
     59 H24        12.8132   -1.6261   -2.0560 H         1 <0>         0.1438
     60 H25        12.9567   -4.0775   -1.8874 H         1 <0>         0.1457
     61 H26        14.2181   -3.7286    2.1758 H         1 <0>         0.1453
     62 H27        14.0870   -1.2764    2.0085 H         1 <0>         0.1434
@<TRIPOS>BOND
     1    1    6 ar
     2    1    2 ar
     3    1   36 1
     4    2    3 ar
     5    2   37 1
     6    3    4 ar
     7    3   16 1
     8    4    5 ar
     9    4   38 1
    10    5    6 ar
    11    5   39 1
    12    6    7 1
    13    7    8 1
    14    7   40 1
    15    7   41 1
    16    8    9 1
    17    8   13 1
    18    8   42 1
    19    9   12 1
    20    9   10 1
    21    9   43 1
    22   10   11 1
    23   10   44 1
    24   10   45 1
    25   11   12 1
    26   11   46 1
    27   11   47 1
    28   12   48 1
    29   12   49 1
    30   13   14 2
    31   13   15 1
    32   16   17 1
    33   17   18 1
    34   17   50 1
    35   17   51 1
    36   18   19 1
    37   18   52 1
    38   18   53 1
    39   19   20 1
    40   19   54 1
    41   19   55 1
    42   20   21 1
    43   21   26 ar
    44   21   22 ar
    45   22   23 ar
    46   22   56 1
    47   23   24 ar
    48   23   57 1
    49   24   25 ar
    50   24   28 1
    51   25   26 ar
    52   25   58 1
    53   26   27 1
    54   28   29 1
    55   29   34 ar
    56   29   30 ar
    57   30   31 ar
    58   30   59 1
    59   31   32 ar
    60   31   60 1
    61   32   33 ar
    62   32   35 1
    63   33   34 ar
    64   33   61 1
    65   34   62 1
@<TRIPOS>MOLECULE
CHEMBL383011__1
   62    65     0     0     0
SMALL
USER_CHARGES

@<TRIPOS>ATOM
      1 C1         -0.3307    3.2357    0.2553 C.ar      1 <0>        -0.0822
      2 C2          0.9846    3.6555    0.2083 C.ar      1 <0>        -0.1475
      3 C3          2.0109    2.7228    0.2458 C.ar      1 <0>         0.1082
      4 C4          1.7134    1.3704    0.3303 C.ar      1 <0>        -0.2066
      5 C5          0.3964    0.9557    0.3770 C.ar      1 <0>        -0.0745
      6 C6         -0.6246    1.8872    0.3395 C.ar      1 <0>        -0.0871
      7 C7         -2.0603    1.4321    0.3910 C.3       1 <0>        -0.0541
      8 C8         -2.6264    1.3683   -1.0290 C.3       1 <0>        -0.1369
      9 C9         -1.9039    0.2741   -1.8174 C.3       1 <0>        -0.0805
     10 C10        -0.5584    0.7271   -2.4086 C.3       1 <0>        -0.1310
     11 C11        -0.9305   -0.0752   -3.6666 C.3       1 <0>        -0.1544
     12 C12        -2.4011    0.1275   -3.2652 C.3       1 <0>        -0.1064
     13 C13        -4.0992    1.0549   -0.9691 C.2       1 <0>         0.4961
     14 O1         -4.6629    0.9787    0.1094 O.co2     1 <0>        -0.7017
     15 O2         -4.7272    0.8776   -1.9990 O.co2     1 <0>        -0.6943
     16 O3          3.3056    3.1332    0.1993 O.3       1 <0>        -0.3162
     17 C14         4.3101    2.1177    0.2420 C.3       1 <0>         0.0665
     18 C15         5.6943    2.7665    0.1798 C.3       1 <0>        -0.1187
     19 C16         6.7697    1.6792    0.2256 C.3       1 <0>         0.0625
     20 O4          8.0626    2.2852    0.1675 O.3       1 <0>        -0.2980
     21 C17         9.1370    1.4520    0.1983 C.ar      1 <0>         0.1163
     22 C18         8.9487    0.0803    0.2768 C.ar      1 <0>        -0.1586
     23 C19        10.0397   -0.7663    0.3085 C.ar      1 <0>        -0.1487
     24 C20        11.3245   -0.2447    0.2619 C.ar      1 <0>         0.0946
     25 C21        11.5137    1.1272    0.1833 C.ar      1 <0>        -0.0972
     26 C22        10.4219    1.9741    0.1453 C.ar      1 <0>        -0.0340
     27 Cl1        10.6578    3.6907    0.0393 Cl        1 <0>        -0.0409
     28 O5         12.3981   -1.0782    0.2936 O.3       1 <0>        -0.2510
     29 C23        12.1695   -2.4070    0.4658 C.ar      1 <0>         0.0723
     30 C24        11.7046   -3.1745   -0.5923 C.ar      1 <0>        -0.1042
     31 C25        11.4727   -4.5248   -0.4157 C.ar      1 <0>        -0.1390
     32 C26        11.7038   -5.1123    0.8166 C.ar      1 <0>         0.1033
     33 C27        12.1673   -4.3475    1.8737 C.ar      1 <0>        -0.1386
     34 C28        12.4061   -2.9982    1.6984 C.ar      1 <0>        -0.0901
     35 F1         11.4765   -6.4330    0.9878 F         1 <0>        -0.1334
     36 H1         -1.1300    3.9616    0.2307 H         1 <0>         0.1271
     37 H2          1.2136    4.7088    0.1422 H         1 <0>         0.1245
     38 H3          2.5106    0.6424    0.3592 H         1 <0>         0.1195
     39 H4          0.1643   -0.0970    0.4428 H         1 <0>         0.1206
     40 H5         -2.1120    0.4436    0.8474 H         1 <0>         0.0638
     41 H6         -2.6439    2.1368    0.9834 H         1 <0>         0.0730
     42 H7         -2.4791    2.3290   -1.5224 H         1 <0>         0.0616
     43 H8         -1.8488   -0.6708   -1.2769 H         1 <0>         0.0727
     44 H9         -0.4961    1.8019   -2.5788 H         1 <0>         0.0715
     45 H10         0.3073    0.3306   -1.8780 H         1 <0>         0.0582
     46 H11        -0.6595    0.4223   -4.5978 H         1 <0>         0.0553
     47 H12        -0.6080   -1.1158   -3.6321 H         1 <0>         0.0681
     48 H13        -3.0231   -0.7530   -3.4262 H         1 <0>         0.0580
     49 H14        -2.8425    1.0384   -3.6696 H         1 <0>         0.0820
     50 H15         4.2154    1.5517    1.1687 H         1 <0>         0.0630
     51 H16         4.1848    1.4468   -0.6079 H         1 <0>         0.0637
     52 H17         5.7890    3.3325   -0.7469 H         1 <0>         0.0875
     53 H18         5.8195    3.4374    1.0297 H         1 <0>         0.0871
     54 H19         6.6750    1.1133    1.1523 H         1 <0>         0.0685
     55 H20         6.6445    1.0083   -0.6243 H         1 <0>         0.0688
     56 H21         7.9487   -0.3262    0.3135 H         1 <0>         0.1433
     57 H22         9.8926   -1.8344    0.3700 H         1 <0>         0.1380
     58 H23        12.5138    1.5333    0.1477 H         1 <0>         0.1511
     59 H24        11.5239   -2.7164   -1.5535 H         1 <0>         0.1432
     60 H25        11.1105   -5.1224   -1.2391 H         1 <0>         0.1453
     61 H26        12.3465   -4.8070    2.8345 H         1 <0>         0.1460
     62 H27        12.7722   -2.4029    2.5218 H         1 <0>         0.1445
@<TRIPOS>BOND
     1    1    6 ar
     2    1    2 ar
     3    1   36 1
     4    2    3 ar
     5    2   37 1
     6    3    4 ar
     7    3   16 1
     8    4    5 ar
     9    4   38 1
    10    5    6 ar
    11    5   39 1
    12    6    7 1
    13    7    8 1
    14    7   40 1
    15    7   41 1
    16    8    9 1
    17    8   13 1
    18    8   42 1
    19    9   12 1
    20    9   10 1
    21    9   43 1
    22   10   11 1
    23   10   44 1
    24   10   45 1
    25   11   12 1
    26   11   46 1
    27   11   47 1
    28   12   48 1
    29   12   49 1
    30   13   14 2
    31   13   15 1
    32   16   17 1
    33   17   18 1
    34   17   50 1
    35   17   51 1
    36   18   19 1
    37   18   52 1
    38   18   53 1
    39   19   20 1
    40   19   54 1
    41   19   55 1
    42   20   21 1
    43   21   26 ar
    44   21   22 ar
    45   22   23 ar
    46   22   56 1
    47   23   24 ar
    48   23   57 1
    49   24   25 ar
    50   24   28 1
    51   25   26 ar
    52   25   58 1
    53   26   27 1
    54   28   29 1
    55   29   34 ar
    56   29   30 ar
    57   30   31 ar
    58   30   59 1
    59   31   32 ar
    60   31   60 1
    61   32   33 ar
    62   32   35 1
    63   33   34 ar
    64   33   61 1
    65   34   62 1
@<TRIPOS>MOLECULE
CHEMBL247937
   73    76     0     0     0
SMALL
USER_CHARGES

@<TRIPOS>ATOM
      1 C1          0.4629    1.2969   -0.5076 C.3       1 <0>        -0.1430
      2 C2          0.7501   -0.1446   -0.9322 C.3       1 <0>         0.0656
      3 O1          1.3674   -0.1475   -2.2210 O.3       1 <0>        -0.3671
      4 C3          1.6790   -1.4524   -2.7133 C.3       1 <0>         0.0330
      5 H1          0.9610   -2.1709   -2.3179 H         1 <0>         0.0490
      6 C4          1.6100   -1.4508   -4.2417 C.3       1 <0>        -0.0611
      7 C5          0.1925   -1.1873   -4.6803 C.ar      1 <0>        -0.0960
      8 C6         -0.6799   -2.2436   -4.8669 C.ar      1 <0>        -0.0820
      9 C7         -1.9796   -2.0048   -5.2693 C.ar      1 <0>        -0.1507
     10 C8         -2.4095   -0.7036   -5.4858 C.ar      1 <0>         0.1109
     11 C9         -1.5324    0.3546   -5.2974 C.ar      1 <0>        -0.2085
     12 C10        -0.2351    0.1108   -4.8899 C.ar      1 <0>        -0.0621
     13 O2         -3.6875   -0.4660   -5.8821 O.3       1 <0>        -0.3143
     14 C11        -4.0605    0.8983   -6.0860 C.3       1 <0>         0.0887
     15 C12        -5.5023    0.9655   -6.5195 C.2       1 <0>        -0.1243
     16 C13        -6.3175    1.8571   -5.9740 C.2       1 <0>        -0.1125
     17 C14        -7.7318    1.9230   -6.3992 C.ar      1 <0>         0.0257
     18 C15        -8.2118    1.0441   -7.3700 C.ar      1 <0>        -0.1841
     19 C16        -9.5378    1.1087   -7.7653 C.ar      1 <0>         0.1730
     20 C17       -10.3880    2.0461   -7.1970 C.ar      1 <0>        -0.2458
     21 C18        -9.9144    2.9224   -6.2314 C.ar      1 <0>         0.1717
     22 C19        -8.5912    2.8604   -5.8265 C.ar      1 <0>        -0.2349
     23 O3        -10.7511    3.8395   -5.6783 O.3       1 <0>        -0.3075
     24 C20       -10.1691    4.7972   -4.7916 C.3       1 <0>         0.0785
     25 C21       -10.1551    4.2439   -3.3517 C.3       1 <0>        -0.1484
     26 C22       -10.4541    5.4796   -2.4670 C.3       1 <0>        -0.1242
     27 C23       -11.4993    6.2559   -3.3062 C.3       1 <0>        -0.1235
     28 C24       -11.0237    6.0764   -4.7627 C.3       1 <0>        -0.1221
     29 O4        -10.0063    0.2530   -8.7115 O.3       1 <0>        -0.3028
     30 C25       -11.3476    0.4544   -9.1612 C.3       1 <0>         0.0784
     31 C26       -12.3333   -0.2803   -8.2294 C.3       1 <0>        -0.1493
     32 C27       -13.4311   -0.8143   -9.1828 C.3       1 <0>        -0.1237
     33 C28       -12.6213   -1.2377  -10.4334 C.3       1 <0>        -0.1237
     34 C29       -11.5307   -0.1543  -10.5625 C.3       1 <0>        -0.1220
     35 C30         3.0683   -1.8366   -2.2736 C.2       1 <0>         0.4772
     36 O5          3.4962   -2.9531   -2.5118 O.co2     1 <0>        -0.7000
     37 O6          3.7644   -1.0308   -1.6796 O.co2     1 <0>        -0.6802
     38 H2          1.3976    1.8560   -0.4640 H         1 <0>         0.0624
     39 H3         -0.2056    1.7627   -1.2317 H         1 <0>         0.0534
     40 H4         -0.0080    1.2992    0.4755 H         1 <0>         0.0598
     41 H5          1.4186   -0.6103   -0.2081 H         1 <0>         0.0456
     42 H6         -0.1846   -0.7037   -0.9758 H         1 <0>         0.0299
     43 H7          2.2626   -0.6709   -4.6341 H         1 <0>         0.0733
     44 H8          1.9334   -2.4201   -4.6210 H         1 <0>         0.0874
     45 H9         -0.3448   -3.2564   -4.6982 H         1 <0>         0.1290
     46 H10        -2.6605   -2.8303   -5.4156 H         1 <0>         0.1257
     47 H11        -1.8646    1.3684   -5.4653 H         1 <0>         0.1217
     48 H12         0.4469    0.9345   -4.7389 H         1 <0>         0.1264
     49 H13        -3.9346    1.4523   -5.1558 H         1 <0>         0.0687
     50 H14        -3.4282    1.3363   -6.8582 H         1 <0>         0.0755
     51 H15        -5.8713    0.2871   -7.2745 H         1 <0>         0.1275
     52 H16        -5.9485    2.5354   -5.2189 H         1 <0>         0.1250
     53 H17        -7.5504    0.3143   -7.8131 H         1 <0>         0.1355
     54 H18       -11.4214    2.0940   -7.5074 H         1 <0>         0.1356
     55 H19        -8.2244    3.5398   -5.0713 H         1 <0>         0.1323
     56 H20        -9.1542    5.0333   -5.1116 H         1 <0>         0.0795
     57 H21       -10.9303    3.4881   -3.2258 H         1 <0>         0.0799
     58 H22        -9.1755    3.8307   -3.1112 H         1 <0>         0.0734
     59 H23       -10.8764    5.1759   -1.5091 H         1 <0>         0.0723
     60 H24        -9.5544    6.0775   -2.3216 H         1 <0>         0.0710
     61 H25       -12.4916    5.8249   -3.1731 H         1 <0>         0.0693
     62 H26       -11.5007    7.3110   -3.0326 H         1 <0>         0.0706
     63 H27       -10.4234    6.9335   -5.0678 H         1 <0>         0.0777
     64 H28       -11.8825    5.9667   -5.4251 H         1 <0>         0.0803
     65 H29       -11.5776    1.5196   -9.1839 H         1 <0>         0.0782
     66 H30       -11.8348   -1.1058   -7.7214 H         1 <0>         0.0810
     67 H31       -12.7614    0.4122   -7.5046 H         1 <0>         0.0722
     68 H32       -13.9403   -1.6722   -8.7436 H         1 <0>         0.0719
     69 H33       -14.1428   -0.0271   -9.4317 H         1 <0>         0.0696
     70 H34       -12.1692   -2.2178  -10.2813 H         1 <0>         0.0706
     71 H35       -13.2594   -1.2439  -11.3170 H         1 <0>         0.0704
     72 H36       -11.8503    0.6153  -11.2651 H         1 <0>         0.0774
     73 H37       -10.5964   -0.6033  -10.8996 H         1 <0>         0.0824
@<TRIPOS>BOND
     1    1    2 1
     2    1   38 1
     3    1   39 1
     4    1   40 1
     5    2    3 1
     6    2   41 1
     7    2   42 1
     8    3    4 1
     9    4    5 1
    10    4    6 1
    11    4   35 1
    12    6    7 1
    13    6   43 1
    14    6   44 1
    15    7   12 ar
    16    7    8 ar
    17    8    9 ar
    18    8   45 1
    19    9   10 ar
    20    9   46 1
    21   10   11 ar
    22   10   13 1
    23   11   12 ar
    24   11   47 1
    25   12   48 1
    26   13   14 1
    27   14   15 1
    28   14   49 1
    29   14   50 1
    30   15   16 2
    31   15   51 1
    32   16   17 1
    33   16   52 1
    34   17   22 ar
    35   17   18 ar
    36   18   19 ar
    37   18   53 1
    38   19   20 ar
    39   19   29 1
    40   20   21 ar
    41   20   54 1
    42   21   22 ar
    43   21   23 1
    44   22   55 1
    45   23   24 1
    46   24   28 1
    47   24   25 1
    48   24   56 1
    49   25   26 1
    50   25   57 1
    51   25   58 1
    52   26   27 1
    53   26   59 1
    54   26   60 1
    55   27   28 1
    56   27   61 1
    57   27   62 1
    58   28   63 1
    59   28   64 1
    60   29   30 1
    61   30   34 1
    62   30   31 1
    63   30   65 1
    64   31   32 1
    65   31   66 1
    66   31   67 1
    67   32   33 1
    68   32   68 1
    69   32   69 1
    70   33   34 1
    71   33   70 1
    72   33   71 1
    73   34   72 1
    74   34   73 1
    75   35   36 2
    76   35   37 1
@<TRIPOS>MOLECULE
CHEMBL233976
   46    49     0     0     0
SMALL
USER_CHARGES

@<TRIPOS>ATOM
      1 C1         -0.0184    1.5028    0.0103 C.3       1 <0>        -0.0892
      2 C2          0.0021   -0.0041    0.0020 C.2       1 <0>         0.0865
      3 C3          0.0052   -0.6786   -1.1785 C.2       1 <0>        -0.1742
      4 S1          0.0311   -2.3682   -0.5929 S.3       1 <0>         0.0510
      5 C4          0.0349   -1.9927    1.1552 C.2       1 <0>         0.1362
      6 N1          0.0223   -0.6673    1.1341 N.2       1 <0>        -0.4845
      7 C5          0.0529   -2.9127    2.3127 C.ar      1 <0>         0.0231
      8 C6          0.0759   -4.2933    2.1102 C.ar      1 <0>        -0.0948
      9 C7          0.0925   -5.1463    3.1944 C.ar      1 <0>        -0.0660
     10 C8          0.0860   -4.6357    4.4803 C.ar      1 <0>        -0.1705
     11 C9          0.0628   -3.2680    4.6878 C.ar      1 <0>        -0.0684
     12 C10         0.0527   -2.4041    3.6122 C.ar      1 <0>        -0.0729
     13 C11         0.1038   -5.5733    5.6599 C.3       1 <0>         0.5087
     14 F1          1.4281   -5.8412    6.0228 F         1 <0>        -0.1742
     15 F2         -0.5641   -4.9806    6.7369 F         1 <0>        -0.1751
     16 F3         -0.5362   -6.7686    5.3152 F         1 <0>        -0.1754
     17 C12        -0.0096   -0.1491   -2.5894 C.3       1 <0>         0.1509
     18 O1          1.3328    0.0369   -3.0424 O.3       1 <0>        -0.3055
     19 C13         1.4977    0.5128   -4.3052 C.ar      1 <0>         0.1371
     20 C14         0.3891    0.8032   -5.0972 C.ar      1 <0>        -0.2087
     21 C15         0.5265    1.2798   -6.3622 C.ar      1 <0>        -0.0208
     22 C16         1.8089    1.4985   -6.9194 C.ar      1 <0>        -0.0910
     23 C17         2.9167    1.1976   -6.0981 C.ar      1 <0>        -0.0770
     24 C18         2.7694    0.7189   -4.8139 C.ar      1 <0>        -0.1129
     25 S2          4.3128    1.5912   -7.1198 S.3       1 <0>         0.0029
     26 C19         3.4438    2.1333   -8.5788 C.2       1 <0>        -0.1785
     27 C20         2.1533    1.9983   -8.2432 C.2       1 <0>        -0.0335
     28 C21         1.0696    2.3604   -9.2257 C.3       1 <0>        -0.1467
     29 C22         0.6136    3.7742   -8.9722 C.2       1 <0>         0.4972
     30 O2          1.1216    4.4272   -8.0766 O.co2     1 <0>        -0.6835
     31 O3         -0.2633    4.2650   -9.6626 O.co2     1 <0>        -0.7013
     32 H1          1.0042    1.8801    0.0026 H         1 <0>         0.0825
     33 H2         -0.5455    1.8639   -0.8728 H         1 <0>         0.0780
     34 H3         -0.5286    1.8543    0.9071 H         1 <0>         0.0779
     35 H4          0.0803   -4.6931    1.1069 H         1 <0>         0.1407
     36 H5          0.1103   -6.2149    3.0391 H         1 <0>         0.1456
     37 H6          0.0575   -2.8757    5.6941 H         1 <0>         0.1453
     38 H7          0.0398   -1.3366    3.7755 H         1 <0>         0.1498
     39 H8         -0.5171   -0.8618   -3.2395 H         1 <0>         0.0828
     40 H9         -0.5369    0.8045   -2.6141 H         1 <0>         0.0951
     41 H10        -0.6016    0.6456   -4.6971 H         1 <0>         0.1279
     42 H11        -0.3539    1.4941   -6.9499 H         1 <0>         0.1287
     43 H12         3.6386    0.5024   -4.2107 H         1 <0>         0.1342
     44 H13         3.8586    2.4868   -9.5112 H         1 <0>         0.1814
     45 H14         1.4581    2.2805  -10.2410 H         1 <0>         0.0725
     46 H15         0.2270    1.6796   -9.1045 H         1 <0>         0.0688
@<TRIPOS>BOND
     1    1    2 1
     2    1   32 1
     3    1   33 1
     4    1   34 1
     5    2    6 1
     6    2    3 2
     7    3    4 1
     8    3   17 1
     9    4    5 1
    10    5    6 2
    11    5    7 1
    12    7   12 ar
    13    7    8 ar
    14    8    9 ar
    15    8   35 1
    16    9   10 ar
    17    9   36 1
    18   10   11 ar
    19   10   13 1
    20   11   12 ar
    21   11   37 1
    22   12   38 1
    23   13   14 1
    24   13   15 1
    25   13   16 1
    26   17   18 1
    27   17   39 1
    28   17   40 1
    29   18   19 1
    30   19   24 ar
    31   19   20 ar
    32   20   21 ar
    33   20   41 1
    34   21   22 ar
    35   21   42 1
    36   22   27 1
    37   22   23 ar
    38   23   24 ar
    39   23   25 1
    40   24   43 1
    41   25   26 1
    42   26   27 2
    43   26   44 1
    44   27   28 1
    45   28   29 1
    46   28   45 1
    47   28   46 1
    48   29   30 2
    49   29   31 1
@<TRIPOS>MOLECULE
CHEMBL24038
   55    58     0     0     0
SMALL
USER_CHARGES

@<TRIPOS>ATOM
      1 C1         -0.0187    1.5258    0.0104 C.3       1 <0>        -0.1428
      2 C2          0.0021   -0.0041    0.0020 C.3       1 <0>         0.0658
      3 O1          0.6932   -0.4774    1.1597 O.3       1 <0>        -0.3671
      4 C3          0.7699   -1.9016    1.2491 C.3       1 <0>         0.0331
      5 H1          0.7819   -2.3284    0.2462 H         1 <0>         0.0485
      6 C4          2.0499   -2.2981    1.9875 C.3       1 <0>        -0.0605
      7 C5          3.2484   -1.8847    1.1728 C.ar      1 <0>        -0.0963
      8 C6          3.7840   -2.7557    0.2422 C.ar      1 <0>        -0.0820
      9 C7          4.8829   -2.3792   -0.5056 C.ar      1 <0>        -0.1497
     10 C8          5.4488   -1.1259   -0.3223 C.ar      1 <0>         0.1132
     11 C9          4.9092   -0.2536    0.6118 C.ar      1 <0>        -0.2087
     12 C10         3.8070   -0.6328    1.3533 C.ar      1 <0>        -0.0621
     13 O2          6.5301   -0.7534   -1.0564 O.3       1 <0>        -0.3085
     14 C11         7.0601    0.5515   -0.8146 C.3       1 <0>         0.0387
     15 C12         8.2649    0.7898   -1.7271 C.3       1 <0>         0.1350
     16 N1          7.8242    0.8032   -3.1242 N.pl3     1 <0>        -0.5723
     17 C13         7.7759   -0.3701   -3.9012 C.ar      1 <0>         0.1436
     18 C14         8.5681   -1.4612   -3.6021 C.ar      1 <0>        -0.1291
     19 C15         8.4965   -2.5971   -4.3917 C.ar      1 <0>        -0.1038
     20 C16         7.6377   -2.6367   -5.4736 C.ar      1 <0>        -0.1235
     21 C17         6.8411   -1.5450   -5.7756 C.ar      1 <0>        -0.1052
     22 C18         6.9038   -0.4088   -4.9904 C.ar      1 <0>         0.0657
     23 O3          6.1188    0.6703   -5.2614 O.3       1 <0>        -0.2460
     24 C19         6.5576    1.8944   -4.8575 C.ar      1 <0>         0.0689
     25 C20         7.4188    1.9893   -3.7659 C.ar      1 <0>         0.1317
     26 C21         7.8620    3.2247   -3.3357 C.ar      1 <0>        -0.1436
     27 C22         7.4449    4.3698   -3.9942 C.ar      1 <0>        -0.1044
     28 C23         6.5903    4.2754   -5.0759 C.ar      1 <0>        -0.1234
     29 C24         6.1531    3.0430   -5.5122 C.ar      1 <0>        -0.1040
     30 C25        -0.4267   -2.4228    2.0025 C.2       1 <0>         0.4775
     31 O4         -0.6021   -3.6243    2.1120 O.co2     1 <0>        -0.7001
     32 O5         -1.2193   -1.6429    2.5025 O.co2     1 <0>        -0.6800
     33 H2          1.0039    1.9031    0.0027 H         1 <0>         0.0529
     34 H3         -0.5459    1.8868   -0.8726 H         1 <0>         0.0600
     35 H4         -0.5289    1.8773    0.9072 H         1 <0>         0.0625
     36 H5         -1.0205   -0.3814    0.0098 H         1 <0>         0.0458
     37 H6          0.5123   -0.3556   -0.8948 H         1 <0>         0.0295
     38 H7          2.0796   -1.7996    2.9564 H         1 <0>         0.0729
     39 H8          2.0651   -3.3781    2.1339 H         1 <0>         0.0871
     40 H9          3.3432   -3.7313    0.0999 H         1 <0>         0.1282
     41 H10         5.3014   -3.0602   -1.2319 H         1 <0>         0.1235
     42 H11         5.3479    0.7226    0.7563 H         1 <0>         0.1191
     43 H12         3.3839    0.0475    2.0775 H         1 <0>         0.1254
     44 H13         6.2941    1.2988   -1.0215 H         1 <0>         0.0635
     45 H14         7.3721    0.6297    0.2269 H         1 <0>         0.0734
     46 H15         8.7229    1.7479   -1.4813 H         1 <0>         0.1023
     47 H16         8.9930   -0.0085   -1.5834 H         1 <0>         0.0938
     48 H17         9.2400   -1.4289   -2.7572 H         1 <0>         0.1284
     49 H18         9.1132   -3.4533   -4.1615 H         1 <0>         0.1289
     50 H19         7.5879   -3.5239   -6.0873 H         1 <0>         0.1313
     51 H20         6.1724   -1.5810   -6.6229 H         1 <0>         0.1349
     52 H21         8.5299    3.2976   -2.4901 H         1 <0>         0.1297
     53 H22         7.7880    5.3382   -3.6612 H         1 <0>         0.1298
     54 H23         6.2695    5.1714   -5.5864 H         1 <0>         0.1322
     55 H24         5.4852    2.9769   -6.3583 H         1 <0>         0.1360
@<TRIPOS>BOND
     1    1    2 1
     2    1   33 1
     3    1   34 1
     4    1   35 1
     5    2    3 1
     6    2   36 1
     7    2   37 1
     8    3    4 1
     9    4    5 1
    10    4    6 1
    11    4   30 1
    12    6    7 1
    13    6   38 1
    14    6   39 1
    15    7   12 ar
    16    7    8 ar
    17    8    9 ar
    18    8   40 1
    19    9   10 ar
    20    9   41 1
    21   10   11 ar
    22   10   13 1
    23   11   12 ar
    24   11   42 1
    25   12   43 1
    26   13   14 1
    27   14   15 1
    28   14   44 1
    29   14   45 1
    30   15   16 1
    31   15   46 1
    32   15   47 1
    33   16   25 1
    34   16   17 1
    35   17   22 ar
    36   17   18 ar
    37   18   19 ar
    38   18   48 1
    39   19   20 ar
    40   19   49 1
    41   20   21 ar
    42   20   50 1
    43   21   22 ar
    44   21   51 1
    45   22   23 1
    46   23   24 1
    47   24   29 ar
    48   24   25 ar
    49   25   26 ar
    50   26   27 ar
    51   26   52 1
    52   27   28 ar
    53   27   53 1
    54   28   29 ar
    55   28   54 1
    56   29   55 1
    57   30   31 2
    58   30   32 1
@<TRIPOS>MOLECULE
CHEMBL371041
   62    66     0     0     0
SMALL
USER_CHARGES

@<TRIPOS>ATOM
      1 C1          0.0525    1.4992    0.0805 C.3       1 <0>        -0.1540
      2 C2          0.0074   -0.0286    0.0134 C.3       1 <0>        -0.0951
      3 C3          0.6061   -0.4987   -1.3138 C.3       1 <0>        -0.1420
      4 C4          0.4006   -2.0078   -1.4600 C.3       1 <0>        -0.0212
      5 C5          0.9355   -2.4914   -2.8245 C.3       1 <0>        -0.1253
      6 C6         -0.3200   -2.4142   -3.7189 C.3       1 <0>        -0.0830
      7 C7         -1.4909   -2.5715   -2.7726 C.ar      1 <0>        -0.0568
      8 C8         -1.0769   -2.3378   -1.4738 C.ar      1 <0>        -0.1060
      9 C9         -1.9853   -2.4266   -0.4322 C.ar      1 <0>        -0.0697
     10 C10        -3.3040   -2.7483   -0.6839 C.ar      1 <0>        -0.2107
     11 C11        -3.7216   -2.9833   -1.9855 C.ar      1 <0>         0.1170
     12 C12        -2.8121   -2.8937   -3.0281 C.ar      1 <0>        -0.1425
     13 O1         -5.0186   -3.3011   -2.2382 O.3       1 <0>        -0.3169
     14 C13        -5.8988   -3.3759   -1.1149 C.3       1 <0>         0.0691
     15 C14        -7.3053   -3.7427   -1.5928 C.3       1 <0>        -0.0344
     16 C15        -8.2335   -3.8216   -0.4082 C.2       1 <0>        -0.0056
     17 C16        -8.4814   -4.9172    0.3326 C.2       1 <0>        -0.0315
     18 O2         -9.3632   -4.5630    1.2883 O.3       1 <0>        -0.1935
     19 C17        -9.6442   -3.2589    1.1220 C.2       1 <0>         0.2273
     20 N1         -8.9553   -2.8108    0.0986 N.2       1 <0>        -0.4561
     21 C18       -10.5684   -2.4622    1.9554 C.ar      1 <0>        -0.0082
     22 C19       -10.7745   -1.1018    1.6635 C.ar      1 <0>        -0.0760
     23 C20       -11.6181   -0.3490    2.4145 C.ar      1 <0>        -0.1036
     24 C21       -12.2997   -0.9275    3.5009 C.ar      1 <0>        -0.0394
     25 C22       -13.1778   -0.1685    4.2925 C.ar      1 <0>        -0.1081
     26 C23       -13.8236   -0.7559    5.3371 C.ar      1 <0>        -0.1093
     27 C24       -13.6281   -2.1029    5.6363 C.ar      1 <0>        -0.1175
     28 C25       -12.7854   -2.8700    4.8923 C.ar      1 <0>        -0.0995
     29 C26       -12.1006   -2.2981    3.8051 C.ar      1 <0>        -0.0554
     30 C27       -11.2291   -3.0619    3.0142 C.ar      1 <0>        -0.0702
     31 C28        -7.8842   -6.2861    0.1309 C.3       1 <0>        -0.0724
     32 C29         2.0804   -0.1878   -1.3380 C.2       1 <0>         0.4993
     33 O3          2.8330   -0.8552   -2.0271 O.co2     1 <0>        -0.6907
     34 O4          2.5208    0.7311   -0.6686 O.co2     1 <0>        -0.6891
     35 H1          1.0890    1.8294    0.1502 H         1 <0>         0.0958
     36 H2         -0.4019    1.9160   -0.8183 H         1 <0>         0.0340
     37 H3         -0.4973    1.8408    0.9575 H         1 <0>         0.0272
     38 H4          0.5832   -0.4458    0.8396 H         1 <0>         0.0490
     39 H5         -1.0269   -0.3651    0.0849 H         1 <0>         0.0418
     40 H6          0.1125    0.0167   -2.1378 H         1 <0>         0.0611
     41 H7          0.8987   -2.5371   -0.6477 H         1 <0>         0.0666
     42 H8          1.7154   -1.8251   -3.1932 H         1 <0>         0.1284
     43 H9          1.3003   -3.5163   -2.7565 H         1 <0>         0.0548
     44 H10        -0.3672   -1.4484   -4.2219 H         1 <0>         0.0772
     45 H11        -0.3135   -3.2224   -4.4503 H         1 <0>         0.0674
     46 H12        -1.6606   -2.2437    0.5815 H         1 <0>         0.1207
     47 H13        -4.0091   -2.8173    0.1313 H         1 <0>         0.1210
     48 H14        -3.1355   -3.0764   -4.0422 H         1 <0>         0.1232
     49 H15        -5.5402   -4.1375   -0.4225 H         1 <0>         0.0602
     50 H16        -5.9268   -2.4102   -0.6103 H         1 <0>         0.0647
     51 H17        -7.6638   -2.9811   -2.2852 H         1 <0>         0.0946
     52 H18        -7.2773   -4.7084   -2.0974 H         1 <0>         0.0925
     53 H19       -10.2547   -0.6504    0.8314 H         1 <0>         0.1406
     54 H20       -11.7658    0.6944    2.1782 H         1 <0>         0.1373
     55 H21       -13.3396    0.8766    4.0735 H         1 <0>         0.1304
     56 H22       -14.4976   -0.1689    5.9435 H         1 <0>         0.1252
     57 H23       -14.1525   -2.5443    6.4709 H         1 <0>         0.1253
     58 H24       -12.6430   -3.9126    5.1357 H         1 <0>         0.1294
     59 H25       -11.0716   -4.1079    3.2320 H         1 <0>         0.1362
     60 H26        -6.9629   -6.3691    0.7075 H         1 <0>         0.0888
     61 H27        -8.5921   -7.0442    0.4659 H         1 <0>         0.0811
     62 H28        -7.6657   -6.4349   -0.9265 H         1 <0>         0.0966
@<TRIPOS>BOND
     1    1    2 1
     2    1   35 1
     3    1   36 1
     4    1   37 1
     5    2    3 1
     6    2   38 1
     7    2   39 1
     8    3    4 1
     9    3   32 1
    10    3   40 1
    11    4    8 1
    12    4    5 1
    13    4   41 1
    14    5    6 1
    15    5   42 1
    16    5   43 1
    17    6    7 1
    18    6   44 1
    19    6   45 1
    20    7   12 ar
    21    7    8 ar
    22    8    9 ar
    23    9   10 ar
    24    9   46 1
    25   10   11 ar
    26   10   47 1
    27   11   12 ar
    28   11   13 1
    29   12   48 1
    30   13   14 1
    31   14   15 1
    32   14   49 1
    33   14   50 1
    34   15   16 1
    35   15   51 1
    36   15   52 1
    37   16   20 1
    38   16   17 2
    39   17   18 1
    40   17   31 1
    41   18   19 1
    42   19   20 2
    43   19   21 1
    44   21   30 ar
    45   21   22 ar
    46   22   23 ar
    47   22   53 1
    48   23   24 ar
    49   23   54 1
    50   24   29 ar
    51   24   25 ar
    52   25   26 ar
    53   25   55 1
    54   26   27 ar
    55   26   56 1
    56   27   28 ar
    57   27   57 1
    58   28   29 ar
    59   28   58 1
    60   29   30 ar
    61   30   59 1
    62   31   60 1
    63   31   61 1
    64   31   62 1
    65   32   33 2
    66   32   34 1
@<TRIPOS>MOLECULE
CHEMBL371041__1
   62    66     0     0     0
SMALL
USER_CHARGES

@<TRIPOS>ATOM
      1 C1          0.0125    1.8056   -0.5483 C.3       1 <0>        -0.1445
      2 C2         -0.1995    0.3121   -0.2928 C.3       1 <0>        -0.1004
      3 C3          0.6046   -0.4987   -1.3110 C.3       1 <0>        -0.1486
      4 C4          0.3143   -1.9888   -1.1201 C.3       1 <0>        -0.0292
      5 C5         -1.1945   -2.2662   -1.2891 C.3       1 <0>        -0.1160
      6 C6         -1.2031   -3.6609   -1.9502 C.3       1 <0>        -0.0758
      7 C7          0.1178   -3.7601   -2.6829 C.ar      1 <0>        -0.0718
      8 C8          0.9903   -2.7989   -2.2057 C.ar      1 <0>        -0.1025
      9 C9          2.2671   -2.7015   -2.7334 C.ar      1 <0>        -0.0506
     10 C10         2.6742   -3.5604   -3.7346 C.ar      1 <0>        -0.2067
     11 C11         1.8009   -4.5251   -4.2149 C.ar      1 <0>         0.1167
     12 C12         0.5228   -4.6221   -3.6866 C.ar      1 <0>        -0.1479
     13 O1          2.1969   -5.3723   -5.2009 O.3       1 <0>        -0.3179
     14 C13         3.5275   -5.2133   -5.6973 C.3       1 <0>         0.0673
     15 C14         3.7897   -6.2477   -6.7937 C.3       1 <0>        -0.0329
     16 C15         5.1928   -6.0801   -7.3173 C.2       1 <0>        -0.0061
     17 C16         5.5685   -5.2869   -8.3372 C.2       1 <0>        -0.0297
     18 O2          6.9011   -5.4265   -8.4831 O.3       1 <0>        -0.1933
     19 C17         7.3244   -6.3008   -7.5537 C.2       1 <0>         0.2254
     20 N1          6.2902   -6.6906   -6.8456 N.2       1 <0>        -0.4554
     21 C18         8.7205   -6.7436   -7.3579 C.ar      1 <0>        -0.0066
     22 C19         9.0225   -7.6725   -6.3459 C.ar      1 <0>        -0.0754
     23 C20        10.2971   -8.0942   -6.1462 C.ar      1 <0>        -0.1043
     24 C21        11.3366   -7.6018   -6.9565 C.ar      1 <0>        -0.0397
     25 C22        12.6635   -8.0236   -6.7689 C.ar      1 <0>        -0.1082
     26 C23        13.6481   -7.5298   -7.5689 C.ar      1 <0>        -0.1099
     27 C24        13.3616   -6.6092   -8.5752 C.ar      1 <0>        -0.1182
     28 C25        12.0886   -6.1773   -8.7870 C.ar      1 <0>        -0.0990
     29 C26        11.0448   -6.6652   -7.9804 C.ar      1 <0>        -0.0552
     30 C27         9.7204   -6.2451   -8.1757 C.ar      1 <0>        -0.0706
     31 C28         4.6667   -4.4063   -9.1634 C.3       1 <0>        -0.0730
     32 C29         2.0758   -0.2435   -1.1071 C.2       1 <0>         0.5054
     33 O3          2.6291   -0.6408   -0.0959 O.co2     1 <0>        -0.6993
     34 O4          2.7128    0.3602   -1.9534 O.co2     1 <0>        -0.7025
     35 H1          1.0546    2.0624   -0.3581 H         1 <0>         0.0573
     36 H2         -0.2351    2.0357   -1.5846 H         1 <0>         0.0474
     37 H3         -0.6310    2.3828    0.1158 H         1 <0>         0.0407
     38 H4          0.1353    0.0647    0.7146 H         1 <0>         0.0603
     39 H5         -1.2583    0.0731   -0.3927 H         1 <0>         0.0475
     40 H6          0.3203   -0.1995   -2.3198 H         1 <0>         0.0584
     41 H7          0.6529   -2.3166   -0.1373 H         1 <0>         0.0874
     42 H8         -1.6943   -2.2935   -0.3208 H         1 <0>         0.0716
     43 H9         -1.6540   -1.5248   -1.9427 H         1 <0>         0.0700
     44 H10        -1.2736   -4.4392   -1.1904 H         1 <0>         0.0770
     45 H11        -2.0324   -3.7411   -2.6530 H         1 <0>         0.0700
     46 H12         2.9474   -1.9505   -2.3597 H         1 <0>         0.1424
     47 H13         3.6707   -3.4811   -4.1433 H         1 <0>         0.1217
     48 H14        -0.1585   -5.3727   -4.0594 H         1 <0>         0.1212
     49 H15         3.6445   -4.2106   -6.1083 H         1 <0>         0.0618
     50 H16         4.2385   -5.3579   -4.8839 H         1 <0>         0.0654
     51 H17         3.6727   -7.2505   -6.3828 H         1 <0>         0.0936
     52 H18         3.0787   -6.1032   -7.6072 H         1 <0>         0.0919
     53 H19         8.2302   -8.0549   -5.7195 H         1 <0>         0.1406
     54 H20        10.5135   -8.8077   -5.3648 H         1 <0>         0.1369
     55 H21        12.9014   -8.7362   -5.9930 H         1 <0>         0.1300
     56 H22        14.6670   -7.8563   -7.4212 H         1 <0>         0.1247
     57 H23        14.1615   -6.2328   -9.1956 H         1 <0>         0.1250
     58 H24        11.8810   -5.4633   -9.5703 H         1 <0>         0.1294
     59 H25         9.4836   -5.5356   -8.9547 H         1 <0>         0.1364
     60 H26         4.6021   -3.4199   -8.7042 H         1 <0>         0.0904
     61 H27         5.0736   -4.3125  -10.1702 H         1 <0>         0.0807
     62 H28         3.6722   -4.8497   -9.2132 H         1 <0>         0.0964
@<TRIPOS>BOND
     1    1    2 1
     2    1   35 1
     3    1   36 1
     4    1   37 1
     5    2    3 1
     6    2   38 1
     7    2   39 1
     8    3    4 1
     9    3   32 1
    10    3   40 1
    11    4    8 1
    12    4    5 1
    13    4   41 1
    14    5    6 1
    15    5   42 1
    16    5   43 1
    17    6    7 1
    18    6   44 1
    19    6   45 1
    20    7   12 ar
    21    7    8 ar
    22    8    9 ar
    23    9   10 ar
    24    9   46 1
    25   10   11 ar
    26   10   47 1
    27   11   12 ar
    28   11   13 1
    29   12   48 1
    30   13   14 1
    31   14   15 1
    32   14   49 1
    33   14   50 1
    34   15   16 1
    35   15   51 1
    36   15   52 1
    37   16   20 1
    38   16   17 2
    39   17   18 1
    40   17   31 1
    41   18   19 1
    42   19   20 2
    43   19   21 1
    44   21   30 ar
    45   21   22 ar
    46   22   23 ar
    47   22   53 1
    48   23   24 ar
    49   23   54 1
    50   24   29 ar
    51   24   25 ar
    52   25   26 ar
    53   25   55 1
    54   26   27 ar
    55   26   56 1
    56   27   28 ar
    57   27   57 1
    58   28   29 ar
    59   28   58 1
    60   29   30 ar
    61   30   59 1
    62   31   60 1
    63   31   61 1
    64   31   62 1
    65   32   33 2
    66   32   34 1
@<TRIPOS>MOLECULE
CHEMBL371041__2
   62    66     0     0     0
SMALL
USER_CHARGES

@<TRIPOS>ATOM
      1 C1         -0.0187    1.5258    0.0104 C.3       1 <0>        -0.1449
      2 C2          0.0021   -0.0041    0.0020 C.3       1 <0>        -0.1020
      3 C3          0.7182   -0.4975   -1.2568 C.3       1 <0>        -0.1439
      4 C4          0.8493   -2.0210   -1.2049 C.3       1 <0>        -0.0281
      5 C5          1.7201   -2.4429   -0.0026 C.3       1 <0>        -0.1210
      6 C6          3.1299   -2.5216   -0.6259 C.3       1 <0>        -0.0747
      7 C7          2.8988   -2.8144   -2.0930 C.ar      1 <0>        -0.0673
      8 C8          1.5876   -2.5265   -2.4260 C.ar      1 <0>        -0.0988
      9 C9          1.1461   -2.7193   -3.7246 C.ar      1 <0>        -0.0449
     10 C10         2.0092   -3.1986   -4.6895 C.ar      1 <0>        -0.2055
     11 C11         3.3245   -3.4881   -4.3579 C.ar      1 <0>         0.1179
     12 C12         3.7663   -3.2945   -3.0581 C.ar      1 <0>        -0.1458
     13 O1          4.1776   -3.9608   -5.3042 O.3       1 <0>        -0.3176
     14 C13         3.6526   -4.1360   -6.6217 C.3       1 <0>         0.0676
     15 C14         4.7516   -4.6716   -7.5416 C.3       1 <0>        -0.0336
     16 C15         4.1979   -4.8563   -8.9310 C.2       1 <0>        -0.0043
     17 C16         3.6147   -5.9703   -9.4099 C.2       1 <0>        -0.0326
     18 O2          3.2626   -5.7205  -10.6867 O.3       1 <0>        -0.1938
     19 C17         3.6331   -4.4605  -10.9736 C.2       1 <0>         0.2264
     20 N1          4.1936   -3.9374   -9.9083 N.2       1 <0>        -0.4547
     21 C18         3.4365   -3.7770  -12.2689 C.ar      1 <0>        -0.0066
     22 C19         3.8808   -2.4527  -12.4336 C.ar      1 <0>        -0.0752
     23 C20         3.7113   -1.8035  -13.6135 C.ar      1 <0>        -0.1037
     24 C21         3.0845   -2.4548  -14.6916 C.ar      1 <0>        -0.0395
     25 C22         2.8980   -1.8035  -15.9223 C.ar      1 <0>        -0.1076
     26 C23         2.2884   -2.4596  -16.9476 C.ar      1 <0>        -0.1102
     27 C24         1.8440   -3.7719  -16.7970 C.ar      1 <0>        -0.1182
     28 C25         2.0070   -4.4353  -15.6201 C.ar      1 <0>        -0.0994
     29 C26         2.6325   -3.7901  -14.5381 C.ar      1 <0>        -0.0553
     30 C27         2.8214   -4.4471  -13.3129 C.ar      1 <0>        -0.0711
     31 C28         3.3963   -7.2582   -8.6585 C.3       1 <0>        -0.0717
     32 C29        -0.0771   -0.1029   -2.4745 C.2       1 <0>         0.5063
     33 O3          0.4235    0.6153   -3.3231 O.co2     1 <0>        -0.7004
     34 O4         -1.2211   -0.5017   -2.6110 O.co2     1 <0>        -0.7024
     35 H1          1.0039    1.9031    0.0027 H         1 <0>         0.0458
     36 H2         -0.5459    1.8868   -0.8726 H         1 <0>         0.0580
     37 H3         -0.5289    1.8773    0.9072 H         1 <0>         0.0417
     38 H4          0.5293   -0.3651    0.8851 H         1 <0>         0.0479
     39 H5         -1.0205   -0.3814    0.0098 H         1 <0>         0.0627
     40 H6          1.7103   -0.0491   -1.3098 H         1 <0>         0.0578
     41 H7         -0.1360   -2.4827   -1.1407 H         1 <0>         0.0787
     42 H8          1.6858   -1.6893    0.7841 H         1 <0>         0.0786
     43 H9          1.4099   -3.4161    0.3779 H         1 <0>         0.0659
     44 H10         3.6495   -1.5708   -0.5072 H         1 <0>         0.0784
     45 H11         3.7027   -3.3265   -0.1652 H         1 <0>         0.0694
     46 H12         0.1221   -2.4940   -3.9832 H         1 <0>         0.1275
     47 H13         1.6607   -3.3482   -5.7008 H         1 <0>         0.1213
     48 H14         4.7901   -3.5193   -2.7981 H         1 <0>         0.1215
     49 H15         2.8258   -4.8457   -6.5919 H         1 <0>         0.0603
     50 H16         3.2960   -3.1784   -7.0009 H         1 <0>         0.0664
     51 H17         5.5784   -3.9619   -7.5714 H         1 <0>         0.0944
     52 H18         5.1082   -5.6292   -7.1623 H         1 <0>         0.0917
     53 H19         4.3626   -1.9458  -11.6106 H         1 <0>         0.1412
     54 H20         4.0575   -0.7865  -13.7246 H         1 <0>         0.1373
     55 H21         3.2366   -0.7865  -16.0544 H         1 <0>         0.1302
     56 H22         2.1466   -1.9553  -17.8921 H         1 <0>         0.1247
     57 H23         1.3631   -4.2694  -17.6262 H         1 <0>         0.1248
     58 H24         1.6575   -5.4520  -15.5172 H         1 <0>         0.1291
     59 H25         2.4860   -5.4655  -13.1838 H         1 <0>         0.1361
     60 H26         2.4286   -7.2271   -8.1578 H         1 <0>         0.0889
     61 H27         3.4171   -8.0946   -9.3572 H         1 <0>         0.0804
     62 H28         4.1852   -7.3845   -7.9170 H         1 <0>         0.0962
@<TRIPOS>BOND
     1    1    2 1
     2    1   35 1
     3    1   36 1
     4    1   37 1
     5    2    3 1
     6    2   38 1
     7    2   39 1
     8    3    4 1
     9    3   32 1
    10    3   40 1
    11    4    8 1
    12    4    5 1
    13    4   41 1
    14    5    6 1
    15    5   42 1
    16    5   43 1
    17    6    7 1
    18    6   44 1
    19    6   45 1
    20    7   12 ar
    21    7    8 ar
    22    8    9 ar
    23    9   10 ar
    24    9   46 1
    25   10   11 ar
    26   10   47 1
    27   11   12 ar
    28   11   13 1
    29   12   48 1
    30   13   14 1
    31   14   15 1
    32   14   49 1
    33   14   50 1
    34   15   16 1
    35   15   51 1
    36   15   52 1
    37   16   20 1
    38   16   17 2
    39   17   18 1
    40   17   31 1
    41   18   19 1
    42   19   20 2
    43   19   21 1
    44   21   30 ar
    45   21   22 ar
    46   22   23 ar
    47   22   53 1
    48   23   24 ar
    49   23   54 1
    50   24   29 ar
    51   24   25 ar
    52   25   26 ar
    53   25   55 1
    54   26   27 ar
    55   26   56 1
    56   27   28 ar
    57   27   57 1
    58   28   29 ar
    59   28   58 1
    60   29   30 ar
    61   30   59 1
    62   31   60 1
    63   31   61 1
    64   31   62 1
    65   32   33 2
    66   32   34 1
@<TRIPOS>MOLECULE
CHEMBL371041__3
   62    66     0     0     0
SMALL
USER_CHARGES

@<TRIPOS>ATOM
      1 C1         -0.0413    0.7206   -3.3017 C.3       1 <0>        -0.1439
      2 C2          0.1503   -0.6589   -2.6683 C.3       1 <0>        -0.0982
      3 C3          0.7182   -0.4975   -1.2568 C.3       1 <0>        -0.1524
      4 C4          0.7680   -1.8627   -0.5679 C.3       1 <0>        -0.0266
      5 C5          1.7514   -2.7979   -1.3030 C.3       1 <0>        -0.1290
      6 C6          2.3519   -3.6234   -0.1454 C.3       1 <0>        -0.0773
      7 C7          2.2355   -2.7364    1.0757 C.ar      1 <0>        -0.0611
      8 C8          1.3248   -1.7242    0.8330 C.ar      1 <0>        -0.0950
      9 C9          1.0556   -0.7864    1.8160 C.ar      1 <0>        -0.0382
     10 C10         1.6923   -0.8570    3.0388 C.ar      1 <0>        -0.2064
     11 C11         2.6061   -1.8711    3.2845 C.ar      1 <0>         0.1178
     12 C12         2.8756   -2.8096    2.3003 C.ar      1 <0>        -0.1446
     13 O1          3.2360   -1.9444    4.4865 O.3       1 <0>        -0.3179
     14 C13         2.9091   -0.9431    5.4523 C.3       1 <0>         0.0687
     15 C14         3.7109   -1.1879    6.7322 C.3       1 <0>        -0.0339
     16 C15         3.3662   -0.1320    7.7506 C.2       1 <0>        -0.0063
     17 C16         3.9824    1.0547    7.9013 C.2       1 <0>        -0.0274
     18 O2          3.3721    1.6965    8.9172 O.3       1 <0>        -0.1935
     19 C17         2.3925    0.8978    9.3752 C.2       1 <0>         0.2227
     20 N1          2.3868   -0.2055    8.6643 N.2       1 <0>        -0.4553
     21 C18         1.4724    1.2120   10.4879 C.ar      1 <0>        -0.0058
     22 C19         0.4927    0.2773   10.8685 C.ar      1 <0>        -0.0756
     23 C20        -0.3642    0.5429   11.8871 C.ar      1 <0>        -0.1047
     24 C21        -0.2796    1.7660   12.5773 C.ar      1 <0>        -0.0401
     25 C22        -1.1554    2.0634   13.6348 C.ar      1 <0>        -0.1084
     26 C23        -1.0492    3.2551   14.2842 C.ar      1 <0>        -0.1099
     27 C24        -0.0826    4.1894   13.9168 C.ar      1 <0>        -0.1182
     28 C25         0.7832    3.9370   12.8977 C.ar      1 <0>        -0.0989
     29 C26         0.7040    2.7164   12.2033 C.ar      1 <0>        -0.0550
     30 C27         1.5849    2.4220   11.1516 C.ar      1 <0>        -0.0710
     31 C28         5.1402    1.5702    7.0859 C.3       1 <0>        -0.0743
     32 C29         2.1097    0.0754   -1.3376 C.2       1 <0>         0.5077
     33 O3          2.5237    0.7990   -0.4480 O.co2     1 <0>        -0.6959
     34 O4          2.8216   -0.1847   -2.2927 O.co2     1 <0>        -0.6975
     35 H1         -0.7336    1.3055   -2.6962 H         1 <0>         0.0399
     36 H2          0.9192    1.2335   -3.3529 H         1 <0>         0.0616
     37 H3         -0.4458    0.6056   -4.3073 H         1 <0>         0.0402
     38 H4         -0.8101   -1.1717   -2.6171 H         1 <0>         0.0376
     39 H5          0.8427   -1.2437   -3.2738 H         1 <0>         0.0686
     40 H6          0.0809    0.1757   -0.6835 H         1 <0>         0.0551
     41 H7         -0.2271   -2.3066   -0.5372 H         1 <0>         0.0673
     42 H8          1.2219   -3.4426   -2.0046 H         1 <0>         0.0636
     43 H9          2.5256   -2.2234   -1.8116 H         1 <0>         0.1090
     44 H10         1.7832   -4.5421   -0.0012 H         1 <0>         0.0718
     45 H11         3.3980   -3.8531   -0.3477 H         1 <0>         0.0705
     46 H12         0.3442    0.0035    1.6251 H         1 <0>         0.1167
     47 H13         1.4796   -0.1237    3.8026 H         1 <0>         0.1194
     48 H14         3.5868   -3.6000    2.4899 H         1 <0>         0.1208
     49 H15         3.1543    0.0410    5.0526 H         1 <0>         0.0618
     50 H16         1.8435   -0.9889    5.6767 H         1 <0>         0.0630
     51 H17         3.4658   -2.1719    7.1318 H         1 <0>         0.0933
     52 H18         4.7766   -1.1421    6.5077 H         1 <0>         0.0927
     53 H19         0.4212   -0.6637   10.3434 H         1 <0>         0.1404
     54 H20        -1.1114   -0.1847   12.1675 H         1 <0>         0.1366
     55 H21        -1.9100    1.3497   13.9310 H         1 <0>         0.1298
     56 H22        -1.7246    3.4801   15.0964 H         1 <0>         0.1246
     57 H23        -0.0200    5.1275   14.4483 H         1 <0>         0.1250
     58 H24         1.5272    4.6703   12.6234 H         1 <0>         0.1296
     59 H25         2.3416    3.1350   10.8594 H         1 <0>         0.1365
     60 H26         4.7615    2.1204    6.2245 H         1 <0>         0.0915
     61 H27         5.7510    2.2320    7.7000 H         1 <0>         0.0809
     62 H28         5.7456    0.7309    6.7434 H         1 <0>         0.0975
@<TRIPOS>BOND
     1    1    2 1
     2    1   35 1
     3    1   36 1
     4    1   37 1
     5    2    3 1
     6    2   38 1
     7    2   39 1
     8    3    4 1
     9    3   32 1
    10    3   40 1
    11    4    8 1
    12    4    5 1
    13    4   41 1
    14    5    6 1
    15    5   42 1
    16    5   43 1
    17    6    7 1
    18    6   44 1
    19    6   45 1
    20    7   12 ar
    21    7    8 ar
    22    8    9 ar
    23    9   10 ar
    24    9   46 1
    25   10   11 ar
    26   10   47 1
    27   11   12 ar
    28   11   13 1
    29   12   48 1
    30   13   14 1
    31   14   15 1
    32   14   49 1
    33   14   50 1
    34   15   16 1
    35   15   51 1
    36   15   52 1
    37   16   20 1
    38   16   17 2
    39   17   18 1
    40   17   31 1
    41   18   19 1
    42   19   20 2
    43   19   21 1
    44   21   30 ar
    45   21   22 ar
    46   22   23 ar
    47   22   53 1
    48   23   24 ar
    49   23   54 1
    50   24   29 ar
    51   24   25 ar
    52   25   26 ar
    53   25   55 1
    54   26   27 ar
    55   26   56 1
    56   27   28 ar
    57   27   57 1
    58   28   29 ar
    59   28   58 1
    60   29   30 ar
    61   30   59 1
    62   31   60 1
    63   31   61 1
    64   31   62 1
    65   32   33 2
    66   32   34 1
@<TRIPOS>MOLECULE
CHEMBL382718
   62    66     0     0     0
SMALL
USER_CHARGES

@<TRIPOS>ATOM
      1 C1          1.0876   -3.7017    0.2931 C.3       1 <0>        -0.1433
      2 C2          0.6509   -3.2504   -1.1021 C.3       1 <0>        -0.1058
      3 C3          1.0430   -1.7863   -1.3106 C.3       1 <0>        -0.1395
      4 C4          0.4506   -1.2823   -2.6282 C.3       1 <0>        -0.0274
      5 C5          0.7759    0.2136   -2.8241 C.3       1 <0>        -0.1182
      6 C6         -0.4602    0.9048   -2.2105 C.3       1 <0>        -0.0782
      7 C7         -1.5844   -0.0998   -2.3472 C.ar      1 <0>        -0.0569
      8 C8         -1.0609   -1.3572   -2.5872 C.ar      1 <0>        -0.1033
      9 C9         -1.9094   -2.4400   -2.7477 C.ar      1 <0>        -0.0683
     10 C10        -3.2772   -2.2703   -2.6699 C.ar      1 <0>        -0.2097
     11 C11        -3.8046   -1.0101   -2.4294 C.ar      1 <0>         0.1181
     12 C12        -2.9549    0.0734   -2.2682 C.ar      1 <0>        -0.1409
     13 O1         -5.1505   -0.8380   -2.3527 O.3       1 <0>        -0.3163
     14 C13        -5.9642   -1.9994   -2.5295 C.3       1 <0>         0.0691
     15 C14        -7.4394   -1.6115   -2.4103 C.3       1 <0>        -0.0346
     16 C15        -8.2975   -2.8362   -2.5968 C.2       1 <0>        -0.0085
     17 C16        -8.7811   -3.2943   -3.7663 C.2       1 <0>        -0.0319
     18 O2         -9.4941   -4.4060   -3.4970 O.3       1 <0>        -0.1904
     19 C17        -9.4390   -4.6151   -2.1697 C.2       1 <0>         0.2302
     20 N1         -8.7099   -3.6663   -1.6277 N.2       1 <0>        -0.4524
     21 C18       -10.0840   -5.7260   -1.4451 C.ar      1 <0>        -0.0072
     22 C19       -11.3740   -6.1189   -1.7686 C.ar      1 <0>        -0.0758
     23 C20       -11.9869   -7.1650   -1.0902 C.ar      1 <0>        -0.1228
     24 C21       -11.3424   -7.8321   -0.0918 C.ar      1 <0>        -0.0816
     25 C22       -10.0340   -7.4675    0.2698 C.ar      1 <0>        -0.0536
     26 C23        -9.3903   -6.4079   -0.4144 C.ar      1 <0>        -0.0181
     27 C24        -8.0837   -6.0488   -0.0565 C.ar      1 <0>        -0.1006
     28 C25        -7.4467   -6.7259    0.9396 C.ar      1 <0>        -0.1091
     29 C26        -8.0757   -7.7728    1.6096 C.ar      1 <0>        -0.1098
     30 C27        -9.3488   -8.1398    1.2969 C.ar      1 <0>        -0.1083
     31 C28        -8.5659   -2.6783   -5.1247 C.3       1 <0>        -0.0725
     32 C29         2.5448   -1.6703   -1.3581 C.2       1 <0>         0.5044
     33 O3          3.1878   -2.3837   -2.1091 O.co2     1 <0>        -0.6984
     34 O4          3.1167   -0.8631   -0.6456 O.co2     1 <0>        -0.7025
     35 H1          2.1594   -3.8997    0.2920 H         1 <0>         0.0541
     36 H2          0.8639   -2.9166    1.0154 H         1 <0>         0.0477
     37 H3          0.5505   -4.6101    0.5658 H         1 <0>         0.0401
     38 H4          1.1415   -3.8685   -1.8540 H         1 <0>         0.0634
     39 H5         -0.4302   -3.3539   -1.1957 H         1 <0>         0.0484
     40 H6          0.6581   -1.1861   -0.4861 H         1 <0>         0.0584
     41 H7          0.8357   -1.8671   -3.4635 H         1 <0>         0.0782
     42 H8          1.6814    0.4873   -2.2826 H         1 <0>         0.0910
     43 H9          0.8687    0.4545   -3.8831 H         1 <0>         0.0640
     44 H10        -0.2830    1.1335   -1.1596 H         1 <0>         0.0829
     45 H11        -0.6972    1.8148   -2.7617 H         1 <0>         0.0709
     46 H12        -1.4992   -3.4214   -2.9350 H         1 <0>         0.1224
     47 H13        -3.9355   -3.1171   -2.7964 H         1 <0>         0.1218
     48 H14        -3.3638    1.0553   -2.0808 H         1 <0>         0.1241
     49 H15        -5.7792   -2.4259   -3.5154 H         1 <0>         0.0606
     50 H16        -5.7188   -2.7350   -1.7635 H         1 <0>         0.0642
     51 H17        -7.6243   -1.1849   -1.4244 H         1 <0>         0.0947
     52 H18        -7.6847   -0.8758   -3.1763 H         1 <0>         0.0925
     53 H19       -11.9075   -5.6065   -2.5554 H         1 <0>         0.1304
     54 H20       -12.9922   -7.4544   -1.3585 H         1 <0>         0.1324
     55 H21       -11.8379   -8.6421    0.4226 H         1 <0>         0.1332
     56 H22        -7.5839   -5.2396   -0.5682 H         1 <0>         0.1378
     57 H23        -6.4399   -6.4471    1.2133 H         1 <0>         0.1274
     58 H24        -7.5492   -8.2944    2.3952 H         1 <0>         0.1265
     59 H25        -9.8247   -8.9526    1.8253 H         1 <0>         0.1306
     60 H26        -7.6693   -3.1016   -5.5776 H         1 <0>         0.0887
     61 H27        -9.4270   -2.8879   -5.7593 H         1 <0>         0.0810
     62 H28        -8.4456   -1.6001   -5.0198 H         1 <0>         0.0965
@<TRIPOS>BOND
     1    1    2 1
     2    1   35 1
     3    1   36 1
     4    1   37 1
     5    2    3 1
     6    2   38 1
     7    2   39 1
     8    3    4 1
     9    3   32 1
    10    3   40 1
    11    4    8 1
    12    4    5 1
    13    4   41 1
    14    5    6 1
    15    5   42 1
    16    5   43 1
    17    6    7 1
    18    6   44 1
    19    6   45 1
    20    7   12 ar
    21    7    8 ar
    22    8    9 ar
    23    9   10 ar
    24    9   46 1
    25   10   11 ar
    26   10   47 1
    27   11   12 ar
    28   11   13 1
    29   12   48 1
    30   13   14 1
    31   14   15 1
    32   14   49 1
    33   14   50 1
    34   15   16 1
    35   15   51 1
    36   15   52 1
    37   16   20 1
    38   16   17 2
    39   17   18 1
    40   17   31 1
    41   18   19 1
    42   19   20 2
    43   19   21 1
    44   21   26 ar
    45   21   22 ar
    46   22   23 ar
    47   22   53 1
    48   23   24 ar
    49   23   54 1
    50   24   25 ar
    51   24   55 1
    52   25   30 ar
    53   25   26 ar
    54   26   27 ar
    55   27   28 ar
    56   27   56 1
    57   28   29 ar
    58   28   57 1
    59   29   30 ar
    60   29   58 1
    61   30   59 1
    62   31   60 1
    63   31   61 1
    64   31   62 1
    65   32   33 2
    66   32   34 1
@<TRIPOS>MOLECULE
CHEMBL382718__1
   62    66     0     0     0
SMALL
USER_CHARGES

@<TRIPOS>ATOM
      1 C1         -0.6476    0.6256    0.6812 C.3       1 <0>        -0.1446
      2 C2         -0.7327   -0.9001    0.6046 C.3       1 <0>        -0.1005
      3 C3          0.1579   -1.4041   -0.5328 C.3       1 <0>        -0.1485
      4 C4         -0.0012   -2.9194   -0.6719 C.3       1 <0>        -0.0290
      5 C5         -1.4740   -3.2790   -0.9609 C.3       1 <0>        -0.1156
      6 C6         -1.3399   -4.4966   -1.8998 C.3       1 <0>        -0.0760
      7 C7          0.0025   -4.3274   -2.5788 C.ar      1 <0>        -0.0714
      8 C8          0.7723   -3.4207   -1.8729 C.ar      1 <0>        -0.1042
      9 C9          2.0478   -3.1074   -2.3122 C.ar      1 <0>        -0.0508
     10 C10         2.5558   -3.6964   -3.4527 C.ar      1 <0>        -0.2069
     11 C11         1.7856   -4.6059   -4.1624 C.ar      1 <0>         0.1170
     12 C12         0.5087   -4.9192   -3.7225 C.ar      1 <0>        -0.1486
     13 O1          2.2811   -5.1879   -5.2861 O.3       1 <0>        -0.3179
     14 C13         3.6038   -4.8167   -5.6796 C.3       1 <0>         0.0675
     15 C14         3.9858   -5.5684   -6.9563 C.3       1 <0>        -0.0330
     16 C15         5.3806   -5.1771   -7.3714 C.2       1 <0>        -0.0093
     17 C16         5.7082   -4.1561   -8.1849 C.2       1 <0>        -0.0306
     18 O2          7.0513   -4.1493   -8.2983 O.3       1 <0>        -0.1900
     19 C17         7.5291   -5.1631   -7.5552 C.2       1 <0>         0.2276
     20 N1          6.5162   -5.7806   -6.9911 N.2       1 <0>        -0.4510
     21 C18         8.9516   -5.5185   -7.3957 C.ar      1 <0>        -0.0049
     22 C19         9.7775   -5.6206   -8.5050 C.ar      1 <0>        -0.0761
     23 C20        11.1183   -5.9545   -8.3615 C.ar      1 <0>        -0.1230
     24 C21        11.6589   -6.1907   -7.1330 C.ar      1 <0>        -0.0823
     25 C22        10.8590   -6.0989   -5.9810 C.ar      1 <0>        -0.0535
     26 C23         9.4914   -5.7536   -6.1066 C.ar      1 <0>        -0.0179
     27 C24         8.6960   -5.6571   -4.9566 C.ar      1 <0>        -0.0993
     28 C25         9.2479   -5.8903   -3.7330 C.ar      1 <0>        -0.1080
     29 C26        10.5946   -6.2236   -3.6066 C.ar      1 <0>        -0.1091
     30 C27        11.3933   -6.3388   -4.7030 C.ar      1 <0>        -0.1088
     31 C28         4.7510   -3.1985   -8.8467 C.3       1 <0>        -0.0730
     32 C29         1.5967   -1.0759   -0.2274 C.2       1 <0>         0.5056
     33 O3          2.1361   -1.5556    0.7551 O.co2     1 <0>        -0.6993
     34 O4          2.2213   -0.3307   -0.9629 O.co2     1 <0>        -0.7019
     35 H1          0.3638    0.9195    0.9622 H         1 <0>         0.0568
     36 H2         -0.8930    1.0525   -0.2912 H         1 <0>         0.0469
     37 H3         -1.3528    0.9919    1.4272 H         1 <0>         0.0411
     38 H4         -0.3960   -1.3305    1.5477 H         1 <0>         0.0615
     39 H5         -1.7644   -1.1975    0.4173 H         1 <0>         0.0469
     40 H6         -0.1350   -0.9210   -1.4649 H         1 <0>         0.0584
     41 H7          0.3411   -3.4197    0.2341 H         1 <0>         0.0861
     42 H8         -1.9932   -3.5533   -0.0426 H         1 <0>         0.0716
     43 H9         -1.9822   -2.4562   -1.4637 H         1 <0>         0.0702
     44 H10        -1.3585   -5.4220   -1.3241 H         1 <0>         0.0769
     45 H11        -2.1407   -4.4940   -2.6392 H         1 <0>         0.0700
     46 H12         2.6478   -2.3993   -1.7599 H         1 <0>         0.1453
     47 H13         3.5509   -3.4493   -3.7919 H         1 <0>         0.1215
     48 H14        -0.0923   -5.6271   -4.2738 H         1 <0>         0.1210
     49 H15         3.6398   -3.7433   -5.8655 H         1 <0>         0.0620
     50 H16         4.3044   -5.0716   -4.8845 H         1 <0>         0.0646
     51 H17         3.9497   -6.6419   -6.7705 H         1 <0>         0.0935
     52 H18         3.2851   -5.3136   -7.7515 H         1 <0>         0.0917
     53 H19         9.3742   -5.4392   -9.4903 H         1 <0>         0.1299
     54 H20        11.7434   -6.0285   -9.2391 H         1 <0>         0.1320
     55 H21        12.7038   -6.4491   -7.0446 H         1 <0>         0.1328
     56 H22         7.6507   -5.3988   -5.0400 H         1 <0>         0.1342
     57 H23         8.6328   -5.8152   -2.8485 H         1 <0>         0.1284
     58 H24        11.0086   -6.4030   -2.6254 H         1 <0>         0.1266
     59 H25        12.4354   -6.5991   -4.5905 H         1 <0>         0.1304
     60 H26         4.5853   -2.3414   -8.1940 H         1 <0>         0.0903
     61 H27         5.1728   -2.8588   -9.7926 H         1 <0>         0.0806
     62 H28         3.8026   -3.7028   -9.0320 H         1 <0>         0.0962
@<TRIPOS>BOND
     1    1    2 1
     2    1   35 1
     3    1   36 1
     4    1   37 1
     5    2    3 1
     6    2   38 1
     7    2   39 1
     8    3    4 1
     9    3   32 1
    10    3   40 1
    11    4    8 1
    12    4    5 1
    13    4   41 1
    14    5    6 1
    15    5   42 1
    16    5   43 1
    17    6    7 1
    18    6   44 1
    19    6   45 1
    20    7   12 ar
    21    7    8 ar
    22    8    9 ar
    23    9   10 ar
    24    9   46 1
    25   10   11 ar
    26   10   47 1
    27   11   12 ar
    28   11   13 1
    29   12   48 1
    30   13   14 1
    31   14   15 1
    32   14   49 1
    33   14   50 1
    34   15   16 1
    35   15   51 1
    36   15   52 1
    37   16   20 1
    38   16   17 2
    39   17   18 1
    40   17   31 1
    41   18   19 1
    42   19   20 2
    43   19   21 1
    44   21   26 ar
    45   21   22 ar
    46   22   23 ar
    47   22   53 1
    48   23   24 ar
    49   23   54 1
    50   24   25 ar
    51   24   55 1
    52   25   30 ar
    53   25   26 ar
    54   26   27 ar
    55   27   28 ar
    56   27   56 1
    57   28   29 ar
    58   28   57 1
    59   29   30 ar
    60   29   58 1
    61   30   59 1
    62   31   60 1
    63   31   61 1
    64   31   62 1
    65   32   33 2
    66   32   34 1
@<TRIPOS>MOLECULE
CHEMBL382718__2
   62    66     0     0     0
SMALL
USER_CHARGES

@<TRIPOS>ATOM
      1 C1         -0.5179    1.2871   -0.0394 C.3       1 <0>        -0.1449
      2 C2         -0.4314   -0.2404   -0.0566 C.3       1 <0>        -0.1021
      3 C3          0.3334   -0.6939   -1.3018 C.3       1 <0>        -0.1438
      4 C4          0.5284   -2.2107   -1.2562 C.3       1 <0>        -0.0281
      5 C5          1.3894   -2.6035   -0.0369 C.3       1 <0>        -0.1211
      6 C6          2.8149   -2.6174   -0.6284 C.3       1 <0>        -0.0748
      7 C7          2.6295   -2.9095   -2.1021 C.ar      1 <0>        -0.0670
      8 C8          1.3151   -2.6757   -2.4632 C.ar      1 <0>        -0.0987
      9 C9          0.9115   -2.8780   -3.7726 C.ar      1 <0>        -0.0448
     10 C10         1.8158   -3.3132   -4.7205 C.ar      1 <0>        -0.2056
     11 C11         3.1345   -3.5486   -4.3608 C.ar      1 <0>         0.1180
     12 C12         3.5383   -3.3453   -3.0502 C.ar      1 <0>        -0.1459
     13 O1          4.0282   -3.9777   -5.2903 O.3       1 <0>        -0.3174
     14 C13         3.5409   -4.1659   -6.6204 C.3       1 <0>         0.0678
     15 C14         4.6822   -4.6476   -7.5184 C.3       1 <0>        -0.0337
     16 C15         4.1683   -4.8460   -8.9211 C.2       1 <0>        -0.0075
     17 C16         3.6442   -5.9810   -9.4198 C.2       1 <0>        -0.0336
     18 O2          3.3095   -5.7378  -10.7026 O.3       1 <0>        -0.1906
     19 C17         3.6316   -4.4606  -10.9737 C.2       1 <0>         0.2290
     20 N1          4.1466   -3.9215   -9.8922 N.2       1 <0>        -0.4505
     21 C18         3.4345   -3.7782  -12.2663 C.ar      1 <0>        -0.0056
     22 C19         3.8219   -4.3904  -13.4487 C.ar      1 <0>        -0.0765
     23 C20         3.6385   -3.7531  -14.6694 C.ar      1 <0>        -0.1239
     24 C21         3.0759   -2.5140  -14.7408 C.ar      1 <0>        -0.0817
     25 C22         2.6686   -1.8557  -13.5677 C.ar      1 <0>        -0.0539
     26 C23         2.8416   -2.4919  -12.3144 C.ar      1 <0>        -0.0177
     27 C24         2.4301   -1.8367  -11.1458 C.ar      1 <0>        -0.1002
     28 C25         1.8640   -0.6002  -11.2291 C.ar      1 <0>        -0.1067
     29 C26         1.6869    0.0247  -12.4615 C.ar      1 <0>        -0.1082
     30 C27         2.0866   -0.5768  -13.6155 C.ar      1 <0>        -0.1094
     31 C28         3.4652   -7.2824   -8.6813 C.3       1 <0>        -0.0716
     32 C29        -0.4506   -0.3251   -2.5348 C.2       1 <0>         0.5063
     33 O3          0.0377    0.4197   -3.3675 O.co2     1 <0>        -0.7004
     34 O4         -1.5731   -0.7715   -2.6997 O.co2     1 <0>        -0.7023
     35 H1          0.4875    1.7078   -0.0216 H         1 <0>         0.0458
     36 H2         -1.0401    1.6315   -0.9321 H         1 <0>         0.0580
     37 H3         -1.0627    1.6102    0.8476 H         1 <0>         0.0417
     38 H4          0.0908   -0.5848    0.8360 H         1 <0>         0.0478
     39 H5         -1.4368   -0.6611   -0.0744 H         1 <0>         0.0627
     40 H6          1.3062   -0.2031   -1.3295 H         1 <0>         0.0577
     41 H7         -0.4373   -2.7146   -1.2171 H         1 <0>         0.0787
     42 H8          1.3051   -1.8575    0.7533 H         1 <0>         0.0786
     43 H9          1.1127   -3.5917    0.3305 H         1 <0>         0.0659
     44 H10         3.2904   -1.6461   -0.4923 H         1 <0>         0.0784
     45 H11         3.4112   -3.4003   -0.1598 H         1 <0>         0.0694
     46 H12        -0.1152   -2.6948   -4.0531 H         1 <0>         0.1274
     47 H13         1.4969   -3.4705   -5.7403 H         1 <0>         0.1211
     48 H14         4.5647   -3.5280   -2.7683 H         1 <0>         0.1215
     49 H15         2.7449   -4.9105   -6.6138 H         1 <0>         0.0604
     50 H16         3.1521   -3.2218   -7.0019 H         1 <0>         0.0656
     51 H17         5.4783   -3.9030   -7.5250 H         1 <0>         0.0943
     52 H18         5.0710   -5.5917   -7.1369 H         1 <0>         0.0915
     53 H19         4.2710   -5.3722  -13.4202 H         1 <0>         0.1296
     54 H20         3.9476   -4.2483  -15.5780 H         1 <0>         0.1317
     55 H21         2.9430   -2.0368  -15.7005 H         1 <0>         0.1327
     56 H22         2.5607   -2.3099  -10.1838 H         1 <0>         0.1345
     57 H23         1.5478   -0.0976  -10.3270 H         1 <0>         0.1299
     58 H24         1.2350    1.0048  -12.5011 H         1 <0>         0.1271
     59 H25         1.9443   -0.0803  -14.5639 H         1 <0>         0.1303
     60 H26         2.4864   -7.2964   -8.2019 H         1 <0>         0.0887
     61 H27         3.5374   -8.1121   -9.3844 H         1 <0>         0.0802
     62 H28         4.2425   -7.3798   -7.9233 H         1 <0>         0.0959
@<TRIPOS>BOND
     1    1    2 1
     2    1   35 1
     3    1   36 1
     4    1   37 1
     5    2    3 1
     6    2   38 1
     7    2   39 1
     8    3    4 1
     9    3   32 1
    10    3   40 1
    11    4    8 1
    12    4    5 1
    13    4   41 1
    14    5    6 1
    15    5   42 1
    16    5   43 1
    17    6    7 1
    18    6   44 1
    19    6   45 1
    20    7   12 ar
    21    7    8 ar
    22    8    9 ar
    23    9   10 ar
    24    9   46 1
    25   10   11 ar
    26   10   47 1
    27   11   12 ar
    28   11   13 1
    29   12   48 1
    30   13   14 1
    31   14   15 1
    32   14   49 1
    33   14   50 1
    34   15   16 1
    35   15   51 1
    36   15   52 1
    37   16   20 1
    38   16   17 2
    39   17   18 1
    40   17   31 1
    41   18   19 1
    42   19   20 2
    43   19   21 1
    44   21   26 ar
    45   21   22 ar
    46   22   23 ar
    47   22   53 1
    48   23   24 ar
    49   23   54 1
    50   24   25 ar
    51   24   55 1
    52   25   30 ar
    53   25   26 ar
    54   26   27 ar
    55   27   28 ar
    56   27   56 1
    57   28   29 ar
    58   28   57 1
    59   29   30 ar
    60   29   58 1
    61   30   59 1
    62   31   60 1
    63   31   61 1
    64   31   62 1
    65   32   33 2
    66   32   34 1
@<TRIPOS>MOLECULE
CHEMBL382718__3
   62    66     0     0     0
SMALL
USER_CHARGES

@<TRIPOS>ATOM
      1 C1          0.0964    1.2612   -3.6492 C.3       1 <0>        -0.1439
      2 C2          0.3373   -0.1417   -3.0882 C.3       1 <0>        -0.0982
      3 C3          0.9028   -0.0339   -1.6706 C.3       1 <0>        -0.1522
      4 C4          1.0101   -1.4312   -1.0567 C.3       1 <0>        -0.0266
      5 C5          2.0673   -2.2669   -1.8090 C.3       1 <0>        -0.1309
      6 C6          2.6791   -3.1222   -0.6793 C.3       1 <0>        -0.0775
      7 C7          2.4752   -2.3140    0.5843 C.ar      1 <0>        -0.0604
      8 C8          1.5156   -1.3418    0.3675 C.ar      1 <0>        -0.0948
      9 C9          1.1635   -0.4778    1.3911 C.ar      1 <0>        -0.0412
     10 C10         1.7661   -0.5823    2.6287 C.ar      1 <0>        -0.2064
     11 C11         2.7288   -1.5564    2.8485 C.ar      1 <0>         0.1178
     12 C12         3.0812   -2.4209    1.8236 C.ar      1 <0>        -0.1441
     13 O1          3.3253   -1.6627    4.0650 O.3       1 <0>        -0.3175
     14 C13         2.9126   -0.7377    5.0729 C.3       1 <0>         0.0689
     15 C14         3.6882   -1.0100    6.3634 C.3       1 <0>        -0.0339
     16 C15         3.2529   -0.0345    7.4264 C.2       1 <0>        -0.0095
     17 C16         3.7954    1.1745    7.6625 C.2       1 <0>        -0.0281
     18 O2          3.1187    1.7233    8.6909 O.3       1 <0>        -0.1903
     19 C17         2.1724    0.8467    9.0714 C.2       1 <0>         0.2249
     20 N1          2.2525   -0.2143    8.3012 N.2       1 <0>        -0.4509
     21 C18         1.2040    1.0456   10.1658 C.ar      1 <0>        -0.0039
     22 C19         1.6276    1.5131   11.4007 C.ar      1 <0>        -0.0762
     23 C20         0.7202    1.7031   12.4355 C.ar      1 <0>        -0.1216
     24 C21        -0.6057    1.4366   12.2688 C.ar      1 <0>        -0.0834
     25 C22        -1.0797    0.9606   11.0342 C.ar      1 <0>        -0.0532
     26 C23        -0.1710    0.7667    9.9655 C.ar      1 <0>        -0.0183
     27 C24        -0.6457    0.2971    8.7332 C.ar      1 <0>        -0.0985
     28 C25        -1.9741    0.0388    8.5759 C.ar      1 <0>        -0.1099
     29 C26        -2.8708    0.2351    9.6238 C.ar      1 <0>        -0.1104
     30 C27        -2.4427    0.6777   10.8380 C.ar      1 <0>        -0.1083
     31 C28         4.9462    1.7985    6.9160 C.3       1 <0>        -0.0743
     32 C29         2.2698    0.5986   -1.7219 C.2       1 <0>         0.5080
     33 O3          2.6496    1.3046   -0.8034 O.co2     1 <0>        -0.6961
     34 O4          2.9958    0.4042   -2.6819 O.co2     1 <0>        -0.6970
     35 H1         -0.6143    1.7896   -3.0136 H         1 <0>         0.0400
     36 H2          1.0383    1.8091   -3.6745 H         1 <0>         0.0615
     37 H3         -0.3066    1.1845   -4.6590 H         1 <0>         0.0403
     38 H4         -0.6047   -0.6895   -3.0628 H         1 <0>         0.0378
     39 H5          1.0479   -0.6700   -3.7237 H         1 <0>         0.0684
     40 H6          0.2407    0.5810   -1.0610 H         1 <0>         0.0552
     41 H7          0.0417   -1.9308   -1.0836 H         1 <0>         0.0674
     42 H8          1.5971   -2.8991   -2.5623 H         1 <0>         0.0633
     43 H9          2.8222   -1.6223   -2.2591 H         1 <0>         0.1115
     44 H10         2.1599   -4.0778   -0.6050 H         1 <0>         0.0717
     45 H11         3.7423   -3.2815   -0.8590 H         1 <0>         0.0706
     46 H12         0.4140    0.2808    1.2204 H         1 <0>         0.1168
     47 H13         1.4888    0.0934    3.4243 H         1 <0>         0.1194
     48 H14         3.8306   -3.1800    1.9929 H         1 <0>         0.1210
     49 H15         3.1128    0.2796    4.7365 H         1 <0>         0.0619
     50 H16         1.8450   -0.8554    5.2589 H         1 <0>         0.0623
     51 H17         3.4880   -2.0272    6.6999 H         1 <0>         0.0933
     52 H18         4.7557   -0.8922    6.1774 H         1 <0>         0.0926
     53 H19         2.6733    1.7314   11.5597 H         1 <0>         0.1305
     54 H20         1.0721    2.0681   13.3891 H         1 <0>         0.1323
     55 H21        -1.2936    1.5911   13.0869 H         1 <0>         0.1329
     56 H22         0.0383    0.1412    7.9121 H         1 <0>         0.1349
     57 H23        -2.3372   -0.3229    7.6253 H         1 <0>         0.1269
     58 H24        -3.9192    0.0237    9.4738 H         1 <0>         0.1259
     59 H25        -3.1487    0.8244   11.6421 H         1 <0>         0.1303
     60 H26         4.5632    2.3747    6.0737 H         1 <0>         0.0913
     61 H27         5.4991    2.4574    7.5856 H         1 <0>         0.0809
     62 H28         5.6088    1.0147    6.5488 H         1 <0>         0.0974
@<TRIPOS>BOND
     1    1    2 1
     2    1   35 1
     3    1   36 1
     4    1   37 1
     5    2    3 1
     6    2   38 1
     7    2   39 1
     8    3    4 1
     9    3   32 1
    10    3   40 1
    11    4    8 1
    12    4    5 1
    13    4   41 1
    14    5    6 1
    15    5   42 1
    16    5   43 1
    17    6    7 1
    18    6   44 1
    19    6   45 1
    20    7   12 ar
    21    7    8 ar
    22    8    9 ar
    23    9   10 ar
    24    9   46 1
    25   10   11 ar
    26   10   47 1
    27   11   12 ar
    28   11   13 1
    29   12   48 1
    30   13   14 1
    31   14   15 1
    32   14   49 1
    33   14   50 1
    34   15   16 1
    35   15   51 1
    36   15   52 1
    37   16   20 1
    38   16   17 2
    39   17   18 1
    40   17   31 1
    41   18   19 1
    42   19   20 2
    43   19   21 1
    44   21   26 ar
    45   21   22 ar
    46   22   23 ar
    47   22   53 1
    48   23   24 ar
    49   23   54 1
    50   24   25 ar
    51   24   55 1
    52   25   30 ar
    53   25   26 ar
    54   26   27 ar
    55   27   28 ar
    56   27   56 1
    57   28   29 ar
    58   28   57 1
    59   29   30 ar
    60   29   58 1
    61   30   59 1
    62   31   60 1
    63   31   61 1
    64   31   62 1
    65   32   33 2
    66   32   34 1
@<TRIPOS>MOLECULE
CHEMBL436514
   70    73     0     0     0
SMALL
USER_CHARGES

@<TRIPOS>ATOM
      1 C1         -0.0347    2.6676   -1.1904 C.3       1 <0>        -0.1526
      2 C2         -0.0257    1.1601   -0.9289 C.3       1 <0>        -0.1178
      3 C3          0.6980    0.4483   -2.0736 C.3       1 <0>        -0.0725
      4 C4          0.7069   -1.0365   -1.8161 C.ar      1 <0>        -0.1109
      5 C5          1.7912   -1.6214   -1.1975 C.ar      1 <0>        -0.0460
      6 C6          1.7982   -2.9968   -0.9590 C.ar      1 <0>        -0.0629
      7 C7          0.7060   -3.7747   -1.3483 C.ar      1 <0>        -0.0263
      8 C8         -0.3742   -3.1825   -1.9662 C.ar      1 <0>        -0.2090
      9 C9         -0.3796   -1.8128   -2.1970 C.ar      1 <0>         0.1625
     10 O1         -1.4487   -1.2318   -2.8013 O.3       1 <0>        -0.3008
     11 C10        -2.5321   -2.0888   -3.1670 C.3       1 <0>         0.0605
     12 C11        -3.6355   -1.2615   -3.8295 C.3       1 <0>        -0.1183
     13 C12        -4.7955   -2.1791   -4.2211 C.3       1 <0>         0.0655
     14 O2         -5.8261   -1.4064   -4.8399 O.3       1 <0>        -0.3151
     15 C13        -6.9361   -2.0746   -5.2503 C.ar      1 <0>         0.1138
     16 C14        -7.0346   -3.4449   -5.0566 C.ar      1 <0>        -0.2081
     17 C15        -8.1637   -4.1190   -5.4752 C.ar      1 <0>        -0.0704
     18 C16        -9.1997   -3.4334   -6.0886 C.ar      1 <0>        -0.1075
     19 C17        -9.1038   -2.0679   -6.2828 C.ar      1 <0>        -0.0609
     20 C18        -7.9752   -1.3881   -5.8585 C.ar      1 <0>        -0.1399
     21 C19       -10.3545   -1.5594   -6.9676 C.3       1 <0>        -0.0829
     22 C20       -11.0283   -2.8144   -7.5617 C.3       1 <0>        -0.1019
     23 C21       -10.5216   -3.9353   -6.6295 C.3       1 <0>        -0.0267
     24 H1        -11.2269   -4.0970   -5.8144 H         1 <0>         0.0890
     25 C22       -10.3151   -5.2295   -7.4190 C.3       1 <0>        -0.1739
     26 C23       -11.6539   -5.7869   -7.8289 C.2       1 <0>         0.4907
     27 O3        -12.6802   -5.2628   -7.4307 O.co2     1 <0>        -0.6952
     28 O4        -11.7107   -6.7618   -8.5588 O.co2     1 <0>        -0.7080
     29 C24         2.9588   -3.6279   -0.2966 C.2       1 <0>         0.1969
     30 N1          3.1610   -4.9025    0.0119 N.2       1 <0>        -0.5474
     31 C25         4.2658   -5.2925    0.6075 C.2       1 <0>         0.2630
     32 C26         5.2266   -4.3773    0.9177 C.2       1 <0>        -0.2530
     33 S1          4.4703   -2.8801    0.2971 S.3       1 <0>         0.0363
     34 O5          4.4493   -6.6058    0.9139 O.3       1 <0>        -0.2943
     35 C27         3.3994   -7.5078    0.5587 C.3       1 <0>         0.0835
     36 C28         3.6431   -8.0432   -0.8537 C.3       1 <0>        -0.1685
     37 C29         3.3722   -8.6741    1.5486 C.3       1 <0>        -0.1508
     38 H2          0.9908    3.0315   -1.2539 H         1 <0>         0.0532
     39 H3         -0.5511    2.8705   -2.1286 H         1 <0>         0.0559
     40 H4         -0.5503    3.1747   -0.3748 H         1 <0>         0.0543
     41 H5          0.4906    0.9572    0.0094 H         1 <0>         0.0604
     42 H6         -1.0512    0.7963   -0.8653 H         1 <0>         0.0655
     43 H7          0.1817    0.6512   -3.0119 H         1 <0>         0.0804
     44 H8          1.7235    0.8122   -2.1372 H         1 <0>         0.0727
     45 H9          2.6342   -1.0163   -0.8981 H         1 <0>         0.1349
     46 H10         0.7078   -4.8392   -1.1659 H         1 <0>         0.1378
     47 H11        -1.2193   -3.7835   -2.2677 H         1 <0>         0.1387
     48 H12        -2.1765   -2.8460   -3.8657 H         1 <0>         0.0702
     49 H13        -2.9280   -2.5747   -2.2752 H         1 <0>         0.0701
     50 H14        -3.9911   -0.5043   -3.1308 H         1 <0>         0.0868
     51 H15        -3.2396   -0.7757   -4.7213 H         1 <0>         0.0869
     52 H16        -4.4399   -2.9364   -4.9198 H         1 <0>         0.0644
     53 H17        -5.1915   -2.6650   -3.3293 H         1 <0>         0.0642
     54 H18        -6.2289   -3.9832   -4.5795 H         1 <0>         0.1232
     55 H19        -8.2400   -5.1856   -5.3242 H         1 <0>         0.1224
     56 H20        -7.9023   -0.3207   -6.0057 H         1 <0>         0.1240
     57 H21       -11.0149   -1.0826   -6.2433 H         1 <0>         0.0794
     58 H22       -10.0932   -0.8590   -7.7608 H         1 <0>         0.0709
     59 H23       -12.1140   -2.7311   -7.5128 H         1 <0>         0.0855
     60 H24       -10.6974   -2.9835   -8.5864 H         1 <0>         0.0644
     61 H25        -9.7203   -5.0216   -8.3084 H         1 <0>         0.0567
     62 H26        -9.7945   -5.9563   -6.7955 H         1 <0>         0.0556
     63 H27         6.1824   -4.5179    1.4004 H         1 <0>         0.2011
     64 H28         2.4443   -6.9834    0.5887 H         1 <0>         0.0854
     65 H29         4.5982   -8.5675   -0.8837 H         1 <0>         0.0611
     66 H30         2.8422   -8.7311   -1.1247 H         1 <0>         0.0705
     67 H31         3.6624   -7.2123   -1.5589 H         1 <0>         0.0594
     68 H32         3.1986   -8.2926    2.5548 H         1 <0>         0.0623
     69 H33         2.5714   -9.3620    1.2776 H         1 <0>         0.0770
     70 H34         4.3274   -9.1984    1.5186 H         1 <0>         0.0647
@<TRIPOS>BOND
     1    1    2 1
     2    1   38 1
     3    1   39 1
     4    1   40 1
     5    2    3 1
     6    2   41 1
     7    2   42 1
     8    3    4 1
     9    3   43 1
    10    3   44 1
    11    4    9 ar
    12    4    5 ar
    13    5    6 ar
    14    5   45 1
    15    6    7 ar
    16    6   29 1
    17    7    8 ar
    18    7   46 1
    19    8    9 ar
    20    8   47 1
    21    9   10 1
    22   10   11 1
    23   11   12 1
    24   11   48 1
    25   11   49 1
    26   12   13 1
    27   12   50 1
    28   12   51 1
    29   13   14 1
    30   13   52 1
    31   13   53 1
    32   14   15 1
    33   15   20 ar
    34   15   16 ar
    35   16   17 ar
    36   16   54 1
    37   17   18 ar
    38   17   55 1
    39   18   23 1
    40   18   19 ar
    41   19   20 ar
    42   19   21 1
    43   20   56 1
    44   21   22 1
    45   21   57 1
    46   21   58 1
    47   22   23 1
    48   22   59 1
    49   22   60 1
    50   23   24 1
    51   23   25 1
    52   25   26 1
    53   25   61 1
    54   25   62 1
    55   26   27 2
    56   26   28 1
    57   29   33 1
    58   29   30 2
    59   30   31 1
    60   31   32 2
    61   31   34 1
    62   32   33 1
    63   32   63 1
    64   34   35 1
    65   35   36 1
    66   35   37 1
    67   35   64 1
    68   36   65 1
    69   36   66 1
    70   36   67 1
    71   37   68 1
    72   37   69 1
    73   37   70 1
@<TRIPOS>MOLECULE
CHEMBL375427
   63    67     0     0     0
SMALL
USER_CHARGES

@<TRIPOS>ATOM
      1 C1         -1.2698    1.5253    0.5472 C.3       1 <0>         0.0233
      2 O1         -1.1170    0.1049    0.5136 O.3       1 <0>        -0.3008
      3 C2         -0.3096   -0.4065   -0.4540 C.ar      1 <0>         0.0998
      4 C3          0.3238    0.4404   -1.3447 C.ar      1 <0>        -0.1222
      5 C4          1.1523   -0.0878   -2.3364 C.ar      1 <0>        -0.0232
      6 C5          1.3376   -1.4686   -2.4245 C.ar      1 <0>        -0.0777
      7 C6          0.7028   -2.3080   -1.5329 C.ar      1 <0>        -0.1736
      8 C7         -0.1162   -1.7829   -0.5441 C.ar      1 <0>         0.1324
      9 O2         -0.7356   -2.6139    0.3356 O.3       1 <0>        -0.2945
     10 C8         -0.4932   -4.0143    0.1860 C.3       1 <0>         0.0598
     11 C9         -1.2690   -4.7834    1.2572 C.3       1 <0>        -0.1187
     12 C10        -1.0095   -6.2827    1.0971 C.3       1 <0>         0.0659
     13 O3         -1.7341   -7.0011    2.0975 O.3       1 <0>        -0.3150
     14 C11        -1.6120   -8.3546    2.0953 C.ar      1 <0>         0.1144
     15 C12        -0.8070   -8.9789    1.1535 C.ar      1 <0>        -0.2083
     16 C13        -0.6862  -10.3537    1.1553 C.ar      1 <0>        -0.0704
     17 C14        -1.3658  -11.1136    2.0934 C.ar      1 <0>        -0.1082
     18 C15        -2.1688  -10.4938    3.0329 C.ar      1 <0>        -0.0611
     19 C16        -2.2869   -9.1147    3.0375 C.ar      1 <0>        -0.1402
     20 C17        -2.7961  -11.5341    3.9361 C.3       1 <0>        -0.0829
     21 C18        -2.6408  -12.8712    3.1809 C.3       1 <0>        -0.1019
     22 C19        -1.3989  -12.6128    2.3016 C.3       1 <0>        -0.0265
     23 H1         -0.4962  -12.9432    2.8156 H         1 <0>         0.0888
     24 C20        -1.5401  -13.3323    0.9588 C.3       1 <0>        -0.1740
     25 C21        -1.4305  -14.8201    1.1721 C.2       1 <0>         0.4909
     26 O4         -1.1513  -15.2589    2.2748 O.co2     1 <0>        -0.6953
     27 O5         -1.6211  -15.5850    0.2420 O.co2     1 <0>        -0.7083
     28 C22         1.8313    0.8128   -3.2913 C.2       1 <0>         0.1940
     29 N1          1.7921    2.1355   -3.3731 N.2       1 <0>        -0.5115
     30 C23         2.4647    2.8061   -4.2970 C.2       1 <0>         0.2680
     31 C24         3.2129    2.0771   -5.1789 C.2       1 <0>        -0.2724
     32 S1          2.9339    0.4114   -4.6433 S.3       1 <0>         0.0508
     33 C25         4.0480    2.5994   -6.2983 C.3       1 <0>        -0.0286
     34 C26         3.6457    4.0686   -6.5264 C.3       1 <0>        -0.1535
     35 C27         3.5255    4.7549   -5.1614 C.3       1 <0>         0.0624
     36 O6          2.4503    4.1832   -4.4124 O.3       1 <0>        -0.2918
     37 H2         -0.2968    1.9919    0.7009 H         1 <0>         0.0573
     38 H3         -1.6918    1.8678   -0.3976 H         1 <0>         0.0575
     39 H4         -1.9374    1.7997    1.3641 H         1 <0>         0.1035
     40 H5          0.1777    1.5081   -1.2736 H         1 <0>         0.1503
     41 H6          1.9778   -1.8797   -3.1911 H         1 <0>         0.1346
     42 H7          0.8471   -3.3761   -1.6021 H         1 <0>         0.1475
     43 H8         -0.8218   -4.3363   -0.8021 H         1 <0>         0.0702
     44 H9          0.5729   -4.2124    0.2969 H         1 <0>         0.0700
     45 H10        -0.9405   -4.4613    2.2454 H         1 <0>         0.0871
     46 H11        -2.3351   -4.5853    1.1463 H         1 <0>         0.0873
     47 H12        -1.3381   -6.6048    0.1089 H         1 <0>         0.0646
     48 H13         0.0566   -6.4808    1.2080 H         1 <0>         0.0643
     49 H14        -0.2761   -8.3902    0.4200 H         1 <0>         0.1236
     50 H15        -0.0594  -10.8393    0.4220 H         1 <0>         0.1223
     51 H16        -2.9102   -8.6300    3.7744 H         1 <0>         0.1240
     52 H17        -2.2690  -11.5747    4.8893 H         1 <0>         0.0793
     53 H18        -3.8508  -11.3101    4.0954 H         1 <0>         0.0708
     54 H19        -2.4592  -13.6903    3.8767 H         1 <0>         0.0853
     55 H20        -3.5170  -13.0720    2.5644 H         1 <0>         0.0643
     56 H21        -2.5109  -13.0985    0.5216 H         1 <0>         0.0567
     57 H22        -0.7493  -13.0026    0.2850 H         1 <0>         0.0557
     58 H23         5.1032    2.5413   -6.0316 H         1 <0>         0.0866
     59 H24         3.8608    2.0195   -7.2020 H         1 <0>         0.0901
     60 H25         4.4080    4.5694   -7.1231 H         1 <0>         0.0947
     61 H26         2.6874    4.1106   -7.0440 H         1 <0>         0.0818
     62 H27         4.4572    4.6277   -4.6101 H         1 <0>         0.0654
     63 H28         3.3379    5.8187   -5.3076 H         1 <0>         0.1153
@<TRIPOS>BOND
     1    1    2 1
     2    1   37 1
     3    1   38 1
     4    1   39 1
     5    2    3 1
     6    3    8 ar
     7    3    4 ar
     8    4    5 ar
     9    4   40 1
    10    5    6 ar
    11    5   28 1
    12    6    7 ar
    13    6   41 1
    14    7    8 ar
    15    7   42 1
    16    8    9 1
    17    9   10 1
    18   10   11 1
    19   10   43 1
    20   10   44 1
    21   11   12 1
    22   11   45 1
    23   11   46 1
    24   12   13 1
    25   12   47 1
    26   12   48 1
    27   13   14 1
    28   14   19 ar
    29   14   15 ar
    30   15   16 ar
    31   15   49 1
    32   16   17 ar
    33   16   50 1
    34   17   22 1
    35   17   18 ar
    36   18   19 ar
    37   18   20 1
    38   19   51 1
    39   20   21 1
    40   20   52 1
    41   20   53 1
    42   21   22 1
    43   21   54 1
    44   21   55 1
    45   22   23 1
    46   22   24 1
    47   24   25 1
    48   24   56 1
    49   24   57 1
    50   25   26 2
    51   25   27 1
    52   28   32 1
    53   28   29 2
    54   29   30 1
    55   30   36 1
    56   30   31 2
    57   31   32 1
    58   31   33 1
    59   33   34 1
    60   33   58 1
    61   33   59 1
    62   34   35 1
    63   34   60 1
    64   34   61 1
    65   35   36 1
    66   35   62 1
    67   35   63 1
@<TRIPOS>MOLECULE
CHEMBL1089970
   74    78     0     0     0
SMALL
USER_CHARGES

@<TRIPOS>ATOM
      1 C1          0.0253    1.4774   -0.0978 C.3       1 <0>        -0.1099
      2 C2          0.0316   -0.0296   -0.1049 C.ar      1 <0>        -0.0980
      3 C3          1.1805   -0.7166    0.2413 C.ar      1 <0>        -0.1049
      4 C4          1.1887   -2.0980    0.2355 C.ar      1 <0>        -0.1141
      5 C5          0.0430   -2.7959   -0.1175 C.ar      1 <0>         0.1168
      6 C6         -1.1085   -2.1043   -0.4641 C.ar      1 <0>        -0.1194
      7 C7         -1.1132   -0.7229   -0.4521 C.ar      1 <0>        -0.1090
      8 O1          0.0488   -4.1553   -0.1244 O.3       1 <0>        -0.3019
      9 C8          0.1862   -4.7929    1.0539 C.2       1 <0>         0.6611
     10 O2          0.2039   -4.1580    2.0898 O.2       1 <0>        -0.5753
     11 N1          0.3041   -6.1351    1.0840 N.am      1 <0>        -0.5501
     12 C9          0.4536   -6.8288    2.3657 C.3       1 <0>         0.1777
     13 C10        -0.9072   -7.1884    2.9040 C.ar      1 <0>        -0.0636
     14 C11        -1.5840   -6.3008    3.7203 C.ar      1 <0>        -0.1286
     15 C12        -2.8325   -6.6277    4.2157 C.ar      1 <0>        -0.0860
     16 C13        -3.4071   -7.8430    3.8964 C.ar      1 <0>        -0.2084
     17 C14        -2.7304   -8.7351    3.0778 C.ar      1 <0>         0.1239
     18 C15        -1.4800   -8.4020    2.5769 C.ar      1 <0>        -0.1306
     19 O3         -3.2934   -9.9311    2.7623 O.3       1 <0>        -0.3078
     20 C16        -4.5852  -10.2042    3.3088 C.3       1 <0>         0.1479
     21 C17        -5.0456  -11.5652    2.8538 C.2       1 <0>        -0.0161
     22 C18        -5.7476  -11.8316    1.7381 C.2       1 <0>        -0.0150
     23 O4         -5.9531  -13.1637    1.7025 O.3       1 <0>        -0.1955
     24 C19        -5.3759  -13.6955    2.7940 C.2       1 <0>         0.2456
     25 N2         -4.8228  -12.7274    3.4871 N.2       1 <0>        -0.4614
     26 C20        -5.3615  -15.1289    3.1506 C.ar      1 <0>        -0.0793
     27 C21        -4.7293  -15.5523    4.3218 C.ar      1 <0>        -0.0150
     28 C22        -4.7180  -16.8897    4.6518 C.ar      1 <0>        -0.2018
     29 C23        -5.3350  -17.8180    3.8199 C.ar      1 <0>         0.2396
     30 C24        -5.9655  -17.3995    2.6529 C.ar      1 <0>        -0.2012
     31 C25        -5.9852  -16.0629    2.3203 C.ar      1 <0>        -0.0346
     32 N3         -5.3211  -19.1711    4.1563 N.pl3     1 <0>        -0.6278
     33 C26        -5.8423  -20.1876    3.2288 C.3       1 <0>         0.0838
     34 C27        -4.7864  -21.2881    3.0744 C.3       1 <0>         0.0452
     35 O5         -4.3960  -21.7509    4.3694 O.3       1 <0>        -0.3795
     36 C28        -3.7797  -20.7526    5.1865 C.3       1 <0>         0.0448
     37 C29        -4.7790  -19.6252    5.4467 C.3       1 <0>         0.0827
     38 C30        -6.2179  -10.8275    0.7174 C.3       1 <0>        -0.0725
     39 C31         0.2828   -6.9005   -0.1650 C.3       1 <0>         0.0402
     40 C32         1.6876   -7.0412   -0.6920 C.2       1 <0>         0.4822
     41 O6          2.6202   -6.5477   -0.0810 O.co2     1 <0>        -0.6832
     42 O7          1.8916   -7.6483   -1.7294 O.co2     1 <0>        -0.6966
     43 H1         -0.2712    1.8348    0.8883 H         1 <0>         0.0683
     44 H2          1.0238    1.8460   -0.3328 H         1 <0>         0.0652
     45 H3         -0.6812    1.8413   -0.8438 H         1 <0>         0.0645
     46 H4          2.0722   -0.1729    0.5161 H         1 <0>         0.1262
     47 H5          2.0866   -2.6342    0.5054 H         1 <0>         0.1310
     48 H6         -2.0016   -2.6454   -0.7397 H         1 <0>         0.1289
     49 H7         -2.0105   -0.1840   -0.7182 H         1 <0>         0.1267
     50 H8          1.0389   -7.7369    2.2213 H         1 <0>         0.0954
     51 H9          0.9639   -6.1765    3.0744 H         1 <0>         0.0962
     52 H10        -1.1362   -5.3506    3.9716 H         1 <0>         0.1318
     53 H11        -3.3590   -5.9328    4.8530 H         1 <0>         0.1228
     54 H12        -4.3822   -8.0983    4.2842 H         1 <0>         0.1237
     55 H13        -0.9531   -9.0929    1.9355 H         1 <0>         0.1318
     56 H14        -4.5309  -10.1842    4.3973 H         1 <0>         0.0799
     57 H15        -5.2919   -9.4483    2.9663 H         1 <0>         0.0786
     58 H16        -4.2494  -14.8321    4.9678 H         1 <0>         0.1391
     59 H17        -4.2293  -17.2177    5.5573 H         1 <0>         0.1317
     60 H18        -6.4434  -18.1228    2.0088 H         1 <0>         0.1300
     61 H19        -6.4784  -15.7380    1.4161 H         1 <0>         0.1308
     62 H20        -6.7613  -20.6144    3.6306 H         1 <0>         0.0732
     63 H21        -6.0421  -19.7318    2.2590 H         1 <0>         0.0949
     64 H22        -5.2047  -22.1164    2.5026 H         1 <0>         0.1062
     65 H23        -3.9167  -20.8876    2.5534 H         1 <0>         0.0576
     66 H24        -3.4739  -21.1957    6.1342 H         1 <0>         0.1068
     67 H25        -2.9064  -20.3502    4.6732 H         1 <0>         0.0576
     68 H26        -4.2749  -18.7972    5.9451 H         1 <0>         0.0963
     69 H27        -5.5891  -19.9945    6.0757 H         1 <0>         0.0734
     70 H28        -5.4547  -10.7063   -0.0513 H         1 <0>         0.0929
     71 H29        -7.1420  -11.1804    0.2596 H         1 <0>         0.0811
     72 H30        -6.3970   -9.8697    1.2058 H         1 <0>         0.0931
     73 H31        -0.1358   -7.8894    0.0220 H         1 <0>         0.0787
     74 H32        -0.3305   -6.3794   -0.9000 H         1 <0>         0.0814
@<TRIPOS>BOND
     1    1    2 1
     2    1   43 1
     3    1   44 1
     4    1   45 1
     5    2    7 ar
     6    2    3 ar
     7    3    4 ar
     8    3   46 1
     9    4    5 ar
    10    4   47 1
    11    5    6 ar
    12    5    8 1
    13    6    7 ar
    14    6   48 1
    15    7   49 1
    16    8    9 1
    17    9   10 2
    18    9   11 am
    19   11   12 1
    20   11   39 1
    21   12   13 1
    22   12   50 1
    23   12   51 1
    24   13   18 ar
    25   13   14 ar
    26   14   15 ar
    27   14   52 1
    28   15   16 ar
    29   15   53 1
    30   16   17 ar
    31   16   54 1
    32   17   18 ar
    33   17   19 1
    34   18   55 1
    35   19   20 1
    36   20   21 1
    37   20   56 1
    38   20   57 1
    39   21   25 1
    40   21   22 2
    41   22   23 1
    42   22   38 1
    43   23   24 1
    44   24   25 2
    45   24   26 1
    46   26   31 ar
    47   26   27 ar
    48   27   28 ar
    49   27   58 1
    50   28   29 ar
    51   28   59 1
    52   29   30 ar
    53   29   32 1
    54   30   31 ar
    55   30   60 1
    56   31   61 1
    57   32   37 1
    58   32   33 1
    59   33   34 1
    60   33   62 1
    61   33   63 1
    62   34   35 1
    63   34   64 1
    64   34   65 1
    65   35   36 1
    66   36   37 1
    67   36   66 1
    68   36   67 1
    69   37   68 1
    70   37   69 1
    71   38   70 1
    72   38   71 1
    73   38   72 1
    74   39   40 1
    75   39   73 1
    76   39   74 1
    77   40   41 2
    78   40   42 1
@<TRIPOS>MOLECULE
CHEMBL179180
   56    58     0     0     0
SMALL
USER_CHARGES

@<TRIPOS>ATOM
      1 C1         -0.0187    1.5258    0.0104 C.3       1 <0>        -0.1452
      2 C2          0.0021   -0.0041    0.0020 C.3       1 <0>        -0.0887
      3 C3         -1.4333   -0.5336    0.0129 C.3       1 <0>         0.0409
      4 C4         -1.4183   -2.0649    0.1036 C.3       1 <0>        -0.1306
      5 C5         -2.8639   -2.5534    0.2242 C.3       1 <0>        -0.0706
      6 C6         -3.7151   -1.8848   -0.8256 C.ar      1 <0>        -0.1836
      7 C7         -4.9423   -2.4443   -1.1426 C.ar      1 <0>        -0.0496
      8 C8         -5.7514   -1.8589   -2.0951 C.ar      1 <0>        -0.2542
      9 C9         -5.3357   -0.7028   -2.7408 C.ar      1 <0>         0.1517
     10 C10        -4.1090   -0.1421   -2.4281 C.ar      1 <0>        -0.1886
     11 C11        -3.2939   -0.7340   -1.4695 C.ar      1 <0>         0.2198
     12 O1         -2.0929   -0.1604   -1.1977 O.3       1 <0>        -0.2953
     13 O2         -6.1307   -0.1227   -3.6780 O.3       1 <0>        -0.3128
     14 C12        -7.3822   -0.7567   -3.9495 C.3       1 <0>         0.0672
     15 C13        -8.1322    0.0342   -5.0233 C.3       1 <0>        -0.1197
     16 C14        -9.4722   -0.6446   -5.3140 C.3       1 <0>         0.0622
     17 O3        -10.1727    0.0941   -6.3169 O.3       1 <0>        -0.2977
     18 C15       -11.3911   -0.3784   -6.6937 C.ar      1 <0>         0.1177
     19 C16       -11.9023   -1.5254   -6.1054 C.ar      1 <0>        -0.1568
     20 C17       -13.1400   -2.0052   -6.4876 C.ar      1 <0>        -0.0932
     21 C18       -13.8719   -1.3403   -7.4604 C.ar      1 <0>         0.0984
     22 C19       -13.3615   -0.1932   -8.0494 C.ar      1 <0>        -0.1611
     23 C20       -12.1254    0.2904   -7.6630 C.ar      1 <0>        -0.0323
     24 Cl1       -11.4891    1.7304   -8.3946 Cl        1 <0>        -0.0439
     25 O4        -15.0898   -1.8136   -7.8370 O.3       1 <0>        -0.2955
     26 C21       -15.7883   -1.0788   -8.8442 C.3       1 <0>         0.0111
     27 C22       -17.1283   -1.7580   -9.1339 C.3       1 <0>         0.4665
     28 F1        -17.8961   -1.7924   -7.9649 F         1 <0>        -0.1721
     29 F2        -17.8121   -1.0387  -10.1200 F         1 <0>        -0.1706
     30 F3        -16.9021   -3.0639   -9.5818 F         1 <0>        -0.1723
     31 C23        -2.1763    0.0382    1.1927 C.2       1 <0>         0.4950
     32 O5         -3.1755    0.7137    1.0148 O.co2     1 <0>        -0.6728
     33 O6         -1.7781   -0.1747    2.3253 O.co2     1 <0>        -0.6895
     34 H1          1.0039    1.9031    0.0027 H         1 <0>         0.0452
     35 H2         -0.5459    1.8868   -0.8726 H         1 <0>         0.0557
     36 H3         -0.5289    1.8773    0.9072 H         1 <0>         0.0610
     37 H4          0.5123   -0.3556   -0.8948 H         1 <0>         0.0562
     38 H5          0.5293   -0.3651    0.8851 H         1 <0>         0.0808
     39 H6         -0.9634   -2.4818   -0.7949 H         1 <0>         0.0606
     40 H7         -0.8512   -2.3754    0.9811 H         1 <0>         0.0828
     41 H8         -2.8948   -3.6337    0.0822 H         1 <0>         0.0686
     42 H9         -3.2486   -2.3072    1.2139 H         1 <0>         0.0793
     43 H10        -5.2679   -3.3437   -0.6411 H         1 <0>         0.1195
     44 H11        -6.7068   -2.3001   -2.3380 H         1 <0>         0.1197
     45 H12        -3.7843    0.7574   -2.9300 H         1 <0>         0.1311
     46 H13        -7.2058   -1.7725   -4.3032 H         1 <0>         0.0633
     47 H14        -7.9790   -0.7878   -3.0379 H         1 <0>         0.0647
     48 H15        -8.3086    1.0500   -4.6696 H         1 <0>         0.0883
     49 H16        -7.5354    0.0654   -5.9349 H         1 <0>         0.0871
     50 H17        -9.2958   -1.6604   -5.6676 H         1 <0>         0.0696
     51 H18       -10.0690   -0.6757   -4.4024 H         1 <0>         0.0703
     52 H19       -11.3326   -2.0438   -5.3484 H         1 <0>         0.1497
     53 H20       -13.5378   -2.8985   -6.0292 H         1 <0>         0.1450
     54 H21       -13.9313    0.3244   -8.8068 H         1 <0>         0.1449
     55 H22       -15.9645   -0.0614   -8.4952 H         1 <0>         0.1115
     56 H23       -15.1901   -1.0521   -9.7550 H         1 <0>         0.1113
@<TRIPOS>BOND
     1    1    2 1
     2    1   34 1
     3    1   35 1
     4    1   36 1
     5    2    3 1
     6    2   37 1
     7    2   38 1
     8    3   12 1
     9    3    4 1
    10    3   31 1
    11    4    5 1
    12    4   39 1
    13    4   40 1
    14    5    6 1
    15    5   41 1
    16    5   42 1
    17    6   11 ar
    18    6    7 ar
    19    7    8 ar
    20    7   43 1
    21    8    9 ar
    22    8   44 1
    23    9   10 ar
    24    9   13 1
    25   10   11 ar
    26   10   45 1
    27   11   12 1
    28   13   14 1
    29   14   15 1
    30   14   46 1
    31   14   47 1
    32   15   16 1
    33   15   48 1
    34   15   49 1
    35   16   17 1
    36   16   50 1
    37   16   51 1
    38   17   18 1
    39   18   23 ar
    40   18   19 ar
    41   19   20 ar
    42   19   52 1
    43   20   21 ar
    44   20   53 1
    45   21   22 ar
    46   21   25 1
    47   22   23 ar
    48   22   54 1
    49   23   24 1
    50   25   26 1
    51   26   27 1
    52   26   55 1
    53   26   56 1
    54   27   28 1
    55   27   29 1
    56   27   30 1
    57   31   32 2
    58   31   33 1
@<TRIPOS>MOLECULE
CHEMBL213315
   61    63     0     0     0
SMALL
USER_CHARGES

@<TRIPOS>ATOM
      1 C1          1.4909    2.1239   -2.6989 C.3       1 <0>        -0.1212
      2 C2          1.3115    0.7064   -2.2198 C.ar      1 <0>        -0.0461
      3 C3          1.0598   -0.3029   -3.1292 C.ar      1 <0>        -0.1503
      4 C4          0.8953   -1.6075   -2.6876 C.ar      1 <0>         0.1139
      5 C5          0.9840   -1.8954   -1.3332 C.ar      1 <0>        -0.2097
      6 C6          1.2357   -0.8829   -0.4281 C.ar      1 <0>        -0.0791
      7 C7          1.4046    0.4161   -0.8714 C.ar      1 <0>        -0.0993
      8 C8          1.6854    1.5180    0.1176 C.3       1 <0>        -0.0567
      9 C9          0.3729    2.2024    0.5048 C.3       1 <0>        -0.1755
     10 C10         0.6536    3.3042    1.4938 C.2       1 <0>         0.4892
     11 O1          1.7975    3.5219    1.8555 O.co2     1 <0>        -0.6985
     12 O2         -0.2630    3.9779    1.9324 O.co2     1 <0>        -0.7067
     13 O3          0.6473   -2.6020   -3.5800 O.3       1 <0>        -0.3182
     14 C11         0.4888   -3.9212   -3.0539 C.3       1 <0>         0.0598
     15 C12         0.2183   -4.8981   -4.1999 C.3       1 <0>        -0.1127
     16 C13         0.0486   -6.3105   -3.6366 C.3       1 <0>         0.0815
     17 H1         -0.7314   -6.3068   -2.8753 H         1 <0>         0.0807
     18 C14        -0.3447   -7.2658   -4.7651 C.3       1 <0>        -0.1804
     19 O4          1.2802   -6.7423   -3.0545 O.3       1 <0>        -0.2893
     20 C15         1.2062   -7.7030   -2.0950 C.ar      1 <0>         0.1474
     21 C16        -0.0132   -8.2848   -1.7874 C.ar      1 <0>        -0.1817
     22 C17        -0.0866   -9.2617   -0.8120 C.ar      1 <0>        -0.0589
     23 C18         1.0547   -9.6603   -0.1410 C.ar      1 <0>        -0.1873
     24 C19         2.2744   -9.0838   -0.4425 C.ar      1 <0>        -0.1095
     25 C20         2.3561   -8.1083   -1.4236 C.ar      1 <0>         0.0945
     26 O5          3.5560   -7.5444   -1.7256 O.3       1 <0>        -0.2396
     27 C21         4.6658   -8.0445   -1.1219 C.ar      1 <0>         0.0755
     28 C22         5.2046   -9.2505   -1.5471 C.ar      1 <0>        -0.1332
     29 C23         6.3332   -9.7564   -0.9320 C.ar      1 <0>        -0.1062
     30 C24         6.9261   -9.0622    0.1066 C.ar      1 <0>        -0.1160
     31 C25         6.3909   -7.8605    0.5325 C.ar      1 <0>        -0.1037
     32 C26         5.2657   -7.3473   -0.0829 C.ar      1 <0>        -0.1179
     33 C27         0.9687  -10.7253    0.9217 C.3       1 <0>         0.5128
     34 F1         -0.3575  -11.1527    1.0474 F         1 <0>        -0.1761
     35 F2          1.7759  -11.8097    0.5616 F         1 <0>        -0.1766
     36 F3          1.4078  -10.2023    2.1427 F         1 <0>        -0.1749
     37 H2          2.5433    2.3026   -2.9192 H         1 <0>         0.0715
     38 H3          0.8992    2.2802   -3.6010 H         1 <0>         0.0633
     39 H4          1.1598    2.8143   -1.9231 H         1 <0>         0.0810
     40 H5          0.9909   -0.0763   -4.1829 H         1 <0>         0.1252
     41 H6          0.8559   -2.9103   -0.9868 H         1 <0>         0.1202
     42 H7          1.3048   -1.1064    0.6262 H         1 <0>         0.1231
     43 H8          2.1520    1.0967    1.0081 H         1 <0>         0.0678
     44 H9          2.3568    2.2486   -0.3334 H         1 <0>         0.0721
     45 H10        -0.0937    2.6236   -0.3856 H         1 <0>         0.0579
     46 H11        -0.2986    1.4717    0.9558 H         1 <0>         0.0555
     47 H12         1.3994   -4.2161   -2.5323 H         1 <0>         0.0680
     48 H13        -0.3498   -3.9364   -2.3578 H         1 <0>         0.0586
     49 H14        -0.6923   -4.6032   -4.7214 H         1 <0>         0.0973
     50 H15         1.0569   -4.8829   -4.8960 H         1 <0>         0.0888
     51 H16        -1.2841   -6.9365   -5.2091 H         1 <0>         0.0785
     52 H17         0.4354   -7.2696   -5.5264 H         1 <0>         0.0728
     53 H18        -0.4655   -8.2721   -4.3638 H         1 <0>         0.0664
     54 H19        -0.9063   -7.9748   -2.3095 H         1 <0>         0.1518
     55 H20        -1.0377   -9.7143   -0.5733 H         1 <0>         0.1455
     56 H21         3.1642   -9.3965    0.0837 H         1 <0>         0.1454
     57 H22         4.7418   -9.7933   -2.3580 H         1 <0>         0.1303
     58 H23         6.7528  -10.6952   -1.2623 H         1 <0>         0.1308
     59 H24         7.8084   -9.4595    0.5861 H         1 <0>         0.1294
     60 H25         6.8556   -7.3204    1.3442 H         1 <0>         0.1338
     61 H26         4.8507   -6.4065    0.2472 H         1 <0>         0.1352
@<TRIPOS>BOND
     1    1    2 1
     2    1   37 1
     3    1   38 1
     4    1   39 1
     5    2    7 ar
     6    2    3 ar
     7    3    4 ar
     8    3   40 1
     9    4    5 ar
    10    4   13 1
    11    5    6 ar
    12    5   41 1
    13    6    7 ar
    14    6   42 1
    15    7    8 1
    16    8    9 1
    17    8   43 1
    18    8   44 1
    19    9   10 1
    20    9   45 1
    21    9   46 1
    22   10   11 2
    23   10   12 1
    24   13   14 1
    25   14   15 1
    26   14   47 1
    27   14   48 1
    28   15   16 1
    29   15   49 1
    30   15   50 1
    31   16   17 1
    32   16   18 1
    33   16   19 1
    34   18   51 1
    35   18   52 1
    36   18   53 1
    37   19   20 1
    38   20   25 ar
    39   20   21 ar
    40   21   22 ar
    41   21   54 1
    42   22   23 ar
    43   22   55 1
    44   23   24 ar
    45   23   33 1
    46   24   25 ar
    47   24   56 1
    48   25   26 1
    49   26   27 1
    50   27   32 ar
    51   27   28 ar
    52   28   29 ar
    53   28   57 1
    54   29   30 ar
    55   29   58 1
    56   30   31 ar
    57   30   59 1
    58   31   32 ar
    59   31   60 1
    60   32   61 1
    61   33   34 1
    62   33   35 1
    63   33   36 1
@<TRIPOS>MOLECULE
CHEMBL104850
   54    57     0     0     0
SMALL
USER_CHARGES

@<TRIPOS>ATOM
      1 C1         -0.0184    1.5028    0.0103 C.3       1 <0>        -0.0711
      2 C2          0.0021   -0.0041    0.0020 C.2       1 <0>        -0.0339
      3 C3         -1.0705   -0.8164    0.0025 C.2       1 <0>        -0.0049
      4 N1         -0.6270   -2.0826   -0.0064 N.2       1 <0>        -0.4578
      5 C4          0.6851   -2.0676   -0.0123 C.2       1 <0>         0.2284
      6 O1          1.0981   -0.7883   -0.0131 O.3       1 <0>        -0.1937
      7 C5          1.5619   -3.2577   -0.0227 C.ar      1 <0>        -0.0168
      8 C6          1.0059   -4.5378   -0.0330 C.ar      1 <0>        -0.0703
      9 C7          1.8298   -5.6443   -0.0432 C.ar      1 <0>        -0.1202
     10 C8          3.2044   -5.4871   -0.0433 C.ar      1 <0>        -0.1014
     11 C9          3.7620   -4.2209   -0.0327 C.ar      1 <0>        -0.1217
     12 C10         2.9493   -3.1060   -0.0282 C.ar      1 <0>        -0.0910
     13 C11        -2.5133   -0.3814    0.0119 C.3       1 <0>        -0.0349
     14 C12        -3.0085   -0.2260   -1.4274 C.3       1 <0>         0.0684
     15 O2         -4.3766    0.1865   -1.4185 O.3       1 <0>        -0.3155
     16 C13        -4.9731    0.3716   -2.6255 C.ar      1 <0>         0.1204
     17 C14        -4.2580    0.1549   -3.7944 C.ar      1 <0>        -0.2104
     18 C15        -4.8667    0.3432   -5.0201 C.ar      1 <0>        -0.0780
     19 C16        -6.1874    0.7477   -5.0825 C.ar      1 <0>        -0.1024
     20 C17        -6.9021    0.9648   -3.9190 C.ar      1 <0>        -0.0516
     21 C18        -6.2998    0.7719   -2.6908 C.ar      1 <0>        -0.1457
     22 C19        -6.8489    0.9529   -6.4210 C.3       1 <0>        -0.0686
     23 C20        -7.4951   -0.3570   -6.8767 C.3       1 <0>         0.0630
     24 H1         -6.7470   -1.1498   -6.8785 H         1 <0>         0.0854
     25 C21        -8.6112   -0.7217   -5.9321 C.2       1 <0>         0.5007
     26 O3         -9.5548    0.0357   -5.7821 O.co2     1 <0>        -0.6778
     27 O4         -8.5706   -1.7741   -5.3179 O.co2     1 <0>        -0.6803
     28 N2         -8.0341   -0.1911   -8.2287 N.pl3     1 <0>        -0.4136
     29 C22        -8.9847    0.7133   -8.5995 C.2       1 <0>         0.0219
     30 C23        -9.2184    0.5623   -9.9190 C.2       1 <0>        -0.2322
     31 C24        -8.3815   -0.4733  -10.3797 C.2       1 <0>        -0.2137
     32 C25        -7.6640   -0.9117   -9.3254 C.2       1 <0>        -0.0304
     33 H2          1.0042    1.8801    0.0026 H         1 <0>         0.0800
     34 H3         -0.5455    1.8639   -0.8728 H         1 <0>         0.0921
     35 H4         -0.5286    1.8543    0.9071 H         1 <0>         0.0930
     36 H5         -0.0670   -4.6619   -0.0326 H         1 <0>         0.1396
     37 H6          1.4008   -6.6354   -0.0508 H         1 <0>         0.1330
     38 H7          3.8450   -6.3565   -0.0513 H         1 <0>         0.1283
     39 H8          4.8357   -4.1050   -0.0321 H         1 <0>         0.1303
     40 H9          3.3858   -2.1181   -0.0249 H         1 <0>         0.1298
     41 H10        -3.1156   -1.1316    0.5243 H         1 <0>         0.0953
     42 H11        -2.6018    0.5726    0.5316 H         1 <0>         0.0926
     43 H12        -2.4061    0.5242   -1.9398 H         1 <0>         0.0593
     44 H13        -2.9200   -1.1800   -1.9471 H         1 <0>         0.0650
     45 H14        -3.2262   -0.1604   -3.7462 H         1 <0>         0.1209
     46 H15        -4.3105    0.1747   -5.9304 H         1 <0>         0.1197
     47 H16        -7.9335    1.2810   -3.9704 H         1 <0>         0.1362
     48 H17        -6.8598    0.9373   -1.7823 H         1 <0>         0.1285
     49 H18        -7.6139    1.7243   -6.3338 H         1 <0>         0.0825
     50 H19        -6.1019    1.2629   -7.1517 H         1 <0>         0.0644
     51 H20        -9.4676    1.4271   -7.9486 H         1 <0>         0.1593
     52 H21        -9.9184    1.1307  -10.5133 H         1 <0>         0.1257
     53 H22        -8.3221   -0.8446  -11.3921 H         1 <0>         0.1247
     54 H23        -6.9253   -1.6992   -9.3458 H         1 <0>         0.1495
@<TRIPOS>BOND
     1    1    2 1
     2    1   33 1
     3    1   34 1
     4    1   35 1
     5    2    6 1
     6    2    3 2
     7    3    4 1
     8    3   13 1
     9    4    5 2
    10    5    6 1
    11    5    7 1
    12    7   12 ar
    13    7    8 ar
    14    8    9 ar
    15    8   36 1
    16    9   10 ar
    17    9   37 1
    18   10   11 ar
    19   10   38 1
    20   11   12 ar
    21   11   39 1
    22   12   40 1
    23   13   14 1
    24   13   41 1
    25   13   42 1
    26   14   15 1
    27   14   43 1
    28   14   44 1
    29   15   16 1
    30   16   21 ar
    31   16   17 ar
    32   17   18 ar
    33   17   45 1
    34   18   19 ar
    35   18   46 1
    36   19   20 ar
    37   19   22 1
    38   20   21 ar
    39   20   47 1
    40   21   48 1
    41   22   23 1
    42   22   49 1
    43   22   50 1
    44   23   24 1
    45   23   25 1
    46   23   28 1
    47   25   26 2
    48   25   27 1
    49   28   32 1
    50   28   29 1
    51   29   30 2
    52   29   51 1
    53   30   31 1
    54   30   52 1
    55   31   32 2
    56   31   53 1
    57   32   54 1
@<TRIPOS>MOLECULE
CHEMBL324027
   58    60     0     0     0
SMALL
USER_CHARGES

@<TRIPOS>ATOM
      1 C1         -0.1987    1.4586    0.2981 C.3       1 <0>         0.0325
      2 O1         -0.1951    0.0402    0.4716 O.3       1 <0>        -0.3411
      3 C2         -1.1780   -0.6496   -0.1283 C.2       1 <0>         0.4771
      4 O2         -2.0138   -0.0683   -0.7791 O.2       1 <0>        -0.4870
      5 C3         -1.2391   -2.1490    0.0100 C.3       1 <0>        -0.0706
      6 C4         -2.6984   -2.5901    0.1396 C.3       1 <0>        -0.0542
      7 C5         -3.2666   -2.0718    1.4356 C.ar      1 <0>        -0.1388
      8 C6         -3.0681   -2.7781    2.6076 C.ar      1 <0>        -0.0681
      9 C7         -3.5883   -2.3053    3.7968 C.ar      1 <0>        -0.1490
     10 C8         -4.3100   -1.1206    3.8146 C.ar      1 <0>         0.1358
     11 C9         -4.5074   -0.4137    2.6374 C.ar      1 <0>        -0.2092
     12 C10        -3.9807   -0.8880    1.4516 C.ar      1 <0>        -0.0648
     13 O3         -4.8232   -0.6537    4.9832 O.3       1 <0>        -0.3061
     14 C11        -5.5552    0.5722    4.9263 C.3       1 <0>         0.0610
     15 C12        -6.0513    0.9354    6.3274 C.3       1 <0>         0.0620
     16 O4         -4.9320    1.2024    7.1746 O.3       1 <0>        -0.3082
     17 C13        -5.2004    1.5426    8.4627 C.ar      1 <0>         0.1281
     18 C14        -6.5133    1.6131    8.9063 C.ar      1 <0>        -0.2094
     19 C15        -6.7748    1.9615   10.2139 C.ar      1 <0>        -0.0794
     20 C16        -5.7359    2.2415   11.0932 C.ar      1 <0>        -0.1134
     21 C17        -4.4319    2.1672   10.6567 C.ar      1 <0>        -0.0352
     22 C18        -4.1654    1.8151    9.3405 C.ar      1 <0>        -0.1536
     23 C19        -3.2578    2.4417   11.5598 C.3       1 <0>        -0.0829
     24 C20        -3.7037    3.2086   12.8030 C.3       1 <0>        -0.1202
     25 C21        -4.8910    2.4673   13.4289 C.3       1 <0>        -0.1212
     26 C22        -6.0972    2.6230   12.5051 C.3       1 <0>        -0.0768
     27 C23        -0.6265   -2.7911   -1.2080 C.2       1 <0>         0.4731
     28 O5         -1.2891   -3.5262   -1.9012 O.2       1 <0>        -0.4798
     29 O6          0.6552   -2.5465   -1.5228 O.3       1 <0>        -0.3472
     30 C24         1.1704   -3.1887   -2.6908 C.3       1 <0>         0.0317
     31 H1          0.6463    1.8922    0.8330 H         1 <0>         0.1066
     32 H2         -0.1172    1.6951   -0.7628 H         1 <0>         0.0632
     33 H3         -1.1280    1.8705    0.6918 H         1 <0>         0.0631
     34 H4         -0.6868   -2.4547    0.8985 H         1 <0>         0.1448
     35 H5         -3.2743   -2.1906   -0.6951 H         1 <0>         0.0972
     36 H6         -2.7511   -3.6788    0.1294 H         1 <0>         0.1030
     37 H7         -2.5062   -3.7003    2.5933 H         1 <0>         0.1332
     38 H8         -3.4336   -2.8577    4.7119 H         1 <0>         0.1338
     39 H9         -5.0689    0.5088    2.6486 H         1 <0>         0.1282
     40 H10        -4.1303   -0.3357    0.5356 H         1 <0>         0.1309
     41 H11        -4.9072    1.3654    4.5533 H         1 <0>         0.0757
     42 H12        -6.4082    0.4554    4.2578 H         1 <0>         0.0865
     43 H13        -6.6835    1.8215    6.2706 H         1 <0>         0.0856
     44 H14        -6.6262    0.1045    6.7360 H         1 <0>         0.0755
     45 H15        -7.3268    1.3962    8.2297 H         1 <0>         0.1265
     46 H16        -7.7969    2.0177   10.5584 H         1 <0>         0.1239
     47 H17        -3.1428    1.7573    8.9978 H         1 <0>         0.1290
     48 H18        -2.8087    1.4959   11.8628 H         1 <0>         0.0793
     49 H19        -2.5188    3.0327   11.0188 H         1 <0>         0.0769
     50 H20        -2.8828    3.2570   13.5184 H         1 <0>         0.0692
     51 H21        -4.0072    4.2173   12.5229 H         1 <0>         0.0661
     52 H22        -4.6472    1.4107   13.5393 H         1 <0>         0.0658
     53 H23        -5.1183    2.8962   14.4049 H         1 <0>         0.0682
     54 H24        -6.4319    3.6602   12.5227 H         1 <0>         0.0735
     55 H25        -6.9041    1.9796   12.8560 H         1 <0>         0.0723
     56 H26         0.5910   -2.8796   -3.5608 H         1 <0>         0.0638
     57 H27         2.2139   -2.9064   -2.8302 H         1 <0>         0.1075
     58 H28         1.0991   -4.2699   -2.5722 H         1 <0>         0.0660
@<TRIPOS>BOND
     1    1    2 1
     2    1   31 1
     3    1   32 1
     4    1   33 1
     5    2    3 1
     6    3    4 2
     7    3    5 1
     8    5    6 1
     9    5   27 1
    10    5   34 1
    11    6    7 1
    12    6   35 1
    13    6   36 1
    14    7   12 ar
    15    7    8 ar
    16    8    9 ar
    17    8   37 1
    18    9   10 ar
    19    9   38 1
    20   10   11 ar
    21   10   13 1
    22   11   12 ar
    23   11   39 1
    24   12   40 1
    25   13   14 1
    26   14   15 1
    27   14   41 1
    28   14   42 1
    29   15   16 1
    30   15   43 1
    31   15   44 1
    32   16   17 1
    33   17   22 ar
    34   17   18 ar
    35   18   19 ar
    36   18   45 1
    37   19   20 ar
    38   19   46 1
    39   20   26 1
    40   20   21 ar
    41   21   22 ar
    42   21   23 1
    43   22   47 1
    44   23   24 1
    45   23   48 1
    46   23   49 1
    47   24   25 1
    48   24   50 1
    49   24   51 1
    50   25   26 1
    51   25   52 1
    52   25   53 1
    53   26   54 1
    54   26   55 1
    55   27   28 2
    56   27   29 1
    57   29   30 1
    58   30   56 1
    59   30   57 1
    60   30   58 1
@<TRIPOS>MOLECULE
CHEMBL233003
   67    69     0     0     0
SMALL
USER_CHARGES

@<TRIPOS>ATOM
      1 C1         -0.0187    1.5258    0.0104 C.3       1 <0>        -0.1431
      2 C2          0.0021   -0.0041    0.0020 C.3       1 <0>         0.0664
      3 O1          0.6709   -0.4649   -1.1737 O.3       1 <0>        -0.3668
      4 C3          0.7457   -1.8880   -1.2798 C.3       1 <0>         0.0343
      5 H1         -0.1179   -2.3349   -0.7873 H         1 <0>         0.0482
      6 C4          0.7554   -2.2896   -2.7561 C.3       1 <0>        -0.0655
      7 C5         -0.5593   -1.9112   -3.3882 C.ar      1 <0>        -0.0621
      8 C6         -1.6114   -2.8078   -3.3844 C.ar      1 <0>        -0.1196
      9 C7         -2.8173   -2.4607   -3.9642 C.ar      1 <0>        -0.1175
     10 C8         -2.9712   -1.2169   -4.5475 C.ar      1 <0>        -0.1011
     11 C9         -1.9194   -0.3200   -4.5505 C.ar      1 <0>        -0.1174
     12 C10        -0.7148   -0.6655   -3.9668 C.ar      1 <0>        -0.0986
     13 C11        -4.2856   -0.8390   -5.1804 C.3       1 <0>        -0.0743
     14 C12        -5.1836   -0.1760   -4.1341 C.3       1 <0>        -0.1044
     15 C13        -6.5180    0.2077   -4.7767 C.3       1 <0>         0.1303
     16 C14        -7.3545    0.9694   -3.7811 C.ar      1 <0>        -0.1043
     17 C15        -8.0548    0.2889   -2.8026 C.ar      1 <0>        -0.1023
     18 C16        -8.8220    0.9875   -1.8893 C.ar      1 <0>        -0.1243
     19 C17        -8.8886    2.3668   -1.9542 C.ar      1 <0>        -0.1141
     20 C18        -8.1876    3.0473   -2.9321 C.ar      1 <0>        -0.1208
     21 C19        -7.4169    2.3489   -3.8427 C.ar      1 <0>        -0.0839
     22 O2         -7.2124   -0.9758   -5.1756 O.3       1 <0>        -0.3021
     23 C20        -8.0268   -0.8763   -6.2445 C.2       1 <0>         0.5039
     24 S1         -8.1922    0.6208   -7.0583 S.2       1 <0>        -0.6049
     25 N1         -8.7112   -1.9554   -6.6730 N.pl3     1 <0>        -0.6449
     26 C21        -9.5967   -1.8473   -7.8351 C.3       1 <0>         0.1255
     27 C22       -10.2474   -3.2047   -8.1086 C.3       1 <0>        -0.0943
     28 C23       -11.1582   -3.0935   -9.3040 C.ar      1 <0>        -0.0842
     29 C24       -12.4850   -2.7457   -9.1321 C.ar      1 <0>        -0.1112
     30 C25       -13.3205   -2.6437  -10.2287 C.ar      1 <0>        -0.1182
     31 C26       -12.8290   -2.8890  -11.4972 C.ar      1 <0>        -0.1186
     32 C27       -11.5020   -3.2358  -11.6692 C.ar      1 <0>        -0.1176
     33 C28       -10.6655   -3.3337  -10.5731 C.ar      1 <0>        -0.1105
     34 C29         2.0091   -2.3753   -0.6184 C.2       1 <0>         0.4774
     35 O3          2.7745   -1.5779   -0.1038 O.co2     1 <0>        -0.6798
     36 O4          2.2658   -3.5670   -0.5978 O.co2     1 <0>        -0.6999
     37 H2          1.0039    1.9031    0.0027 H         1 <0>         0.0623
     38 H3         -0.5459    1.8868   -0.8726 H         1 <0>         0.0540
     39 H4         -0.5289    1.8773    0.9072 H         1 <0>         0.0597
     40 H5          0.5293   -0.3651    0.8851 H         1 <0>         0.0467
     41 H6         -1.0205   -0.3814    0.0098 H         1 <0>         0.0287
     42 H7          1.5669   -1.7723   -3.2680 H         1 <0>         0.0736
     43 H8          0.9017   -3.3665   -2.8387 H         1 <0>         0.0881
     44 H9         -1.4912   -3.7796   -2.9288 H         1 <0>         0.1198
     45 H10        -3.6391   -3.1615   -3.9619 H         1 <0>         0.1137
     46 H11        -2.0395    0.6516   -5.0064 H         1 <0>         0.1164
     47 H12         0.1058    0.0367   -3.9659 H         1 <0>         0.1231
     48 H13        -4.1073   -0.1426   -5.9999 H         1 <0>         0.0725
     49 H14        -4.7747   -1.7342   -5.5644 H         1 <0>         0.0690
     50 H15        -5.3619   -0.8724   -3.3147 H         1 <0>         0.0779
     51 H16        -4.6945    0.7192   -3.7502 H         1 <0>         0.0963
     52 H17        -6.3341    0.8329   -5.6504 H         1 <0>         0.1270
     53 H18        -8.0027   -0.7887   -2.7519 H         1 <0>         0.1196
     54 H19        -9.3697    0.4558   -1.1253 H         1 <0>         0.1208
     55 H20        -9.4886    2.9126   -1.2411 H         1 <0>         0.1210
     56 H21        -8.2399    4.1249   -2.9830 H         1 <0>         0.1239
     57 H22        -6.8663    2.8809   -4.6045 H         1 <0>         0.1270
     58 H23        -8.6176   -2.8037   -6.2119 H         1 <0>         0.4072
     59 H24       -10.3711   -1.1070   -7.6342 H         1 <0>         0.0947
     60 H25        -9.0174   -1.5400   -8.7059 H         1 <0>         0.0959
     61 H26        -9.4730   -3.9450   -8.3095 H         1 <0>         0.0837
     62 H27       -10.8266   -3.5120   -7.2379 H         1 <0>         0.0827
     63 H28       -12.8689   -2.5541   -8.1410 H         1 <0>         0.1226
     64 H29       -14.3572   -2.3727  -10.0942 H         1 <0>         0.1231
     65 H30       -13.4820   -2.8099  -12.3539 H         1 <0>         0.1222
     66 H31       -11.1182   -3.4278  -12.6603 H         1 <0>         0.1236
     67 H32        -9.6278   -3.6011  -10.7078 H         1 <0>         0.1235
@<TRIPOS>BOND
     1    1    2 1
     2    1   37 1
     3    1   38 1
     4    1   39 1
     5    2    3 1
     6    2   40 1
     7    2   41 1
     8    3    4 1
     9    4    5 1
    10    4    6 1
    11    4   34 1
    12    6    7 1
    13    6   42 1
    14    6   43 1
    15    7   12 ar
    16    7    8 ar
    17    8    9 ar
    18    8   44 1
    19    9   10 ar
    20    9   45 1
    21   10   11 ar
    22   10   13 1
    23   11   12 ar
    24   11   46 1
    25   12   47 1
    26   13   14 1
    27   13   48 1
    28   13   49 1
    29   14   15 1
    30   14   50 1
    31   14   51 1
    32   15   16 1
    33   15   22 1
    34   15   52 1
    35   16   21 ar
    36   16   17 ar
    37   17   18 ar
    38   17   53 1
    39   18   19 ar
    40   18   54 1
    41   19   20 ar
    42   19   55 1
    43   20   21 ar
    44   20   56 1
    45   21   57 1
    46   22   23 1
    47   23   24 2
    48   23   25 1
    49   25   26 1
    50   25   58 1
    51   26   27 1
    52   26   59 1
    53   26   60 1
    54   27   28 1
    55   27   61 1
    56   27   62 1
    57   28   33 ar
    58   28   29 ar
    59   29   30 ar
    60   29   63 1
    61   30   31 ar
    62   30   64 1
    63   31   32 ar
    64   31   65 1
    65   32   33 ar
    66   32   66 1
    67   33   67 1
    68   34   35 2
    69   34   36 1
@<TRIPOS>MOLECULE
CHEMBL233003__1
   67    69     0     0     0
SMALL
USER_CHARGES

@<TRIPOS>ATOM
      1 C1         -0.0187    1.5258    0.0104 C.3       1 <0>        -0.1429
      2 C2          0.0021   -0.0041    0.0020 C.3       1 <0>         0.0663
      3 O1          0.6709   -0.4649   -1.1737 O.3       1 <0>        -0.3672
      4 C3          0.7457   -1.8880   -1.2798 C.3       1 <0>         0.0342
      5 H1         -0.1179   -2.3349   -0.7873 H         1 <0>         0.0486
      6 C4          0.7554   -2.2896   -2.7561 C.3       1 <0>        -0.0654
      7 C5         -0.5593   -1.9112   -3.3882 C.ar      1 <0>        -0.0621
      8 C6         -1.6114   -2.8078   -3.3844 C.ar      1 <0>        -0.1189
      9 C7         -2.8173   -2.4607   -3.9642 C.ar      1 <0>        -0.1173
     10 C8         -2.9712   -1.2169   -4.5475 C.ar      1 <0>        -0.1012
     11 C9         -1.9194   -0.3200   -4.5505 C.ar      1 <0>        -0.1174
     12 C10        -0.7148   -0.6655   -3.9668 C.ar      1 <0>        -0.0993
     13 C11        -4.2856   -0.8390   -5.1804 C.3       1 <0>        -0.0742
     14 C12        -5.1836   -0.1760   -4.1341 C.3       1 <0>        -0.1043
     15 C13        -6.5180    0.2077   -4.7767 C.3       1 <0>         0.1302
     16 C14        -7.4473    0.7479   -3.7205 C.ar      1 <0>        -0.1014
     17 C15        -7.3908    2.0833   -3.3676 C.ar      1 <0>        -0.1040
     18 C16        -8.2432    2.5788   -2.3987 C.ar      1 <0>        -0.1227
     19 C17        -9.1525    1.7391   -1.7831 C.ar      1 <0>        -0.1153
     20 C18        -9.2096    0.4040   -2.1366 C.ar      1 <0>        -0.1195
     21 C19        -8.3601   -0.0906   -3.1085 C.ar      1 <0>        -0.0872
     22 O2         -6.2967    1.2078   -5.7731 O.3       1 <0>        -0.3020
     23 C20        -7.1449    1.2266   -6.8200 C.2       1 <0>         0.5036
     24 S1         -8.4170    0.0846   -6.9116 S.2       1 <0>        -0.6045
     25 N1         -6.9919    2.1446   -7.7949 N.pl3     1 <0>        -0.6448
     26 C21        -7.9141    2.1650   -8.9330 C.3       1 <0>         0.1255
     27 C22        -7.5217    3.2949   -9.8871 C.3       1 <0>        -0.0944
     28 C23        -8.4703    3.3160  -11.0579 C.ar      1 <0>        -0.0842
     29 C24        -8.1908    2.5698  -12.1874 C.ar      1 <0>        -0.1105
     30 C25        -9.0610    2.5891  -13.2614 C.ar      1 <0>        -0.1177
     31 C26       -10.2109    3.3543  -13.2055 C.ar      1 <0>        -0.1186
     32 C27       -10.4909    4.0997  -12.0756 C.ar      1 <0>        -0.1182
     33 C28        -9.6229    4.0771  -11.0000 C.ar      1 <0>        -0.1112
     34 C29         2.0091   -2.3753   -0.6184 C.2       1 <0>         0.4774
     35 O3          2.7745   -1.5779   -0.1038 O.co2     1 <0>        -0.6801
     36 O4          2.2658   -3.5670   -0.5978 O.co2     1 <0>        -0.6994
     37 H2          1.0039    1.9031    0.0027 H         1 <0>         0.0622
     38 H3         -0.5459    1.8868   -0.8726 H         1 <0>         0.0534
     39 H4         -0.5289    1.8773    0.9072 H         1 <0>         0.0597
     40 H5          0.5293   -0.3651    0.8851 H         1 <0>         0.0469
     41 H6         -1.0205   -0.3814    0.0098 H         1 <0>         0.0290
     42 H7          1.5669   -1.7723   -3.2680 H         1 <0>         0.0732
     43 H8          0.9017   -3.3665   -2.8387 H         1 <0>         0.0885
     44 H9         -1.4912   -3.7796   -2.9288 H         1 <0>         0.1208
     45 H10        -3.6391   -3.1615   -3.9619 H         1 <0>         0.1165
     46 H11        -2.0395    0.6516   -5.0064 H         1 <0>         0.1136
     47 H12         0.1058    0.0367   -3.9659 H         1 <0>         0.1222
     48 H13        -4.1073   -0.1426   -5.9999 H         1 <0>         0.0692
     49 H14        -4.7747   -1.7342   -5.5644 H         1 <0>         0.0722
     50 H15        -5.3619   -0.8724   -3.3147 H         1 <0>         0.0958
     51 H16        -4.6945    0.7192   -3.7502 H         1 <0>         0.0786
     52 H17        -6.9654   -0.6725   -5.2385 H         1 <0>         0.1274
     53 H18        -6.6804    2.7393   -3.8486 H         1 <0>         0.1193
     54 H19        -8.1985    3.6220   -2.1225 H         1 <0>         0.1207
     55 H20        -9.8180    2.1261   -1.0256 H         1 <0>         0.1210
     56 H21        -9.9198   -0.2521   -1.6554 H         1 <0>         0.1239
     57 H22        -8.4073   -1.1329   -3.3874 H         1 <0>         0.1264
     58 H23        -6.2711    2.7916   -7.7430 H         1 <0>         0.4073
     59 H24        -7.8636    1.2116   -9.4588 H         1 <0>         0.0958
     60 H25        -8.9303    2.3288   -8.5744 H         1 <0>         0.0947
     61 H26        -7.5722    4.2484   -9.3613 H         1 <0>         0.0828
     62 H27        -6.5055    3.1312  -10.2457 H         1 <0>         0.0838
     63 H28        -7.2924    1.9720  -12.2311 H         1 <0>         0.1235
     64 H29        -8.8422    2.0067  -14.1442 H         1 <0>         0.1236
     65 H30       -10.8904    3.3699  -14.0449 H         1 <0>         0.1222
     66 H31       -11.3891    4.6978  -12.0321 H         1 <0>         0.1231
     67 H32        -9.8435    4.6566  -10.1157 H         1 <0>         0.1226
@<TRIPOS>BOND
     1    1    2 1
     2    1   37 1
     3    1   38 1
     4    1   39 1
     5    2    3 1
     6    2   40 1
     7    2   41 1
     8    3    4 1
     9    4    5 1
    10    4    6 1
    11    4   34 1
    12    6    7 1
    13    6   42 1
    14    6   43 1
    15    7   12 ar
    16    7    8 ar
    17    8    9 ar
    18    8   44 1
    19    9   10 ar
    20    9   45 1
    21   10   11 ar
    22   10   13 1
    23   11   12 ar
    24   11   46 1
    25   12   47 1
    26   13   14 1
    27   13   48 1
    28   13   49 1
    29   14   15 1
    30   14   50 1
    31   14   51 1
    32   15   16 1
    33   15   22 1
    34   15   52 1
    35   16   21 ar
    36   16   17 ar
    37   17   18 ar
    38   17   53 1
    39   18   19 ar
    40   18   54 1
    41   19   20 ar
    42   19   55 1
    43   20   21 ar
    44   20   56 1
    45   21   57 1
    46   22   23 1
    47   23   24 2
    48   23   25 1
    49   25   26 1
    50   25   58 1
    51   26   27 1
    52   26   59 1
    53   26   60 1
    54   27   28 1
    55   27   61 1
    56   27   62 1
    57   28   33 ar
    58   28   29 ar
    59   29   30 ar
    60   29   63 1
    61   30   31 ar
    62   30   64 1
    63   31   32 ar
    64   31   65 1
    65   32   33 ar
    66   32   66 1
    67   33   67 1
    68   34   35 2
    69   34   36 1
@<TRIPOS>MOLECULE
CHEMBL215582
   66    68     0     0     0
SMALL
USER_CHARGES

@<TRIPOS>ATOM
      1 C1         -0.5652    0.2177   -0.0081 C.3       1 <0>        -0.1499
      2 C2         -0.3240   -1.2481   -0.3742 C.3       1 <0>        -0.0792
      3 C3          0.3834   -1.3242   -1.7027 C.ar      1 <0>        -0.1218
      4 C4         -0.3543   -1.3873   -2.8743 C.ar      1 <0>        -0.0595
      5 C5          0.2817   -1.4578   -4.0977 C.ar      1 <0>        -0.2093
      6 C6          1.6671   -1.4654   -4.1619 C.ar      1 <0>         0.1624
      7 C7          2.4177   -1.4012   -2.9787 C.ar      1 <0>        -0.1762
      8 C8          1.7601   -1.3250   -1.7471 C.ar      1 <0>        -0.0428
      9 C9          3.8909   -1.4091   -3.0336 C.2       1 <0>         0.4531
     10 O1          4.5112   -0.3781   -2.8586 O.2       1 <0>        -0.4336
     11 C10         4.6137   -2.6701   -3.3013 C.ar      1 <0>        -0.1559
     12 C11         6.0094   -2.7003   -3.2630 C.ar      1 <0>        -0.0603
     13 C12         6.6775   -3.8807   -3.5134 C.ar      1 <0>        -0.1326
     14 C13         5.9681   -5.0332   -3.8026 C.ar      1 <0>        -0.0889
     15 C14         4.5850   -5.0103   -3.8422 C.ar      1 <0>        -0.1358
     16 C15         3.9039   -3.8381   -3.5881 C.ar      1 <0>        -0.0597
     17 O2          2.2932   -1.5351   -5.3631 O.3       1 <0>        -0.3004
     18 C16         1.4633   -1.5893   -6.5251 C.3       1 <0>         0.0843
     19 C17         1.0603   -3.0401   -6.7968 C.3       1 <0>        -0.1767
     20 C18         2.2332   -1.0401   -7.7278 C.3       1 <0>        -0.1139
     21 C19         2.5278    0.4453   -7.5098 C.3       1 <0>         0.0616
     22 O3          3.2469    0.9583   -8.6331 O.3       1 <0>        -0.3194
     23 C20         3.5894    2.2738   -8.5985 C.ar      1 <0>         0.0736
     24 C21         3.2447    3.0515   -7.5030 C.ar      1 <0>        -0.1783
     25 C22         3.5926    4.3878   -7.4679 C.ar      1 <0>        -0.1349
     26 C23         4.2870    4.9518   -8.5279 C.ar      1 <0>         0.1372
     27 C24         4.6324    4.1738   -9.6229 C.ar      1 <0>        -0.1201
     28 C25         4.2883    2.8365   -9.6561 C.ar      1 <0>        -0.1219
     29 O4          4.6287    6.2675   -8.4936 O.3       1 <0>        -0.3034
     30 C26         5.2135    6.8169   -9.6761 C.3       1 <0>         0.0296
     31 C27         4.2486    6.6426  -10.8506 C.3       1 <0>        -0.1745
     32 C28         5.4931    8.3059   -9.4624 C.3       1 <0>        -0.1129
     33 C29         6.5053    6.1013   -9.9767 C.2       1 <0>         0.4807
     34 O5          6.8895    5.2041   -9.2461 O.co2     1 <0>        -0.6686
     35 O6          7.1662    6.4197  -10.9506 O.co2     1 <0>        -0.6868
     36 H1          0.3905    0.7375    0.0589 H         1 <0>         0.0571
     37 H2         -1.1812    0.6872   -0.7752 H         1 <0>         0.0560
     38 H3         -1.0769    0.2728    0.9527 H         1 <0>         0.0576
     39 H4          0.2919   -1.7176    0.3928 H         1 <0>         0.0714
     40 H5         -1.2797   -1.7679   -0.4413 H         1 <0>         0.0718
     41 H6         -1.4333   -1.3817   -2.8300 H         1 <0>         0.1279
     42 H7         -0.3005   -1.5074   -5.0060 H         1 <0>         0.1368
     43 H8          2.3307   -1.2712   -0.8317 H         1 <0>         0.1315
     44 H9          6.5643   -1.8015   -3.0382 H         1 <0>         0.1341
     45 H10         7.7568   -3.9056   -3.4841 H         1 <0>         0.1294
     46 H11         6.4963   -5.9546   -3.9985 H         1 <0>         0.1260
     47 H12         4.0376   -5.9133   -4.0688 H         1 <0>         0.1265
     48 H13         2.8244   -3.8226   -3.6153 H         1 <0>         0.1259
     49 H14         0.5688   -0.9884   -6.3611 H         1 <0>         0.0799
     50 H15         1.9548   -3.6410   -6.9608 H         1 <0>         0.0716
     51 H16         0.5118   -3.4313   -5.9399 H         1 <0>         0.0648
     52 H17         0.4272   -3.0814   -7.6831 H         1 <0>         0.0764
     53 H18         3.1713   -1.5842   -7.8380 H         1 <0>         0.0872
     54 H19         1.6338   -1.1631   -8.6299 H         1 <0>         0.0955
     55 H20         1.5897    0.9894   -7.3997 H         1 <0>         0.0549
     56 H21         3.1271    0.5683   -6.6077 H         1 <0>         0.0639
     57 H22         2.7041    2.6124   -6.6777 H         1 <0>         0.1208
     58 H23         3.3237    4.9936   -6.6152 H         1 <0>         0.1226
     59 H24         5.1728    4.6130  -10.4484 H         1 <0>         0.1465
     60 H25         4.5605    2.2298  -10.5072 H         1 <0>         0.1232
     61 H26         3.3704    7.2693  -10.6955 H         1 <0>         0.0505
     62 H27         4.7454    6.9357  -11.7755 H         1 <0>         0.0744
     63 H28         3.9427    5.5985  -10.9177 H         1 <0>         0.0676
     64 H29         6.2469    8.4260   -8.6844 H         1 <0>         0.0560
     65 H30         5.8570    8.7443  -10.3917 H         1 <0>         0.0761
     66 H31         4.5745    8.8081   -9.1590 H         1 <0>         0.0508
@<TRIPOS>BOND
     1    1    2 1
     2    1   36 1
     3    1   37 1
     4    1   38 1
     5    2    3 1
     6    2   39 1
     7    2   40 1
     8    3    8 ar
     9    3    4 ar
    10    4    5 ar
    11    4   41 1
    12    5    6 ar
    13    5   42 1
    14    6    7 ar
    15    6   17 1
    16    7    8 ar
    17    7    9 1
    18    8   43 1
    19    9   10 2
    20    9   11 1
    21   11   16 ar
    22   11   12 ar
    23   12   13 ar
    24   12   44 1
    25   13   14 ar
    26   13   45 1
    27   14   15 ar
    28   14   46 1
    29   15   16 ar
    30   15   47 1
    31   16   48 1
    32   17   18 1
    33   18   19 1
    34   18   20 1
    35   18   49 1
    36   19   50 1
    37   19   51 1
    38   19   52 1
    39   20   21 1
    40   20   53 1
    41   20   54 1
    42   21   22 1
    43   21   55 1
    44   21   56 1
    45   22   23 1
    46   23   28 ar
    47   23   24 ar
    48   24   25 ar
    49   24   57 1
    50   25   26 ar
    51   25   58 1
    52   26   27 ar
    53   26   29 1
    54   27   28 ar
    55   27   59 1
    56   28   60 1
    57   29   30 1
    58   30   31 1
    59   30   32 1
    60   30   33 1
    61   31   61 1
    62   31   62 1
    63   31   63 1
    64   32   64 1
    65   32   65 1
    66   32   66 1
    67   33   34 2
    68   33   35 1
@<TRIPOS>MOLECULE
CHEMBL215582__1
   66    68     0     0     0
SMALL
USER_CHARGES

@<TRIPOS>ATOM
      1 C1          0.4583    1.4306    0.3680 C.3       1 <0>        -0.1477
      2 C2          0.3183   -0.0783    0.1566 C.3       1 <0>        -0.0811
      3 C3          1.0871   -0.4866   -1.0735 C.ar      1 <0>        -0.1214
      4 C4          0.4618   -0.4830   -2.3104 C.ar      1 <0>        -0.0592
      5 C5          1.1548   -0.8553   -3.4450 C.ar      1 <0>        -0.2083
      6 C6          2.4853   -1.2361   -3.3536 C.ar      1 <0>         0.1636
      7 C7          3.1222   -1.2408   -2.1039 C.ar      1 <0>        -0.1778
      8 C8          2.4094   -0.8563   -0.9641 C.ar      1 <0>        -0.0433
      9 C9          4.5360   -1.6439   -1.9935 C.2       1 <0>         0.4543
     10 O1          4.8244   -2.7257   -1.5193 O.2       1 <0>        -0.4358
     11 C10         5.6026   -0.7331   -2.4594 C.ar      1 <0>        -0.1549
     12 C11         5.2846    0.5555   -2.8935 C.ar      1 <0>        -0.0609
     13 C12         6.2851    1.4005   -3.3266 C.ar      1 <0>        -0.1352
     14 C13         7.6014    0.9737   -3.3319 C.ar      1 <0>        -0.0891
     15 C14         7.9237   -0.3019   -2.9031 C.ar      1 <0>        -0.1325
     16 C15         6.9338   -1.1553   -2.4621 C.ar      1 <0>        -0.0601
     17 O2          3.1672   -1.6026   -4.4674 O.3       1 <0>        -0.3008
     18 C16         2.4233   -1.6894   -5.6844 C.3       1 <0>         0.0852
     19 C17         2.3431   -0.3060   -6.3329 C.3       1 <0>        -0.1778
     20 C18         3.1196   -2.6609   -6.6395 C.3       1 <0>        -0.1134
     21 C19         3.0892   -4.0703   -6.0451 C.3       1 <0>         0.0617
     22 O3          3.7395   -4.9777   -6.9372 O.3       1 <0>        -0.3195
     23 C20         3.8000   -6.2815   -6.5558 C.ar      1 <0>         0.0735
     24 C21         3.2395   -6.6784   -5.3508 C.ar      1 <0>        -0.1782
     25 C22         3.3010   -8.0028   -4.9634 C.ar      1 <0>        -0.1347
     26 C23         3.9227   -8.9360   -5.7797 C.ar      1 <0>         0.1375
     27 C24         4.4823   -8.5393   -6.9852 C.ar      1 <0>        -0.1196
     28 C25         4.4171   -7.2156   -7.3746 C.ar      1 <0>        -0.1221
     29 O4          3.9839  -10.2397   -5.3980 O.3       1 <0>        -0.3036
     30 C26         4.7490  -11.1217   -6.2219 C.3       1 <0>         0.0297
     31 C27         6.1948  -10.6263   -6.2941 C.3       1 <0>        -0.1746
     32 C28         4.7216  -12.5299   -5.6243 C.3       1 <0>        -0.1130
     33 C29         4.1587  -11.1526   -7.6081 C.2       1 <0>         0.4812
     34 O5          3.1742  -10.4816   -7.8666 O.co2     1 <0>        -0.6695
     35 O6          4.6658  -11.8487   -8.4712 O.co2     1 <0>        -0.6865
     36 H1          1.5108    1.6833    0.4968 H         1 <0>         0.0554
     37 H2          0.0617    1.9574   -0.4998 H         1 <0>         0.0553
     38 H3         -0.0977    1.7259    1.2578 H         1 <0>         0.0574
     39 H4          0.7150   -0.6051    1.0245 H         1 <0>         0.0723
     40 H5         -0.7341   -0.3310    0.0279 H         1 <0>         0.0728
     41 H6         -0.5741   -0.1873   -2.3871 H         1 <0>         0.1281
     42 H7          0.6600   -0.8504   -4.4050 H         1 <0>         0.1371
     43 H8          2.8937   -0.8534    0.0012 H         1 <0>         0.1313
     44 H9          4.2575    0.8896   -2.8905 H         1 <0>         0.1263
     45 H10         6.0405    2.3973   -3.6626 H         1 <0>         0.1266
     46 H11         8.3808    1.6392   -3.6727 H         1 <0>         0.1259
     47 H12         8.9530   -0.6287   -2.9102 H         1 <0>         0.1291
     48 H13         7.1872   -2.1492   -2.1238 H         1 <0>         0.1336
     49 H14         1.4169   -2.0491   -5.4701 H         1 <0>         0.0795
     50 H15         3.3495    0.0537   -6.5471 H         1 <0>         0.0713
     51 H16         1.7757   -0.3722   -7.2612 H         1 <0>         0.0767
     52 H17         1.8470    0.3861   -5.6524 H         1 <0>         0.0654
     53 H18         2.6027   -2.6601   -7.5992 H         1 <0>         0.0963
     54 H19         4.1542   -2.3497   -6.7838 H         1 <0>         0.0864
     55 H20         3.6061   -4.0712   -5.0854 H         1 <0>         0.0628
     56 H21         2.0546   -4.3816   -5.9007 H         1 <0>         0.0558
     57 H22         2.7554   -5.9517   -4.7151 H         1 <0>         0.1207
     58 H23         2.8652   -8.3117   -4.0248 H         1 <0>         0.1226
     59 H24         4.9667   -9.2659   -7.6207 H         1 <0>         0.1463
     60 H25         4.8496   -6.9074   -8.3150 H         1 <0>         0.1230
     61 H26         6.6607  -10.7208   -5.3133 H         1 <0>         0.0509
     62 H27         6.7480  -11.2244   -7.0183 H         1 <0>         0.0743
     63 H28         6.2057   -9.5809   -6.6023 H         1 <0>         0.0676
     64 H29         3.7033  -12.9175   -5.6541 H         1 <0>         0.0558
     65 H30         5.3758  -13.1826   -6.2023 H         1 <0>         0.0761
     66 H31         5.0663  -12.4929   -4.5909 H         1 <0>         0.0510
@<TRIPOS>BOND
     1    1    2 1
     2    1   36 1
     3    1   37 1
     4    1   38 1
     5    2    3 1
     6    2   39 1
     7    2   40 1
     8    3    8 ar
     9    3    4 ar
    10    4    5 ar
    11    4   41 1
    12    5    6 ar
    13    5   42 1
    14    6    7 ar
    15    6   17 1
    16    7    8 ar
    17    7    9 1
    18    8   43 1
    19    9   10 2
    20    9   11 1
    21   11   16 ar
    22   11   12 ar
    23   12   13 ar
    24   12   44 1
    25   13   14 ar
    26   13   45 1
    27   14   15 ar
    28   14   46 1
    29   15   16 ar
    30   15   47 1
    31   16   48 1
    32   17   18 1
    33   18   19 1
    34   18   20 1
    35   18   49 1
    36   19   50 1
    37   19   51 1
    38   19   52 1
    39   20   21 1
    40   20   53 1
    41   20   54 1
    42   21   22 1
    43   21   55 1
    44   21   56 1
    45   22   23 1
    46   23   28 ar
    47   23   24 ar
    48   24   25 ar
    49   24   57 1
    50   25   26 ar
    51   25   58 1
    52   26   27 ar
    53   26   29 1
    54   27   28 ar
    55   27   59 1
    56   28   60 1
    57   29   30 1
    58   30   31 1
    59   30   32 1
    60   30   33 1
    61   31   61 1
    62   31   62 1
    63   31   63 1
    64   32   64 1
    65   32   65 1
    66   32   66 1
    67   33   34 2
    68   33   35 1
@<TRIPOS>MOLECULE
CHEMBL371764
   60    63     0     0     0
SMALL
USER_CHARGES

@<TRIPOS>ATOM
      1 C1          0.0071    1.4995   -0.0862 C.3       1 <0>        -0.1541
      2 C2          0.0099   -0.0285   -0.0082 C.3       1 <0>        -0.0949
      3 C3         -1.4266   -0.5342    0.1385 C.3       1 <0>        -0.1421
      4 C4         -1.4126   -2.0426    0.3948 C.3       1 <0>        -0.0212
      5 C5         -2.8492   -2.5617    0.6155 C.3       1 <0>        -0.1254
      6 C6         -2.9982   -2.4828    2.1497 C.3       1 <0>        -0.0832
      7 C7         -1.5897   -2.6029    2.6912 C.ar      1 <0>        -0.0565
      8 C8         -0.6780   -2.3497    1.6824 C.ar      1 <0>        -0.1057
      9 C9          0.6801   -2.4035    1.9488 C.ar      1 <0>        -0.0698
     10 C10         1.1292   -2.7097    3.2177 C.ar      1 <0>        -0.2109
     11 C11         0.2168   -2.9641    4.2310 C.ar      1 <0>         0.1167
     12 C12        -1.1426   -2.9096    3.9642 C.ar      1 <0>        -0.1423
     13 O1          0.6542   -3.2666    5.4816 O.3       1 <0>        -0.3166
     14 C13         2.0684   -3.3053    5.6827 C.3       1 <0>         0.0691
     15 C14         2.3668   -3.6595    7.1409 C.3       1 <0>        -0.0352
     16 C15         3.8582   -3.7003    7.3529 C.2       1 <0>        -0.0123
     17 C16         4.6513   -4.7739    7.2017 C.2       1 <0>        -0.0176
     18 O2          5.9084   -4.3816    7.4875 O.3       1 <0>        -0.1909
     19 C17         5.8679   -3.0814    7.8076 C.2       1 <0>         0.1754
     20 N1          4.6359   -2.6671    7.7219 N.2       1 <0>        -0.4400
     21 C18         7.0531   -2.2360    8.1968 C.3       1 <0>         0.1634
     22 O3          7.2348   -2.2937    9.6131 O.3       1 <0>        -0.3057
     23 C19         8.2691   -1.5807   10.1320 C.ar      1 <0>         0.1381
     24 C20         9.0883   -0.8364    9.2958 C.ar      1 <0>        -0.1970
     25 C21        10.1390   -0.1124    9.8251 C.ar      1 <0>        -0.0667
     26 C22        10.3749   -0.1296   11.1884 C.ar      1 <0>        -0.0719
     27 C23         9.5591   -0.8717   12.0241 C.ar      1 <0>        -0.0687
     28 C24         8.5034   -1.5917   11.4993 C.ar      1 <0>        -0.1351
     29 Cl1        11.6962    0.7805   11.8512 Cl        1 <0>        -0.0691
     30 C25         4.2168   -6.1571    6.7904 C.3       1 <0>        -0.0749
     31 C26        -2.1922   -0.2469   -1.1273 C.2       1 <0>         0.4992
     32 O4         -3.1480   -0.9396   -1.4322 O.co2     1 <0>        -0.6905
     33 O5         -1.8556    0.6782   -1.8466 O.co2     1 <0>        -0.6891
     34 H1          1.0326    1.8671   -0.0496 H         1 <0>         0.0271
     35 H2         -0.4588    1.8149   -1.0198 H         1 <0>         0.0958
     36 H3         -0.5545    1.9053    0.7553 H         1 <0>         0.0340
     37 H4          0.4480   -0.4379   -0.9185 H         1 <0>         0.0490
     38 H5          0.5971   -0.3473    0.8529 H         1 <0>         0.0417
     39 H6         -1.9063   -0.0278    0.9761 H         1 <0>         0.0612
     40 H7         -0.9449   -2.5632   -0.4408 H         1 <0>         0.0667
     41 H8         -3.5748   -1.9151    0.1221 H         1 <0>         0.1285
     42 H9         -2.9469   -3.5905    0.2691 H         1 <0>         0.0549
     43 H10        -3.4343   -1.5266    2.4387 H         1 <0>         0.0773
     44 H11        -3.6143   -3.3055    2.5126 H         1 <0>         0.0675
     45 H12         1.3909   -2.2055    1.1601 H         1 <0>         0.1207
     46 H13         2.1891   -2.7513    3.4211 H         1 <0>         0.1209
     47 H14        -1.8544   -3.1074    4.7520 H         1 <0>         0.1233
     48 H15         2.5079   -4.0583    5.0286 H         1 <0>         0.0603
     49 H16         2.4951   -2.3293    5.4512 H         1 <0>         0.0646
     50 H17         1.9273   -2.9064    7.7950 H         1 <0>         0.0954
     51 H18         1.9401   -4.6355    7.3723 H         1 <0>         0.0934
     52 H19         7.9471   -2.6130    7.7001 H         1 <0>         0.0966
     53 H20         6.8777   -1.2034    7.8948 H         1 <0>         0.1117
     54 H21         8.9050   -0.8233    8.2315 H         1 <0>         0.1399
     55 H22        10.7771    0.4671    9.1743 H         1 <0>         0.1388
     56 H23         9.7450   -0.8842   13.0879 H         1 <0>         0.1421
     57 H24         7.8639   -2.1670   12.1524 H         1 <0>         0.1423
     58 H25         4.2588   -6.2432    5.7047 H         1 <0>         0.0907
     59 H26         4.8814   -6.8952    7.2394 H         1 <0>         0.0829
     60 H27         3.1961   -6.3332    7.1297 H         1 <0>         0.0984
@<TRIPOS>BOND
     1    1    2 1
     2    1   34 1
     3    1   35 1
     4    1   36 1
     5    2    3 1
     6    2   37 1
     7    2   38 1
     8    3    4 1
     9    3   31 1
    10    3   39 1
    11    4    8 1
    12    4    5 1
    13    4   40 1
    14    5    6 1
    15    5   41 1
    16    5   42 1
    17    6    7 1
    18    6   43 1
    19    6   44 1
    20    7   12 ar
    21    7    8 ar
    22    8    9 ar
    23    9   10 ar
    24    9   45 1
    25   10   11 ar
    26   10   46 1
    27   11   12 ar
    28   11   13 1
    29   12   47 1
    30   13   14 1
    31   14   15 1
    32   14   48 1
    33   14   49 1
    34   15   16 1
    35   15   50 1
    36   15   51 1
    37   16   20 1
    38   16   17 2
    39   17   18 1
    40   17   30 1
    41   18   19 1
    42   19   20 2
    43   19   21 1
    44   21   22 1
    45   21   52 1
    46   21   53 1
    47   22   23 1
    48   23   28 ar
    49   23   24 ar
    50   24   25 ar
    51   24   54 1
    52   25   26 ar
    53   25   55 1
    54   26   27 ar
    55   26   29 1
    56   27   28 ar
    57   27   56 1
    58   28   57 1
    59   30   58 1
    60   30   59 1
    61   30   60 1
    62   31   32 2
    63   31   33 1
@<TRIPOS>MOLECULE
CHEMBL371764__1
   60    63     0     0     0
SMALL
USER_CHARGES

@<TRIPOS>ATOM
      1 C1         -0.5250    1.7939    0.2618 C.3       1 <0>        -0.1445
      2 C2         -0.1603    0.3092    0.3229 C.3       1 <0>        -0.1005
      3 C3         -1.4234   -0.5342    0.1383 C.3       1 <0>        -0.1486
      4 C4         -1.0757   -2.0154    0.2996 C.3       1 <0>        -0.0293
      5 C5         -0.4610   -2.2727    1.6917 C.3       1 <0>        -0.1160
      6 C6         -0.9942   -3.6799    2.0346 C.3       1 <0>        -0.0760
      7 C7         -2.2862   -3.8144    1.2573 C.ar      1 <0>        -0.0715
      8 C8         -2.3331   -2.8575    0.2597 C.ar      1 <0>        -0.1022
      9 C9         -3.4305   -2.7906   -0.5826 C.ar      1 <0>        -0.0507
     10 C10        -4.4792   -3.6755   -0.4316 C.ar      1 <0>        -0.2068
     11 C11        -4.4344   -4.6359    0.5682 C.ar      1 <0>         0.1164
     12 C12        -3.3359   -4.7025    1.4114 C.ar      1 <0>        -0.1476
     13 O1         -5.4647   -5.5088    0.7211 O.3       1 <0>        -0.3178
     14 C13        -6.5635   -5.3805   -0.1835 C.3       1 <0>         0.0672
     15 C14        -7.6179   -6.4406    0.1412 C.3       1 <0>        -0.0336
     16 C15        -8.7766   -6.3053   -0.8129 C.2       1 <0>        -0.0129
     17 C16        -9.8662   -5.5405   -0.6332 C.2       1 <0>        -0.0161
     18 O2        -10.6508   -5.7075   -1.7159 O.3       1 <0>        -0.1908
     19 C17       -10.0345   -6.5669   -2.5384 C.2       1 <0>         0.1741
     20 N1         -8.9034   -6.9239   -2.0001 N.2       1 <0>        -0.4397
     21 C18       -10.5604   -7.0380   -3.8698 C.3       1 <0>         0.1637
     22 O3        -11.3482   -8.2152   -3.6812 O.3       1 <0>        -0.3058
     23 C19       -11.9006   -8.7724   -4.7910 C.ar      1 <0>         0.1389
     24 C20       -11.6838   -8.2009   -6.0363 C.ar      1 <0>        -0.1969
     25 C21       -12.2461   -8.7687   -7.1632 C.ar      1 <0>        -0.0665
     26 C22       -13.0255   -9.9064   -7.0503 C.ar      1 <0>        -0.0724
     27 C23       -13.2432  -10.4776   -5.8090 C.ar      1 <0>        -0.0691
     28 C24       -12.6772   -9.9166   -4.6806 C.ar      1 <0>        -0.1357
     29 Cl1       -13.7315  -10.6177   -8.4678 Cl        1 <0>        -0.0701
     30 C25       -10.1568   -4.6615    0.5559 C.3       1 <0>        -0.0755
     31 C26        -1.9885   -0.2979   -1.2386 C.2       1 <0>         0.5055
     32 O4         -1.3795   -0.6835   -2.2219 O.co2     1 <0>        -0.6993
     33 O5         -3.0547    0.2788   -1.3693 O.co2     1 <0>        -0.7027
     34 H1          0.3570    2.3941    0.4851 H         1 <0>         0.0408
     35 H2         -0.8875    2.0382   -0.7367 H         1 <0>         0.0573
     36 H3         -1.3043    2.0070    0.9935 H         1 <0>         0.0475
     37 H4          0.5508    0.0768   -0.4698 H         1 <0>         0.0603
     38 H5          0.2882    0.0848    1.2906 H         1 <0>         0.0476
     39 H6         -2.1623   -0.2508    0.8879 H         1 <0>         0.0585
     40 H7         -0.3857   -2.3287   -0.4839 H         1 <0>         0.0875
     41 H8          0.6278   -2.2727    1.6405 H         1 <0>         0.0717
     42 H9         -0.8160   -1.5374    2.4139 H         1 <0>         0.0701
     43 H10        -0.2815   -4.4417    1.7184 H         1 <0>         0.0771
     44 H11        -1.1862   -3.7613    3.1044 H         1 <0>         0.0701
     45 H12        -3.4657   -2.0430   -1.3612 H         1 <0>         0.1425
     46 H13        -5.3331   -3.6200   -1.0905 H         1 <0>         0.1217
     47 H14        -3.2994   -5.4497    2.1903 H         1 <0>         0.1213
     48 H15        -7.0030   -4.3881   -0.0829 H         1 <0>         0.0620
     49 H16        -6.2109   -5.5198   -1.2054 H         1 <0>         0.0653
     50 H17        -7.1784   -7.4330    0.0406 H         1 <0>         0.0943
     51 H18        -7.9705   -6.3013    1.1631 H         1 <0>         0.0928
     52 H19       -11.1761   -6.2562   -4.3145 H         1 <0>         0.0969
     53 H20        -9.7242   -7.2627   -4.5318 H         1 <0>         0.1118
     54 H21       -11.0761   -7.3125   -6.1248 H         1 <0>         0.1404
     55 H22       -12.0776   -8.3240   -8.1329 H         1 <0>         0.1388
     56 H23       -13.8522  -11.3654   -5.7228 H         1 <0>         0.1417
     57 H24       -12.8434  -10.3655   -3.7125 H         1 <0>         0.1421
     58 H25        -9.7526   -3.6649    0.3784 H         1 <0>         0.0923
     59 H26       -11.2346   -4.5953    0.7041 H         1 <0>         0.0825
     60 H27        -9.6932   -5.0884    1.4453 H         1 <0>         0.0981
@<TRIPOS>BOND
     1    1    2 1
     2    1   34 1
     3    1   35 1
     4    1   36 1
     5    2    3 1
     6    2   37 1
     7    2   38 1
     8    3    4 1
     9    3   31 1
    10    3   39 1
    11    4    8 1
    12    4    5 1
    13    4   40 1
    14    5    6 1
    15    5   41 1
    16    5   42 1
    17    6    7 1
    18    6   43 1
    19    6   44 1
    20    7   12 ar
    21    7    8 ar
    22    8    9 ar
    23    9   10 ar
    24    9   45 1
    25   10   11 ar
    26   10   46 1
    27   11   12 ar
    28   11   13 1
    29   12   47 1
    30   13   14 1
    31   14   15 1
    32   14   48 1
    33   14   49 1
    34   15   16 1
    35   15   50 1
    36   15   51 1
    37   16   20 1
    38   16   17 2
    39   17   18 1
    40   17   30 1
    41   18   19 1
    42   19   20 2
    43   19   21 1
    44   21   22 1
    45   21   52 1
    46   21   53 1
    47   22   23 1
    48   23   28 ar
    49   23   24 ar
    50   24   25 ar
    51   24   54 1
    52   25   26 ar
    53   25   55 1
    54   26   27 ar
    55   26   29 1
    56   27   28 ar
    57   27   56 1
    58   28   57 1
    59   30   58 1
    60   30   59 1
    61   30   60 1
    62   31   32 2
    63   31   33 1
@<TRIPOS>MOLECULE
CHEMBL371764__2
   60    63     0     0     0
SMALL
USER_CHARGES

@<TRIPOS>ATOM
      1 C1         -0.0187    1.5258    0.0104 C.3       1 <0>        -0.1450
      2 C2          0.0021   -0.0041    0.0020 C.3       1 <0>        -0.1020
      3 C3         -1.4333   -0.5336    0.0129 C.3       1 <0>        -0.1439
      4 C4         -1.4157   -2.0577   -0.1212 C.3       1 <0>        -0.0282
      5 C5         -0.7993   -2.4690   -1.4751 C.3       1 <0>        -0.1211
      6 C6         -2.0414   -2.5821   -2.3841 C.3       1 <0>        -0.0750
      7 C7         -3.1888   -2.9005   -1.4494 C.ar      1 <0>        -0.0669
      8 C8         -2.8292   -2.5990   -0.1484 C.ar      1 <0>        -0.0985
      9 C9         -3.7280   -2.8107    0.8838 C.ar      1 <0>        -0.0451
     10 C10        -4.9828   -3.3226    0.6205 C.ar      1 <0>        -0.2057
     11 C11        -5.3456   -3.6259   -0.6835 C.ar      1 <0>         0.1176
     12 C12        -4.4459   -3.4132   -1.7166 C.ar      1 <0>        -0.1456
     13 O1         -6.5795   -4.1307   -0.9475 O.3       1 <0>        -0.3174
     14 C13        -7.4534   -4.3240    0.1665 C.3       1 <0>         0.0676
     15 C14        -8.7856   -4.8949   -0.3235 C.3       1 <0>        -0.0343
     16 C15        -9.7072   -5.0987    0.8513 C.2       1 <0>        -0.0111
     17 C16        -9.8038   -6.2101    1.5996 C.2       1 <0>        -0.0189
     18 O2        -10.7402   -5.9750    2.5397 O.3       1 <0>        -0.1914
     19 C17       -11.2011   -4.7307    2.3551 C.2       1 <0>         0.1751
     20 N1        -10.5771   -4.1987    1.3431 N.2       1 <0>        -0.4389
     21 C18       -12.2624   -4.0557    3.1852 C.3       1 <0>         0.1634
     22 O3        -13.5481   -4.3178    2.6194 O.3       1 <0>        -0.3058
     23 C19       -14.6226   -3.7770    3.2522 C.ar      1 <0>         0.1389
     24 C20       -14.4423   -3.0055    4.3909 C.ar      1 <0>        -0.1967
     25 C21       -15.5356   -2.4568    5.0327 C.ar      1 <0>        -0.0664
     26 C22       -16.8100   -2.6767    4.5407 C.ar      1 <0>        -0.0723
     27 C23       -16.9920   -3.4464    3.4054 C.ar      1 <0>        -0.0691
     28 C24       -15.9006   -3.9913    2.7570 C.ar      1 <0>        -0.1356
     29 Cl1       -18.1825   -1.9866    5.3494 Cl        1 <0>        -0.0702
     30 C25        -9.0138   -7.4809    1.4211 C.3       1 <0>        -0.0742
     31 C26        -2.1001   -0.1511    1.3091 C.2       1 <0>         0.5064
     32 O4         -3.1031    0.5420    1.2973 O.co2     1 <0>        -0.7005
     33 O5         -1.6366   -0.5347    2.3695 O.co2     1 <0>        -0.7024
     34 H1          1.0039    1.9031    0.0027 H         1 <0>         0.0418
     35 H2         -0.5459    1.8868   -0.8726 H         1 <0>         0.0458
     36 H3         -0.5289    1.8773    0.9072 H         1 <0>         0.0580
     37 H4          0.5123   -0.3556   -0.8948 H         1 <0>         0.0479
     38 H5          0.5293   -0.3651    0.8851 H         1 <0>         0.0627
     39 H6         -1.9862   -0.1019   -0.8214 H         1 <0>         0.0578
     40 H7         -0.8561   -2.5026    0.7016 H         1 <0>         0.0788
     41 H8         -0.1199   -1.6993   -1.8413 H         1 <0>         0.0787
     42 H9         -0.2904   -3.4294   -1.3932 H         1 <0>         0.0660
     43 H10        -2.2222   -1.6372   -2.8967 H         1 <0>         0.0785
     44 H11        -1.9086   -3.3864   -3.1077 H         1 <0>         0.0695
     45 H12        -3.4459   -2.5747    1.8992 H         1 <0>         0.1275
     46 H13        -5.6804   -3.4870    1.4284 H         1 <0>         0.1213
     47 H14        -4.7268   -3.6488   -2.7325 H         1 <0>         0.1217
     48 H15        -6.9966   -5.0199    0.8701 H         1 <0>         0.0604
     49 H16        -7.6276   -3.3687    0.6616 H         1 <0>         0.0663
     50 H17        -9.2424   -4.1989   -1.0271 H         1 <0>         0.0951
     51 H18        -8.6114   -5.8502   -0.8186 H         1 <0>         0.0926
     52 H19       -12.2278   -4.4428    4.2036 H         1 <0>         0.0967
     53 H20       -12.0837   -2.9805    3.1989 H         1 <0>         0.1123
     54 H21       -13.4478   -2.8341    4.7755 H         1 <0>         0.1404
     55 H22       -15.3956   -1.8560    5.9192 H         1 <0>         0.1388
     56 H23       -17.9875   -3.6173    3.0231 H         1 <0>         0.1417
     57 H24       -16.0427   -4.5880    1.8681 H         1 <0>         0.1420
     58 H25        -8.0980   -7.4252    2.0095 H         1 <0>         0.0908
     59 H26        -9.6101   -8.3295    1.7564 H         1 <0>         0.0821
     60 H27        -8.7620   -7.6073    0.3681 H         1 <0>         0.0979
@<TRIPOS>BOND
     1    1    2 1
     2    1   34 1
     3    1   35 1
     4    1   36 1
     5    2    3 1
     6    2   37 1
     7    2   38 1
     8    3    4 1
     9    3   31 1
    10    3   39 1
    11    4    8 1
    12    4    5 1
    13    4   40 1
    14    5    6 1
    15    5   41 1
    16    5   42 1
    17    6    7 1
    18    6   43 1
    19    6   44 1
    20    7   12 ar
    21    7    8 ar
    22    8    9 ar
    23    9   10 ar
    24    9   45 1
    25   10   11 ar
    26   10   46 1
    27   11   12 ar
    28   11   13 1
    29   12   47 1
    30   13   14 1
    31   14   15 1
    32   14   48 1
    33   14   49 1
    34   15   16 1
    35   15   50 1
    36   15   51 1
    37   16   20 1
    38   16   17 2
    39   17   18 1
    40   17   30 1
    41   18   19 1
    42   19   20 2
    43   19   21 1
    44   21   22 1
    45   21   52 1
    46   21   53 1
    47   22   23 1
    48   23   28 ar
    49   23   24 ar
    50   24   25 ar
    51   24   54 1
    52   25   26 ar
    53   25   55 1
    54   26   27 ar
    55   26   29 1
    56   27   28 ar
    57   27   56 1
    58   28   57 1
    59   30   58 1
    60   30   59 1
    61   30   60 1
    62   31   32 2
    63   31   33 1
@<TRIPOS>MOLECULE
CHEMBL371764__3
   60    63     0     0     0
SMALL
USER_CHARGES

@<TRIPOS>ATOM
      1 C1         -2.8549    0.6550    1.6887 C.3       1 <0>        -0.1439
      2 C2         -2.3676   -0.7143    1.2109 C.3       1 <0>        -0.0982
      3 C3         -1.4333   -0.5336    0.0129 C.3       1 <0>        -0.1523
      4 C4         -0.8275   -1.8855   -0.3698 C.3       1 <0>        -0.0267
      5 C5         -1.9319   -2.8504   -0.8507 C.3       1 <0>        -0.1290
      6 C6         -1.2090   -3.6618   -1.9467 C.3       1 <0>        -0.0775
      7 C7         -0.1158   -2.7489   -2.4595 C.ar      1 <0>        -0.0608
      8 C8          0.1037   -1.7276   -1.5530 C.ar      1 <0>        -0.0948
      9 C9          1.0658   -0.7663   -1.8146 C.ar      1 <0>        -0.0383
     10 C10         1.8081   -0.8223   -2.9771 C.ar      1 <0>        -0.2066
     11 C11         1.5897   -1.8455   -3.8878 C.ar      1 <0>         0.1175
     12 C12         0.6264   -2.8075   -3.6258 C.ar      1 <0>        -0.1445
     13 O1          2.3175   -1.9044   -5.0340 O.3       1 <0>        -0.3177
     14 C13         3.2919   -0.8791   -5.2372 C.3       1 <0>         0.0687
     15 C14         4.0055   -1.1108   -6.5706 C.3       1 <0>        -0.0345
     16 C15         5.0330   -0.0294   -6.7850 C.2       1 <0>        -0.0130
     17 C16         4.8281    1.1488   -7.3967 C.2       1 <0>        -0.0141
     18 O2          5.9989    1.8155   -7.3755 O.3       1 <0>        -0.1911
     19 C17         6.8988    1.0411   -6.7549 C.2       1 <0>         0.1715
     20 N1          6.3189   -0.0677   -6.3932 N.2       1 <0>        -0.4398
     21 C18         8.3427    1.3968   -6.5102 C.3       1 <0>         0.1645
     22 O3          9.1357    0.9550   -7.6138 O.3       1 <0>        -0.3056
     23 C19        10.4713    1.1997   -7.5511 C.ar      1 <0>         0.1390
     24 C20        11.0077    1.8467   -6.4475 C.ar      1 <0>        -0.1972
     25 C21        12.3653    2.0946   -6.3856 C.ar      1 <0>        -0.0668
     26 C22        13.1898    1.6985   -7.4238 C.ar      1 <0>        -0.0725
     27 C23        12.6566    1.0535   -8.5256 C.ar      1 <0>        -0.0688
     28 C24        11.3004    0.7979   -8.5881 C.ar      1 <0>        -0.1354
     29 Cl1        14.8955    2.0116   -7.3440 Cl        1 <0>        -0.0701
     30 C25         3.5326    1.6336   -7.9948 C.3       1 <0>        -0.0767
     31 C26        -2.2130    0.0158   -1.1538 C.2       1 <0>         0.5076
     32 O4         -1.6678    0.7505   -1.9597 O.co2     1 <0>        -0.6962
     33 O5         -3.3891   -0.2745   -1.2919 O.co2     1 <0>        -0.6972
     34 H1         -3.5205    0.5263    2.5423 H         1 <0>         0.0403
     35 H2         -1.9993    1.2626    1.9836 H         1 <0>         0.0398
     36 H3         -3.3921    1.1517    0.8808 H         1 <0>         0.0616
     37 H4         -1.8304   -1.2110    2.0189 H         1 <0>         0.0376
     38 H5         -3.2232   -1.3219    0.9161 H         1 <0>         0.0686
     39 H6         -0.6353    0.1607    0.2759 H         1 <0>         0.0551
     40 H7         -0.2925   -2.3131    0.4781 H         1 <0>         0.0674
     41 H8         -2.2586   -3.5006   -0.0392 H         1 <0>         0.0637
     42 H9         -2.7735   -2.2983   -1.2690 H         1 <0>         0.1090
     43 H10        -0.7769   -4.5684   -1.5230 H         1 <0>         0.0719
     44 H11        -1.9011   -3.9118   -2.7507 H         1 <0>         0.0707
     45 H12         1.2362    0.0306   -1.1057 H         1 <0>         0.1168
     46 H13         2.5574   -0.0707   -3.1773 H         1 <0>         0.1193
     47 H14         0.4550   -3.6049   -4.3337 H         1 <0>         0.1209
     48 H15         2.7986    0.0928   -5.2532 H         1 <0>         0.0620
     49 H16         4.0199   -0.9038   -4.4264 H         1 <0>         0.0630
     50 H17         4.4987   -2.0826   -6.5547 H         1 <0>         0.0940
     51 H18         3.2775   -1.0860   -7.3815 H         1 <0>         0.0936
     52 H19         8.4377    2.4775   -6.4042 H         1 <0>         0.0963
     53 H20         8.6870    0.9105   -5.5976 H         1 <0>         0.1110
     54 H21        10.3643    2.1566   -5.6373 H         1 <0>         0.1400
     55 H22        12.7833    2.5982   -5.5265 H         1 <0>         0.1385
     56 H23        13.3017    0.7453   -9.3351 H         1 <0>         0.1418
     57 H24        10.8852    0.2901   -9.4462 H         1 <0>         0.1423
     58 H25         2.9627    2.1732   -7.2384 H         1 <0>         0.0932
     59 H26         3.7451    2.2980   -8.8323 H         1 <0>         0.0826
     60 H27         2.9528    0.7801   -8.3462 H         1 <0>         0.0992
@<TRIPOS>BOND
     1    1    2 1
     2    1   34 1
     3    1   35 1
     4    1   36 1
     5    2    3 1
     6    2   37 1
     7    2   38 1
     8    3    4 1
     9    3   31 1
    10    3   39 1
    11    4    8 1
    12    4    5 1
    13    4   40 1
    14    5    6 1
    15    5   41 1
    16    5   42 1
    17    6    7 1
    18    6   43 1
    19    6   44 1
    20    7   12 ar
    21    7    8 ar
    22    8    9 ar
    23    9   10 ar
    24    9   45 1
    25   10   11 ar
    26   10   46 1
    27   11   12 ar
    28   11   13 1
    29   12   47 1
    30   13   14 1
    31   14   15 1
    32   14   48 1
    33   14   49 1
    34   15   16 1
    35   15   50 1
    36   15   51 1
    37   16   20 1
    38   16   17 2
    39   17   18 1
    40   17   30 1
    41   18   19 1
    42   19   20 2
    43   19   21 1
    44   21   22 1
    45   21   52 1
    46   21   53 1
    47   22   23 1
    48   23   28 ar
    49   23   24 ar
    50   24   25 ar
    51   24   54 1
    52   25   26 ar
    53   25   55 1
    54   26   27 ar
    55   26   29 1
    56   27   28 ar
    57   27   56 1
    58   28   57 1
    59   30   58 1
    60   30   59 1
    61   30   60 1
    62   31   32 2
    63   31   33 1
@<TRIPOS>MOLECULE
CHEMBL198929
   58    62     0     0     0
SMALL
USER_CHARGES

@<TRIPOS>ATOM
      1 C1         -0.0187    1.5258    0.0104 C.3       1 <0>        -0.1518
      2 C2          0.0021   -0.0041    0.0020 C.3       1 <0>        -0.1174
      3 C3          0.7182   -0.4975   -1.2568 C.3       1 <0>        -0.0693
      4 C4          0.7386   -2.0043   -1.2651 C.ar      1 <0>        -0.1236
      5 C5          1.7874   -2.6879   -0.6752 C.ar      1 <0>         0.2029
      6 C6          1.8138   -4.0805   -0.6786 C.ar      1 <0>        -0.2158
      7 C7          0.8051   -4.7902   -1.2640 C.ar      1 <0>         0.0020
      8 C8         -0.2622   -4.1169   -1.8640 C.ar      1 <0>        -0.2134
      9 C9         -0.2971   -2.7116   -1.8592 C.ar      1 <0>         0.1304
     10 O1         -1.4279   -2.3410   -2.4934 O.3       1 <0>        -0.0563
     11 N1         -2.1323   -3.4949   -2.9061 N.2       1 <0>        -0.2266
     12 C10        -1.4728   -4.5582   -2.5610 C.2       1 <0>         0.0489
     13 C11        -1.8852   -5.9851   -2.8158 C.3       1 <0>         0.5553
     14 F1         -2.6666   -6.4423   -1.7492 F         1 <0>        -0.1559
     15 F2         -2.6274   -6.0518   -3.9998 F         1 <0>        -0.1568
     16 F3         -0.7443   -6.7860   -2.9349 F         1 <0>        -0.1544
     17 O2          2.7986   -1.9959   -0.0891 O.3       1 <0>        -0.2934
     18 C12         3.8511   -2.7608    0.5018 C.3       1 <0>         0.0584
     19 C13         4.8906   -1.8155    1.1073 C.3       1 <0>        -0.1186
     20 C14         6.0175   -2.6345    1.7400 C.3       1 <0>         0.0660
     21 O3          6.9884   -1.7516    2.3056 O.3       1 <0>        -0.3165
     22 C15         8.0634   -2.3227    2.9118 C.ar      1 <0>         0.0923
     23 C16         8.1799   -3.7099    2.9538 C.ar      1 <0>        -0.1886
     24 C17         9.2619   -4.3046    3.5632 C.ar      1 <0>        -0.0680
     25 C18        10.2516   -3.5186    4.1442 C.ar      1 <0>         0.0794
     26 C19        10.1368   -2.1177    4.1035 C.ar      1 <0>        -0.0730
     27 C20         9.0374   -1.5252    3.4780 C.ar      1 <0>        -0.1158
     28 C21        11.3197   -1.5938    4.7906 C.2       1 <0>        -0.2286
     29 C22        12.0447   -2.6518    5.1871 C.2       1 <0>         0.0802
     30 N2         11.4232   -3.8107    4.8103 N.pl3     1 <0>        -0.4663
     31 C23        11.9267   -5.1607    5.0755 C.3       1 <0>         0.2261
     32 C24        12.7040   -5.6506    3.8811 C.2       1 <0>         0.0224
     33 N3         14.0021   -5.4947    3.6651 N.2       1 <0>        -0.3731
     34 N4         14.2795   -6.0543    2.5371 N.2       1 <0>        -0.1918
     35 N5         13.2017   -6.5541    2.0407 N.2       1 <0>        -0.1920
     36 N6         12.2222   -6.3251    2.8473 N.2       1 <0>        -0.3699
     37 H1          1.0039    1.9031    0.0027 H         1 <0>         0.0570
     38 H2         -0.5459    1.8868   -0.8726 H         1 <0>         0.0541
     39 H3         -0.5289    1.8773    0.9072 H         1 <0>         0.0550
     40 H4          0.5293   -0.3651    0.8851 H         1 <0>         0.0656
     41 H5         -1.0205   -0.3814    0.0098 H         1 <0>         0.0593
     42 H6          0.1910   -0.1364   -2.1398 H         1 <0>         0.0750
     43 H7          1.7408   -0.1202   -1.2645 H         1 <0>         0.0862
     44 H8          2.6380   -4.6024   -0.2152 H         1 <0>         0.1498
     45 H9          0.8322   -5.8699   -1.2636 H         1 <0>         0.1453
     46 H10         3.4411   -3.3992    1.2844 H         1 <0>         0.0740
     47 H11         4.3234   -3.3793   -0.2614 H         1 <0>         0.0746
     48 H12         5.3007   -1.1771    0.3248 H         1 <0>         0.0878
     49 H13         4.4184   -1.1969    1.8705 H         1 <0>         0.0874
     50 H14         5.6075   -3.2729    2.5226 H         1 <0>         0.0632
     51 H15         6.4898   -3.2530    0.9768 H         1 <0>         0.0643
     52 H16         7.4142   -4.3249    2.5045 H         1 <0>         0.1248
     53 H17         9.3421   -5.3813    3.5903 H         1 <0>         0.1269
     54 H18         8.9479   -0.4495    3.4412 H         1 <0>         0.1248
     55 H19        11.5629   -0.5533    4.9479 H         1 <0>         0.1433
     56 H20        12.9801   -2.5962    5.7241 H         1 <0>         0.1664
     57 H21        12.5778   -5.1404    5.9494 H         1 <0>         0.0968
     58 H22        11.0878   -5.8310    5.2629 H         1 <0>         0.0910
@<TRIPOS>BOND
     1    1    2 1
     2    1   37 1
     3    1   38 1
     4    1   39 1
     5    2    3 1
     6    2   40 1
     7    2   41 1
     8    3    4 1
     9    3   42 1
    10    3   43 1
    11    4    9 ar
    12    4    5 ar
    13    5    6 ar
    14    5   17 1
    15    6    7 ar
    16    6   44 1
    17    7    8 ar
    18    7   45 1
    19    8   12 1
    20    8    9 ar
    21    9   10 1
    22   10   11 1
    23   11   12 2
    24   12   13 1
    25   13   14 1
    26   13   15 1
    27   13   16 1
    28   17   18 1
    29   18   19 1
    30   18   46 1
    31   18   47 1
    32   19   20 1
    33   19   48 1
    34   19   49 1
    35   20   21 1
    36   20   50 1
    37   20   51 1
    38   21   22 1
    39   22   27 ar
    40   22   23 ar
    41   23   24 ar
    42   23   52 1
    43   24   25 ar
    44   24   53 1
    45   25   30 1
    46   25   26 ar
    47   26   27 ar
    48   26   28 1
    49   27   54 1
    50   28   29 2
    51   28   55 1
    52   29   30 1
    53   29   56 1
    54   30   31 1
    55   31   57 1
    56   31   58 1
    57   31   32 1
    58   32   33 2
    59   32   36 1
    60   33   34 1
    61   34   35 2
    62   35   36 1
@<TRIPOS>MOLECULE
CHEMBL221525
   56    59     0     0     0
SMALL
USER_CHARGES

@<TRIPOS>ATOM
      1 C1         -0.0184    1.5028    0.0103 C.3       1 <0>        -0.0748
      2 C2          0.0021   -0.0041    0.0020 C.2       1 <0>        -0.0210
      3 C3         -1.0705   -0.8164    0.0025 C.2       1 <0>        -0.0032
      4 N1         -0.6270   -2.0826   -0.0064 N.2       1 <0>        -0.4500
      5 C4          0.6851   -2.0676   -0.0123 C.2       1 <0>         0.2163
      6 O1          1.0981   -0.7883   -0.0131 O.3       1 <0>        -0.1923
      7 C5          1.5619   -3.2577   -0.0227 C.ar      1 <0>        -0.0075
      8 C6          1.0058   -4.5380   -0.0330 C.ar      1 <0>        -0.0407
      9 C7          1.8296   -5.6443   -0.0432 C.ar      1 <0>        -0.1173
     10 C8          3.2044   -5.4871   -0.0433 C.ar      1 <0>        -0.0575
     11 C9          3.7619   -4.2211   -0.0327 C.ar      1 <0>        -0.1841
     12 C10         2.9491   -3.1060   -0.0282 C.ar      1 <0>        -0.0429
     13 C11         5.2602   -4.0594   -0.0324 C.3       1 <0>         0.5110
     14 F1          5.8654   -5.3206   -0.0437 F         1 <0>        -0.1754
     15 F2          5.6522   -3.3437   -1.1688 F         1 <0>        -0.1739
     16 F3          5.6539   -3.3636    1.1157 F         1 <0>        -0.1747
     17 C12        -2.5133   -0.3814    0.0119 C.3       1 <0>        -0.0372
     18 C13        -3.0085   -0.2260   -1.4274 C.3       1 <0>         0.0813
     19 O2         -4.3766    0.1865   -1.4185 O.3       1 <0>        -0.3098
     20 C14        -4.9721    0.3713   -2.6235 C.ar      1 <0>         0.3045
     21 C15        -6.2993    0.7777   -2.6799 C.ar      1 <0>        -0.1875
     22 C16        -6.8947    0.9630   -3.9152 C.ar      1 <0>        -0.0185
     23 C17        -6.1377    0.7339   -5.0562 C.ar      1 <0>        -0.1414
     24 C18        -4.8238    0.3313   -4.9253 C.ar      1 <0>         0.1484
     25 N2         -4.2819    0.1679   -3.7332 N.ar      1 <0>        -0.5441
     26 C19        -6.7440    0.9223   -6.4229 C.3       1 <0>        -0.0593
     27 C20        -6.5273    2.3655   -6.8825 C.3       1 <0>         0.0409
     28 C21        -7.2441    2.5993   -8.2297 C.3       1 <0>        -0.1314
     29 C22        -6.2311    3.4976   -8.9905 C.3       1 <0>        -0.1539
     30 C23        -4.8865    2.9348   -8.4649 C.3       1 <0>         0.0510
     31 O3         -5.1302    2.6054   -7.0882 O.3       1 <0>        -0.3519
     32 C24        -7.0622    3.3181   -5.8445 C.2       1 <0>         0.5041
     33 O4         -6.3129    4.1127   -5.3026 O.co2     1 <0>        -0.6747
     34 O5         -8.2443    3.2942   -5.5467 O.co2     1 <0>        -0.6972
     35 H1          1.0042    1.8801    0.0026 H         1 <0>         0.0813
     36 H2         -0.5455    1.8639   -0.8728 H         1 <0>         0.0967
     37 H3         -0.5286    1.8543    0.9071 H         1 <0>         0.0948
     38 H4         -0.0671   -4.6621   -0.0326 H         1 <0>         0.1503
     39 H5          1.4006   -6.6355   -0.0508 H         1 <0>         0.1467
     40 H6          3.8450   -6.3565   -0.0513 H         1 <0>         0.1449
     41 H7          3.3856   -2.1182   -0.0248 H         1 <0>         0.1422
     42 H8         -3.1156   -1.1316    0.5243 H         1 <0>         0.0927
     43 H9         -2.6018    0.5726    0.5316 H         1 <0>         0.0923
     44 H10        -2.4061    0.5242   -1.9398 H         1 <0>         0.0641
     45 H11        -2.9200   -1.1800   -1.9471 H         1 <0>         0.0664
     46 H12        -6.8590    0.9466   -1.7718 H         1 <0>         0.1350
     47 H13        -7.9250    1.2782   -3.9901 H         1 <0>         0.1464
     48 H14        -4.2305    0.1518   -5.8097 H         1 <0>         0.1519
     49 H15        -6.2683    0.2410   -7.1284 H         1 <0>         0.0632
     50 H16        -7.8125    0.7116   -6.3786 H         1 <0>         0.0828
     51 H17        -7.3984    1.6572   -8.7557 H         1 <0>         0.0642
     52 H18        -8.1895    3.1210   -8.0806 H         1 <0>         0.0843
     53 H19        -6.3189    3.3628  -10.0685 H         1 <0>         0.0713
     54 H20        -6.3522    4.5456   -8.7164 H         1 <0>         0.0748
     55 H21        -4.6059    2.0419   -9.0236 H         1 <0>         0.0460
     56 H22        -4.1047    3.6905   -8.5404 H         1 <0>         0.0727
@<TRIPOS>BOND
     1    1    2 1
     2    1   35 1
     3    1   36 1
     4    1   37 1
     5    2    6 1
     6    2    3 2
     7    3    4 1
     8    3   17 1
     9    4    5 2
    10    5    6 1
    11    5    7 1
    12    7   12 ar
    13    7    8 ar
    14    8    9 ar
    15    8   38 1
    16    9   10 ar
    17    9   39 1
    18   10   11 ar
    19   10   40 1
    20   11   12 ar
    21   11   13 1
    22   12   41 1
    23   13   14 1
    24   13   15 1
    25   13   16 1
    26   17   18 1
    27   17   42 1
    28   17   43 1
    29   18   19 1
    30   18   44 1
    31   18   45 1
    32   19   20 1
    33   20   25 ar
    34   20   21 ar
    35   21   22 ar
    36   21   46 1
    37   22   23 ar
    38   22   47 1
    39   23   24 ar
    40   23   26 1
    41   24   25 ar
    42   24   48 1
    43   26   27 1
    44   26   49 1
    45   26   50 1
    46   27   31 1
    47   27   28 1
    48   27   32 1
    49   28   29 1
    50   28   51 1
    51   28   52 1
    52   29   30 1
    53   29   53 1
    54   29   54 1
    55   30   31 1
    56   30   55 1
    57   30   56 1
    58   32   33 2
    59   32   34 1
@<TRIPOS>MOLECULE
CHEMBL221525__1
   56    59     0     0     0
SMALL
USER_CHARGES

@<TRIPOS>ATOM
      1 C1         -0.0184    1.5028    0.0103 C.3       1 <0>        -0.0752
      2 C2          0.0021   -0.0041    0.0020 C.2       1 <0>        -0.0197
      3 C3         -1.0705   -0.8164    0.0025 C.2       1 <0>        -0.0045
      4 N1         -0.6270   -2.0826   -0.0064 N.2       1 <0>        -0.4500
      5 C4          0.6851   -2.0676   -0.0123 C.2       1 <0>         0.2164
      6 O1          1.0981   -0.7883   -0.0131 O.3       1 <0>        -0.1919
      7 C5          1.5619   -3.2577   -0.0227 C.ar      1 <0>        -0.0072
      8 C6          1.0058   -4.5380   -0.0330 C.ar      1 <0>        -0.0407
      9 C7          1.8296   -5.6443   -0.0432 C.ar      1 <0>        -0.1174
     10 C8          3.2044   -5.4871   -0.0433 C.ar      1 <0>        -0.0576
     11 C9          3.7619   -4.2211   -0.0327 C.ar      1 <0>        -0.1840
     12 C10         2.9491   -3.1060   -0.0282 C.ar      1 <0>        -0.0427
     13 C11         5.2602   -4.0594   -0.0324 C.3       1 <0>         0.5111
     14 F1          5.8654   -5.3206   -0.0437 F         1 <0>        -0.1755
     15 F2          5.6522   -3.3437   -1.1688 F         1 <0>        -0.1735
     16 F3          5.6539   -3.3636    1.1157 F         1 <0>        -0.1750
     17 C12        -2.5133   -0.3814    0.0119 C.3       1 <0>        -0.0355
     18 C13        -3.0085   -0.2260   -1.4274 C.3       1 <0>         0.0796
     19 O2         -4.3766    0.1865   -1.4185 O.3       1 <0>        -0.3111
     20 C14        -4.9721    0.3713   -2.6235 C.ar      1 <0>         0.3043
     21 C15        -6.2993    0.7777   -2.6799 C.ar      1 <0>        -0.1953
     22 C16        -6.8947    0.9630   -3.9152 C.ar      1 <0>        -0.0267
     23 C17        -6.1377    0.7339   -5.0562 C.ar      1 <0>        -0.1418
     24 C18        -4.8238    0.3313   -4.9253 C.ar      1 <0>         0.1603
     25 N2         -4.2819    0.1679   -3.7332 N.ar      1 <0>        -0.5380
     26 C19        -6.7440    0.9223   -6.4229 C.3       1 <0>        -0.0578
     27 C20        -6.5273    2.3655   -6.8825 C.3       1 <0>         0.0417
     28 C21        -7.1546    2.5704   -8.2782 C.3       1 <0>        -0.1250
     29 C22        -8.5227    3.2192   -7.9325 C.3       1 <0>        -0.1581
     30 C23        -8.1434    4.0598   -6.6874 C.3       1 <0>         0.0500
     31 O3         -7.1783    3.2661   -5.9788 O.3       1 <0>        -0.3515
     32 C24        -5.0522    2.6696   -6.9333 C.2       1 <0>         0.4999
     33 O4         -4.3227    2.0291   -7.6708 O.co2     1 <0>        -0.6961
     34 O5         -4.5883    3.5563   -6.2368 O.co2     1 <0>        -0.6754
     35 H1          1.0042    1.8801    0.0026 H         1 <0>         0.0816
     36 H2         -0.5455    1.8639   -0.8728 H         1 <0>         0.0975
     37 H3         -0.5286    1.8543    0.9071 H         1 <0>         0.0942
     38 H4         -0.0671   -4.6621   -0.0326 H         1 <0>         0.1501
     39 H5          1.4006   -6.6355   -0.0508 H         1 <0>         0.1465
     40 H6          3.8450   -6.3565   -0.0513 H         1 <0>         0.1447
     41 H7          3.3856   -2.1182   -0.0248 H         1 <0>         0.1423
     42 H8         -3.1156   -1.1316    0.5243 H         1 <0>         0.0920
     43 H9         -2.6018    0.5726    0.5316 H         1 <0>         0.0916
     44 H10        -2.4061    0.5242   -1.9398 H         1 <0>         0.0660
     45 H11        -2.9200   -1.1800   -1.9471 H         1 <0>         0.0675
     46 H12        -6.8590    0.9466   -1.7718 H         1 <0>         0.1334
     47 H13        -7.9250    1.2782   -3.9901 H         1 <0>         0.1351
     48 H14        -4.2305    0.1518   -5.8097 H         1 <0>         0.1617
     49 H15        -6.2683    0.2410   -7.1284 H         1 <0>         0.0839
     50 H16        -7.8125    0.7116   -6.3786 H         1 <0>         0.0626
     51 H17        -6.5468    3.2449   -8.8814 H         1 <0>         0.0726
     52 H18        -7.2950    1.6154   -8.7844 H         1 <0>         0.0748
     53 H19        -8.8718    3.8563   -8.7452 H         1 <0>         0.0728
     54 H20        -9.2652    2.4611   -7.6834 H         1 <0>         0.0705
     55 H21        -7.7024    5.0090   -6.9918 H         1 <0>         0.0511
     56 H22        -9.0217    4.2320   -6.0653 H         1 <0>         0.0715
@<TRIPOS>BOND
     1    1    2 1
     2    1   35 1
     3    1   36 1
     4    1   37 1
     5    2    6 1
     6    2    3 2
     7    3    4 1
     8    3   17 1
     9    4    5 2
    10    5    6 1
    11    5    7 1
    12    7   12 ar
    13    7    8 ar
    14    8    9 ar
    15    8   38 1
    16    9   10 ar
    17    9   39 1
    18   10   11 ar
    19   10   40 1
    20   11   12 ar
    21   11   13 1
    22   12   41 1
    23   13   14 1
    24   13   15 1
    25   13   16 1
    26   17   18 1
    27   17   42 1
    28   17   43 1
    29   18   19 1
    30   18   44 1
    31   18   45 1
    32   19   20 1
    33   20   25 ar
    34   20   21 ar
    35   21   22 ar
    36   21   46 1
    37   22   23 ar
    38   22   47 1
    39   23   24 ar
    40   23   26 1
    41   24   25 ar
    42   24   48 1
    43   26   27 1
    44   26   49 1
    45   26   50 1
    46   27   31 1
    47   27   28 1
    48   27   32 1
    49   28   29 1
    50   28   51 1
    51   28   52 1
    52   29   30 1
    53   29   53 1
    54   29   54 1
    55   30   31 1
    56   30   55 1
    57   30   56 1
    58   32   33 2
    59   32   34 1
@<TRIPOS>MOLECULE
CHEMBL1079962
   63    66     0     0     0
SMALL
USER_CHARGES

@<TRIPOS>ATOM
      1 C1          0.5646    0.2728    1.4402 C.3       1 <0>         0.0255
      2 O1          0.0657   -0.1299    0.1631 O.3       1 <0>        -0.3165
      3 C2         -1.1497   -0.7376    0.1391 C.ar      1 <0>         0.1373
      4 C3         -1.8483   -0.9356    1.3224 C.ar      1 <0>        -0.2099
      5 C4         -3.0816   -1.5522    1.3021 C.ar      1 <0>        -0.0445
      6 C5         -3.6273   -1.9768    0.0903 C.ar      1 <0>        -0.0622
      7 C6         -2.9225   -1.7757   -1.0968 C.ar      1 <0>        -0.0522
      8 C7         -1.6921   -1.1536   -1.0692 C.ar      1 <0>        -0.1511
      9 C8         -4.9512   -2.6398    0.0643 C.2       1 <0>         0.1222
     10 C9         -5.1659   -3.7620   -0.7278 C.2       1 <0>        -0.1300
     11 S1         -6.8818   -4.1033   -0.3584 S.3       1 <0>         0.0771
     12 C10        -7.1399   -2.7541    0.7848 C.2       1 <0>         0.0729
     13 N1         -5.9503   -2.1788    0.7985 N.2       1 <0>        -0.4910
     14 S2         -8.5985   -2.3104    1.6682 S.3       1 <0>         0.0387
     15 C11        -8.1061   -0.8481    2.6220 C.3       1 <0>        -0.1074
     16 C12        -9.2959   -0.3525    3.4464 C.3       1 <0>        -0.1051
     17 C13        -8.8806    0.8808    4.2509 C.3       1 <0>         0.0671
     18 O2         -9.9919    1.3437    5.0209 O.3       1 <0>        -0.3051
     19 C14        -9.7900    2.4410    5.7986 C.ar      1 <0>         0.0836
     20 C15        -8.5497    3.0611    5.8144 C.ar      1 <0>        -0.1550
     21 C16        -8.3445    4.1759    6.6039 C.ar      1 <0>        -0.1162
     22 C17        -9.3789    4.6755    7.3815 C.ar      1 <0>         0.1235
     23 C18       -10.6195    4.0561    7.3663 C.ar      1 <0>        -0.1747
     24 C19       -10.8268    2.9438    6.5720 C.ar      1 <0>        -0.0218
     25 Cl1       -12.3818    2.1723    6.5471 Cl        1 <0>        -0.0619
     26 O3         -9.1761    5.7724    8.1592 O.3       1 <0>        -0.2756
     27 C20       -10.2852    6.2323    8.9340 C.3       1 <0>        -0.0100
     28 C21        -9.8755    7.4473    9.7258 C.2       1 <0>         0.5019
     29 O4         -8.7390    7.8794    9.6349 O.co2     1 <0>        -0.6708
     30 O5        -10.6805    7.9983   10.4572 O.co2     1 <0>        -0.6856
     31 C22        -4.2357   -4.4739   -1.6252 C.ar      1 <0>        -0.0432
     32 C23        -2.9589   -4.8227   -1.1773 C.ar      1 <0>        -0.0426
     33 C24        -2.0935   -5.4881   -2.0191 C.ar      1 <0>        -0.1470
     34 C25        -2.4889   -5.8118   -3.3102 C.ar      1 <0>         0.1400
     35 C26        -3.7565   -5.4668   -3.7599 C.ar      1 <0>        -0.2065
     36 C27        -4.6309   -4.8064   -2.9235 C.ar      1 <0>        -0.0578
     37 O6         -1.6322   -6.4679   -4.1366 O.3       1 <0>        -0.3147
     38 C28        -2.1028   -6.7700   -5.4516 C.3       1 <0>         0.0251
     39 H1          1.5401    0.7434    1.3173 H         1 <0>         0.1013
     40 H2         -0.1271    0.9833    1.8929 H         1 <0>         0.0578
     41 H3          0.6612   -0.6010    2.0846 H         1 <0>         0.0567
     42 H4         -1.4252   -0.6066    2.2601 H         1 <0>         0.1315
     43 H5         -3.6241   -1.7066    2.2230 H         1 <0>         0.1273
     44 H6         -3.3417   -2.1033   -2.0367 H         1 <0>         0.1294
     45 H7         -1.1479   -0.9936   -1.9883 H         1 <0>         0.1333
     46 H8         -7.2851   -1.1094    3.2897 H         1 <0>         0.1009
     47 H9         -7.7835   -0.0613    1.9402 H         1 <0>         0.1013
     48 H10       -10.1169   -0.0913    2.7787 H         1 <0>         0.0880
     49 H11        -9.6185   -1.1394    4.1282 H         1 <0>         0.0880
     50 H12        -8.0596    0.6195    4.9186 H         1 <0>         0.0660
     51 H13        -8.5580    1.6677    3.5691 H         1 <0>         0.0662
     52 H14        -7.7439    2.6721    5.2097 H         1 <0>         0.1387
     53 H15        -7.3784    4.6585    6.6159 H         1 <0>         0.1404
     54 H16       -11.4248    4.4451    7.9718 H         1 <0>         0.1458
     55 H17       -11.1095    6.4924    8.2699 H         1 <0>         0.0613
     56 H18       -10.6033    5.4442    9.6165 H         1 <0>         0.0613
     57 H19        -2.6504   -4.5710   -0.1734 H         1 <0>         0.1329
     58 H20        -1.1063   -5.7578   -1.6739 H         1 <0>         0.1366
     59 H21        -4.0593   -5.7200   -4.7652 H         1 <0>         0.1336
     60 H22        -5.6183   -4.5428   -3.2725 H         1 <0>         0.1285
     61 H23        -2.9875   -7.4032   -5.3843 H         1 <0>         0.0571
     62 H24        -2.3569   -5.8445   -5.9682 H         1 <0>         0.0576
     63 H25        -1.3230   -7.2929   -6.0054 H         1 <0>         0.1017
@<TRIPOS>BOND
     1    1    2 1
     2    1   39 1
     3    1   40 1
     4    1   41 1
     5    2    3 1
     6    3    8 ar
     7    3    4 ar
     8    4    5 ar
     9    4   42 1
    10    5    6 ar
    11    5   43 1
    12    6    7 ar
    13    6    9 1
    14    7    8 ar
    15    7   44 1
    16    8   45 1
    17    9   13 1
    18    9   10 2
    19   10   11 1
    20   10   31 1
    21   11   12 1
    22   12   13 2
    23   12   14 1
    24   14   15 1
    25   15   16 1
    26   15   46 1
    27   15   47 1
    28   16   17 1
    29   16   48 1
    30   16   49 1
    31   17   18 1
    32   17   50 1
    33   17   51 1
    34   18   19 1
    35   19   24 ar
    36   19   20 ar
    37   20   21 ar
    38   20   52 1
    39   21   22 ar
    40   21   53 1
    41   22   23 ar
    42   22   26 1
    43   23   24 ar
    44   23   54 1
    45   24   25 1
    46   26   27 1
    47   27   28 1
    48   27   55 1
    49   27   56 1
    50   28   29 2
    51   28   30 1
    52   31   36 ar
    53   31   32 ar
    54   32   33 ar
    55   32   57 1
    56   33   34 ar
    57   33   58 1
    58   34   35 ar
    59   34   37 1
    60   35   36 ar
    61   35   59 1
    62   36   60 1
    63   37   38 1
    64   38   61 1
    65   38   62 1
    66   38   63 1
@<TRIPOS>MOLECULE
CHEMBL1079961
   66    69     0     0     0
SMALL
USER_CHARGES

@<TRIPOS>ATOM
      1 C1          0.9593    0.2928   -1.2051 C.3       1 <0>         0.0257
      2 O1          0.1129   -0.1276   -0.1332 O.3       1 <0>        -0.3165
      3 C2          0.7148   -0.7166    0.9335 C.ar      1 <0>         0.1368
      4 C3          2.0934   -0.8801    0.9477 C.ar      1 <0>        -0.2100
      5 C4          2.7075   -1.4777    2.0280 C.ar      1 <0>        -0.0446
      6 C5          1.9417   -1.9179    3.1080 C.ar      1 <0>        -0.0616
      7 C6          0.5566   -1.7515    3.0904 C.ar      1 <0>        -0.0521
      8 C7         -0.0499   -1.1483    2.0089 C.ar      1 <0>        -0.1509
      9 C8          2.5974   -2.5606    4.2699 C.2       1 <0>         0.1216
     10 C9          2.0471   -3.6949    4.8558 C.2       1 <0>        -0.1299
     11 S1          3.2330   -4.0020    6.1583 S.3       1 <0>         0.0757
     12 C10         4.3179   -2.6264    5.8055 C.2       1 <0>         0.0751
     13 N1          3.7208   -2.0695    4.7665 N.2       1 <0>        -0.4912
     14 S2          5.8005   -2.1424    6.6255 S.3       1 <0>         0.0274
     15 C11         6.3436   -0.6692    5.7171 C.3       1 <0>        -0.1057
     16 C12         7.6395   -0.1387    6.3337 C.3       1 <0>        -0.1033
     17 C13         8.0975    1.1038    5.5675 C.3       1 <0>        -0.1106
     18 C14         9.3934    1.6343    6.1840 C.3       1 <0>         0.0594
     19 O2          9.8213    2.7948    5.4684 O.3       1 <0>        -0.3065
     20 C15        10.9665    3.3939    5.8917 C.ar      1 <0>         0.0839
     21 C16        11.6653    2.8710    6.9694 C.ar      1 <0>        -0.1554
     22 C17        12.8288    3.4791    7.3992 C.ar      1 <0>        -0.1161
     23 C18        13.2985    4.6133    6.7534 C.ar      1 <0>         0.1226
     24 C19        12.6005    5.1370    5.6756 C.ar      1 <0>        -0.1747
     25 C20        11.4391    4.5254    5.2416 C.ar      1 <0>        -0.0231
     26 Cl1        10.5687    5.1762    3.8880 Cl        1 <0>        -0.0630
     27 O3         14.4434    5.2120    7.1775 O.3       1 <0>        -0.2757
     28 C21        14.8687    6.3761    6.4661 C.3       1 <0>        -0.0098
     29 C22        16.1453    6.8977    7.0737 C.2       1 <0>         0.5018
     30 O4         16.6447    6.3255    8.0276 O.co2     1 <0>        -0.6707
     31 O5         16.6788    7.8918    6.6115 O.co2     1 <0>        -0.6857
     32 C23         0.8231   -4.4390    4.5012 C.ar      1 <0>        -0.0433
     33 C24         0.5816   -4.7986    3.1728 C.ar      1 <0>        -0.0427
     34 C25        -0.5630   -5.4941    2.8465 C.ar      1 <0>        -0.1471
     35 C26        -1.4752   -5.8373    3.8355 C.ar      1 <0>         0.1401
     36 C27        -1.2397   -5.4818    5.1570 C.ar      1 <0>        -0.2064
     37 C28        -0.0951   -4.7912    5.4937 C.ar      1 <0>        -0.0578
     38 O6         -2.6023   -6.5231    3.5091 O.3       1 <0>        -0.3147
     39 C29        -3.4981   -6.8441    4.5752 C.3       1 <0>         0.0251
     40 H1          1.4908   -0.5694   -1.6079 H         1 <0>         0.0567
     41 H2          0.3536    0.7455   -1.9901 H         1 <0>         0.1011
     42 H3          1.6790    1.0228   -0.8349 H         1 <0>         0.0573
     43 H4          2.6855   -0.5391    0.1113 H         1 <0>         0.1312
     44 H5          3.7799   -1.6051    2.0380 H         1 <0>         0.1272
     45 H6         -0.0394   -2.0913    3.9245 H         1 <0>         0.1296
     46 H7         -1.1216   -1.0152    1.9965 H         1 <0>         0.1334
     47 H8          6.5180   -0.9298    4.6732 H         1 <0>         0.0988
     48 H9          5.5723    0.0988    5.7759 H         1 <0>         0.0992
     49 H10         7.4651    0.1219    7.3776 H         1 <0>         0.0800
     50 H11         8.4108   -0.9067    6.2749 H         1 <0>         0.0800
     51 H12         8.2719    0.8432    4.5235 H         1 <0>         0.0787
     52 H13         7.3263    1.8718    5.6262 H         1 <0>         0.0789
     53 H14         9.2190    1.8949    7.2279 H         1 <0>         0.0634
     54 H15        10.1647    0.8663    6.1252 H         1 <0>         0.0633
     55 H16        11.2996    1.9884    7.4730 H         1 <0>         0.1389
     56 H17        13.3727    3.0715    8.2385 H         1 <0>         0.1405
     57 H18        12.9662    6.0201    5.1729 H         1 <0>         0.1454
     58 H19        15.0419    6.1202    5.4209 H         1 <0>         0.0611
     59 H20        14.0965    7.1428    6.5293 H         1 <0>         0.0611
     60 H21         1.2904   -4.5317    2.4029 H         1 <0>         0.1327
     61 H22        -0.7507   -5.7721    1.8200 H         1 <0>         0.1366
     62 H23        -1.9524   -5.7503    5.9227 H         1 <0>         0.1337
     63 H24         0.0895   -4.5193    6.5225 H         1 <0>         0.1286
     64 H25        -2.9819   -7.4620    5.3099 H         1 <0>         0.0572
     65 H26        -3.8416   -5.9252    5.0502 H         1 <0>         0.0576
     66 H27        -4.3541   -7.3900    4.1785 H         1 <0>         0.1018
@<TRIPOS>BOND
     1    1    2 1
     2    1   40 1
     3    1   41 1
     4    1   42 1
     5    2    3 1
     6    3    8 ar
     7    3    4 ar
     8    4    5 ar
     9    4   43 1
    10    5    6 ar
    11    5   44 1
    12    6    7 ar
    13    6    9 1
    14    7    8 ar
    15    7   45 1
    16    8   46 1
    17    9   13 1
    18    9   10 2
    19   10   11 1
    20   10   32 1
    21   11   12 1
    22   12   13 2
    23   12   14 1
    24   14   15 1
    25   15   16 1
    26   15   47 1
    27   15   48 1
    28   16   17 1
    29   16   49 1
    30   16   50 1
    31   17   18 1
    32   17   51 1
    33   17   52 1
    34   18   19 1
    35   18   53 1
    36   18   54 1
    37   19   20 1
    38   20   25 ar
    39   20   21 ar
    40   21   22 ar
    41   21   55 1
    42   22   23 ar
    43   22   56 1
    44   23   24 ar
    45   23   27 1
    46   24   25 ar
    47   24   57 1
    48   25   26 1
    49   27   28 1
    50   28   29 1
    51   28   58 1
    52   28   59 1
    53   29   30 2
    54   29   31 1
    55   32   37 ar
    56   32   33 ar
    57   33   34 ar
    58   33   60 1
    59   34   35 ar
    60   34   61 1
    61   35   36 ar
    62   35   38 1
    63   36   37 ar
    64   36   62 1
    65   37   63 1
    66   38   39 1
    67   39   64 1
    68   39   65 1
    69   39   66 1
@<TRIPOS>MOLECULE
CHEMBL258766
   49    51     0     0     0
SMALL
USER_CHARGES

@<TRIPOS>ATOM
      1 C1          0.2695    1.1781   -0.1651 C.3       1 <0>        -0.0967
      2 C2          0.1548   -0.3200   -0.0485 C.ar      1 <0>        -0.1017
      3 C3          0.2038   -1.1069   -1.1830 C.ar      1 <0>        -0.1189
      4 C4          0.0987   -2.4855   -1.0756 C.ar      1 <0>         0.0716
      5 C5         -0.0555   -3.0744    0.1708 C.ar      1 <0>        -0.1809
      6 C6         -0.1045   -2.2878    1.3049 C.ar      1 <0>        -0.1147
      7 C7          0.0059   -0.9091    1.1980 C.ar      1 <0>         0.1431
      8 O1         -0.0367   -0.1350    2.3152 O.3       1 <0>        -0.2983
      9 C8         -0.0641   -0.8123    3.5732 C.3       1 <0>         0.0296
     10 C9          1.1831   -1.6882    3.7080 C.3       1 <0>        -0.1734
     11 C10        -0.0898    0.2162    4.7057 C.3       1 <0>        -0.1148
     12 C11        -1.2960   -1.6767    3.6516 C.2       1 <0>         0.4811
     13 O2         -2.0780   -1.7097    2.7168 O.co2     1 <0>        -0.6696
     14 O3         -1.5106   -2.3431    4.6498 O.co2     1 <0>        -0.6855
     15 O4          0.1465   -3.2601   -2.1923 O.3       1 <0>        -0.3120
     16 C12         0.0321   -4.6724   -2.0076 C.3       1 <0>         0.1449
     17 C13         0.1058   -5.3617   -3.3457 C.2       1 <0>         0.0659
     18 N1          1.1652   -5.8121   -3.9792 N.2       1 <0>        -0.4954
     19 C14         0.9838   -6.3875   -5.1543 C.2       1 <0>         0.2788
     20 N2         -0.2490   -6.4717   -5.6139 N.2       1 <0>        -0.4624
     21 S1         -1.1470   -5.7517   -4.3952 S.3       1 <0>         0.3563
     22 C15         2.1297   -6.9209   -5.9315 C.ar      1 <0>         0.0422
     23 C16         3.4240   -6.8255   -5.4235 C.ar      1 <0>        -0.0832
     24 C17         4.4871   -7.3228   -6.1495 C.ar      1 <0>        -0.0466
     25 C18         4.2709   -7.9157   -7.3802 C.ar      1 <0>        -0.2093
     26 C19         2.9871   -8.0139   -7.8910 C.ar      1 <0>         0.1490
     27 C20         1.9147   -7.5238   -7.1686 C.ar      1 <0>        -0.1174
     28 F1          2.7818   -8.5941   -9.0936 F         1 <0>        -0.1192
     29 C21         5.4361   -8.4564   -8.1683 C.3       1 <0>         0.5136
     30 F2          6.6206   -8.2435   -7.4549 F         1 <0>        -0.1712
     31 F3          5.2594   -9.8279   -8.3802 F         1 <0>        -0.1711
     32 F4          5.5099   -7.7997   -9.4014 F         1 <0>        -0.1710
     33 H1          1.3185    1.4679   -0.1049 H         1 <0>         0.0624
     34 H2         -0.1423    1.5007   -1.1214 H         1 <0>         0.0594
     35 H3         -0.2848    1.6492    0.6466 H         1 <0>         0.0708
     36 H4          0.3235   -0.6484   -2.1535 H         1 <0>         0.1271
     37 H5         -0.1377   -4.1481    0.2544 H         1 <0>         0.1209
     38 H6         -0.2253   -2.7462    2.2753 H         1 <0>         0.1443
     39 H7          2.0588   -1.0545    3.8484 H         1 <0>         0.0514
     40 H8          1.0715   -2.3494    4.5674 H         1 <0>         0.0748
     41 H9          1.3075   -2.2849    2.8044 H         1 <0>         0.0656
     42 H10        -0.9318    0.8934    4.5624 H         1 <0>         0.0569
     43 H11        -0.1955   -0.2979    5.6610 H         1 <0>         0.0779
     44 H12         0.8395    0.7858    4.7004 H         1 <0>         0.0506
     45 H13         0.8460   -5.0230   -1.3730 H         1 <0>         0.1001
     46 H14        -0.9225   -4.9007   -1.5335 H         1 <0>         0.0986
     47 H15         3.5949   -6.3625   -4.4628 H         1 <0>         0.1592
     48 H16         5.4901   -7.2485   -5.7560 H         1 <0>         0.1577
     49 H17         0.9132   -7.6042   -7.5648 H         1 <0>         0.1594
@<TRIPOS>BOND
     1    1    2 1
     2    1   33 1
     3    1   34 1
     4    1   35 1
     5    2    7 ar
     6    2    3 ar
     7    3    4 ar
     8    3   36 1
     9    4    5 ar
    10    4   15 1
    11    5    6 ar
    12    5   37 1
    13    6    7 ar
    14    6   38 1
    15    7    8 1
    16    8    9 1
    17    9   10 1
    18    9   11 1
    19    9   12 1
    20   10   39 1
    21   10   40 1
    22   10   41 1
    23   11   42 1
    24   11   43 1
    25   11   44 1
    26   12   13 2
    27   12   14 1
    28   15   16 1
    29   16   17 1
    30   16   45 1
    31   16   46 1
    32   17   21 1
    33   17   18 2
    34   18   19 1
    35   19   20 2
    36   19   22 1
    37   20   21 1
    38   22   27 ar
    39   22   23 ar
    40   23   24 ar
    41   23   47 1
    42   24   25 ar
    43   24   48 1
    44   25   26 ar
    45   25   29 1
    46   26   27 ar
    47   26   28 1
    48   27   49 1
    49   29   30 1
    50   29   31 1
    51   29   32 1
@<TRIPOS>MOLECULE
CHEMBL318351
   58    60     0     0     0
SMALL
USER_CHARGES

@<TRIPOS>ATOM
      1 C1         -3.0471    2.0537   -0.1363 C.3       1 <0>        -0.1507
      2 C2         -2.8198    0.5446   -0.0273 C.3       1 <0>        -0.0910
      3 C3         -4.1196   -0.1921   -0.3572 C.3       1 <0>        -0.1568
      4 H1         -4.4775    0.1238   -1.3371 H         1 <0>         0.0598
      5 C4         -3.8618   -1.7002   -0.3703 C.3       1 <0>        -0.0528
      6 C5         -5.1094   -2.4192   -0.8147 C.ar      1 <0>        -0.1029
      7 C6         -6.0484   -2.8154    0.1239 C.ar      1 <0>         0.0318
      8 C7         -7.1952   -3.4748   -0.2708 C.ar      1 <0>        -0.2261
      9 C8         -7.4149   -3.7448   -1.6136 C.ar      1 <0>         0.1776
     10 C9         -6.4678   -3.3452   -2.5661 C.ar      1 <0>        -0.1944
     11 C10        -5.3139   -2.6745   -2.1532 C.ar      1 <0>        -0.0520
     12 C11        -6.6904   -3.6268   -3.9971 C.2       1 <0>         0.5694
     13 O1         -7.6978   -4.2071   -4.3530 O.2       1 <0>        -0.5293
     14 N1         -5.7770   -3.2408   -4.9099 N.am      1 <0>        -0.7330
     15 C12        -5.9980   -3.5204   -6.3309 C.3       1 <0>         0.1681
     16 C13        -4.8382   -2.9898   -7.1336 C.ar      1 <0>        -0.1354
     17 C14        -4.8677   -1.6941   -7.6155 C.ar      1 <0>        -0.0595
     18 C15        -3.8061   -1.2055   -8.3519 C.ar      1 <0>        -0.1948
     19 C16        -2.7092   -2.0159   -8.6075 C.ar      1 <0>         0.1250
     20 C17        -2.6819   -3.3156   -8.1223 C.ar      1 <0>        -0.1452
     21 C18        -3.7438   -3.7977   -7.3820 C.ar      1 <0>        -0.0616
     22 O2         -1.6638   -1.5378   -9.3320 O.3       1 <0>        -0.2567
     23 C19        -1.7312   -0.2564   -9.7805 C.ar      1 <0>         0.0730
     24 C20        -1.2391    0.7793   -8.9996 C.ar      1 <0>        -0.0941
     25 C21        -1.3078    2.0810   -9.4570 C.ar      1 <0>        -0.1387
     26 C22        -1.8675    2.3523  -10.6940 C.ar      1 <0>         0.1025
     27 C23        -2.3591    1.3196  -11.4745 C.ar      1 <0>        -0.1408
     28 C24        -2.2869    0.0164  -11.0221 C.ar      1 <0>        -0.0962
     29 F1         -1.9345    3.6259  -11.1398 F         1 <0>        -0.1345
     30 O3         -8.5411   -4.3930   -2.0029 O.3       1 <0>        -0.2888
     31 C25        -9.4606   -4.7699   -0.9759 C.3       1 <0>         0.0236
     32 C26        -5.1587    0.1310    0.6853 C.2       1 <0>         0.4959
     33 O4         -4.8851    0.8809    1.6068 O.co2     1 <0>        -0.6938
     34 O5         -6.2730   -0.3576    0.6072 O.co2     1 <0>        -0.6879
     35 H2         -2.1212    2.5785    0.0987 H         1 <0>         0.0343
     36 H3         -3.3579    2.3019   -1.1512 H         1 <0>         0.0334
     37 H4         -3.8243    2.3558    0.5657 H         1 <0>         0.0845
     38 H5         -2.0427    0.2426   -0.7293 H         1 <0>         0.0346
     39 H6         -2.5091    0.2964    0.9876 H         1 <0>         0.0580
     40 H7         -3.0482   -1.9238   -1.0603 H         1 <0>         0.0567
     41 H8         -3.5894   -2.0309    0.6320 H         1 <0>         0.0628
     42 H9         -5.8819   -2.6076    1.1706 H         1 <0>         0.1267
     43 H10        -7.9222   -3.7812    0.4668 H         1 <0>         0.1266
     44 H11        -4.5812   -2.3602   -2.8817 H         1 <0>         0.1197
     45 H12        -4.9732   -2.7778   -4.6260 H         1 <0>         0.3994
     46 H13        -6.0814   -4.5968   -6.4807 H         1 <0>         0.0746
     47 H14        -6.9180   -3.0357   -6.6577 H         1 <0>         0.0737
     48 H15        -5.7217   -1.0637   -7.4163 H         1 <0>         0.1299
     49 H16        -3.8300   -0.1936   -8.7288 H         1 <0>         0.1284
     50 H17        -1.8294   -3.9486   -8.3201 H         1 <0>         0.1345
     51 H18        -3.7213   -4.8078   -7.0007 H         1 <0>         0.1347
     52 H19        -0.8028    0.5681   -8.0346 H         1 <0>         0.1441
     53 H20        -0.9251    2.8876   -8.8491 H         1 <0>         0.1457
     54 H21        -2.7954    1.5327  -12.4391 H         1 <0>         0.1441
     55 H22        -2.6667   -0.7894  -11.6328 H         1 <0>         0.1423
     56 H23       -10.3150   -5.2787   -1.4221 H         1 <0>         0.0949
     57 H24        -8.9654   -5.4395   -0.2728 H         1 <0>         0.0518
     58 H25        -9.8026   -3.8788   -0.4496 H         1 <0>         0.0551
@<TRIPOS>BOND
     1    1    2 1
     2    1   35 1
     3    1   36 1
     4    1   37 1
     5    2    3 1
     6    2   38 1
     7    2   39 1
     8    3    4 1
     9    3    5 1
    10    3   32 1
    11    5    6 1
    12    5   40 1
    13    5   41 1
    14    6   11 ar
    15    6    7 ar
    16    7    8 ar
    17    7   42 1
    18    8    9 ar
    19    8   43 1
    20    9   10 ar
    21    9   30 1
    22   10   11 ar
    23   10   12 1
    24   11   44 1
    25   12   13 2
    26   12   14 am
    27   14   15 1
    28   14   45 1
    29   15   16 1
    30   15   46 1
    31   15   47 1
    32   16   21 ar
    33   16   17 ar
    34   17   18 ar
    35   17   48 1
    36   18   19 ar
    37   18   49 1
    38   19   20 ar
    39   19   22 1
    40   20   21 ar
    41   20   50 1
    42   21   51 1
    43   22   23 1
    44   23   28 ar
    45   23   24 ar
    46   24   25 ar
    47   24   52 1
    48   25   26 ar
    49   25   53 1
    50   26   27 ar
    51   26   29 1
    52   27   28 ar
    53   27   54 1
    54   28   55 1
    55   30   31 1
    56   31   56 1
    57   31   57 1
    58   31   58 1
    59   32   33 2
    60   32   34 1
@<TRIPOS>MOLECULE
CHEMBL78476
   55    57     0     0     0
SMALL
USER_CHARGES

@<TRIPOS>ATOM
      1 C1         -0.0187    1.5258    0.0104 C.3       1 <0>        -0.1440
      2 C2          0.0021   -0.0041    0.0020 C.3       1 <0>         0.0903
      3 C3          0.7421   -0.5109    1.2415 C.3       1 <0>        -0.1662
      4 O1         -1.3386   -0.4987    0.0122 O.3       1 <0>        -0.3607
      5 C4         -1.4988   -1.7570   -0.6458 C.3       1 <0>         0.0326
      6 C5         -2.9073   -1.8480   -1.2364 C.3       1 <0>        -0.0627
      7 C6         -3.0669   -0.8098   -2.3171 C.ar      1 <0>        -0.0911
      8 C7         -3.5267    0.4543   -1.9972 C.ar      1 <0>        -0.0609
      9 C8         -3.6743    1.4076   -2.9861 C.ar      1 <0>        -0.1451
     10 C9         -3.3603    1.0958   -4.3009 C.ar      1 <0>         0.1097
     11 C10        -2.8987   -0.1732   -4.6192 C.ar      1 <0>        -0.2063
     12 C11        -2.7479   -1.1213   -3.6259 C.ar      1 <0>        -0.0810
     13 O2         -3.5050    2.0317   -5.2756 O.3       1 <0>        -0.3110
     14 C12        -3.1627    1.6405   -6.6067 C.3       1 <0>         0.1487
     15 C13        -3.3856    2.7994   -7.5439 C.2       1 <0>         0.2559
     16 N1         -4.5258    3.0694   -8.1894 N.2       1 <0>        -0.5305
     17 C14        -4.3840    4.1408   -8.9193 C.2       1 <0>         0.2979
     18 O3         -3.1340    4.5938   -8.7608 O.3       1 <0>        -0.0959
     19 N2         -2.5016    3.7041   -7.8528 N.2       1 <0>        -0.3163
     20 C15        -5.4446    4.7621   -9.7912 C.3       1 <0>        -0.0029
     21 C16        -4.9627    4.7844  -11.2432 C.3       1 <0>        -0.1168
     22 C17        -6.0395    5.4152  -12.1283 C.3       1 <0>        -0.1167
     23 C18        -6.3115    6.8459  -11.6593 C.3       1 <0>        -0.1248
     24 C19        -6.7935    6.8236  -10.2074 C.3       1 <0>        -0.1167
     25 C20        -5.7167    6.1928   -9.3222 C.3       1 <0>        -0.1177
     26 C21        -1.2975   -2.8725    0.3473 C.2       1 <0>         0.4773
     27 O4         -1.1313   -2.6153    1.5275 O.co2     1 <0>        -0.6720
     28 O5         -1.3010   -4.0320   -0.0293 O.co2     1 <0>        -0.7020
     29 H1          1.0039    1.9031    0.0027 H         1 <0>         0.0585
     30 H2         -0.5459    1.8868   -0.8726 H         1 <0>         0.0531
     31 H3         -0.5289    1.8773    0.9072 H         1 <0>         0.0593
     32 H4          0.5123   -0.3556   -0.8948 H         1 <0>         0.0422
     33 H5          0.7568   -1.6008    1.2356 H         1 <0>         0.0776
     34 H6          1.7647   -0.1336    1.2338 H         1 <0>         0.0379
     35 H7          0.2319   -0.1594    2.1383 H         1 <0>         0.0578
     36 H8         -0.7632   -1.8453   -1.4453 H         1 <0>         0.0476
     37 H9         -3.0600   -2.8404   -1.6606 H         1 <0>         0.0868
     38 H10        -3.6426   -1.6713   -0.4514 H         1 <0>         0.0746
     39 H11        -3.7710    0.6965   -0.9735 H         1 <0>         0.1331
     40 H12        -4.0342    2.3946   -2.7358 H         1 <0>         0.1261
     41 H13        -2.6536   -0.4183   -5.6421 H         1 <0>         0.1232
     42 H14        -2.3844   -2.1080   -3.8724 H         1 <0>         0.1263
     43 H15        -2.1146    1.3430   -6.6397 H         1 <0>         0.0950
     44 H16        -3.7884    0.8015   -6.9110 H         1 <0>         0.1014
     45 H17        -6.3613    4.1764   -9.7216 H         1 <0>         0.1208
     46 H18        -4.0461    5.3700  -11.3128 H         1 <0>         0.0755
     47 H19        -4.7689    3.7651  -11.5773 H         1 <0>         0.0722
     48 H20        -5.6961    5.4310  -13.1627 H         1 <0>         0.0708
     49 H21        -6.9561    4.8295  -12.0587 H         1 <0>         0.0684
     50 H22        -5.3949    7.4316  -11.7290 H         1 <0>         0.0654
     51 H23        -7.0786    7.2953  -12.2900 H         1 <0>         0.0667
     52 H24        -6.9873    7.8429   -9.8733 H         1 <0>         0.0712
     53 H25        -7.7101    6.2380  -10.1377 H         1 <0>         0.0684
     54 H26        -6.0600    6.1770   -8.2878 H         1 <0>         0.0732
     55 H27        -4.8001    6.7785   -9.3919 H         1 <0>         0.0756
@<TRIPOS>BOND
     1    1    2 1
     2    1   29 1
     3    1   30 1
     4    1   31 1
     5    2    3 1
     6    2    4 1
     7    2   32 1
     8    3   33 1
     9    3   34 1
    10    3   35 1
    11    4    5 1
    12    5    6 1
    13    5   26 1
    14    5   36 1
    15    6    7 1
    16    6   37 1
    17    6   38 1
    18    7   12 ar
    19    7    8 ar
    20    8    9 ar
    21    8   39 1
    22    9   10 ar
    23    9   40 1
    24   10   11 ar
    25   10   13 1
    26   11   12 ar
    27   11   41 1
    28   12   42 1
    29   13   14 1
    30   14   15 1
    31   14   43 1
    32   14   44 1
    33   15   19 2
    34   15   16 1
    35   16   17 2
    36   17   18 1
    37   17   20 1
    38   18   19 1
    39   20   25 1
    40   20   21 1
    41   20   45 1
    42   21   22 1
    43   21   46 1
    44   21   47 1
    45   22   23 1
    46   22   48 1
    47   22   49 1
    48   23   24 1
    49   23   50 1
    50   23   51 1
    51   24   25 1
    52   24   52 1
    53   24   53 1
    54   25   54 1
    55   25   55 1
    56   26   27 2
    57   26   28 1
@<TRIPOS>MOLECULE
CHEMBL78476__1
   55    57     0     0     0
SMALL
USER_CHARGES

@<TRIPOS>ATOM
      1 C1         -0.0187    1.5258    0.0104 C.3       1 <0>        -0.1419
      2 C2          0.0021   -0.0041    0.0020 C.3       1 <0>         0.0897
      3 C3          0.7421   -0.5109    1.2415 C.3       1 <0>        -0.1687
      4 O1         -1.3386   -0.4987    0.0122 O.3       1 <0>        -0.3593
      5 C4         -1.4988   -1.7570   -0.6458 C.3       1 <0>         0.0335
      6 C5         -2.6458   -2.5313    0.0067 C.3       1 <0>        -0.0623
      7 C6         -2.2788   -2.8690    1.4288 C.ar      1 <0>        -0.0900
      8 C7         -1.6203   -4.0519    1.7094 C.ar      1 <0>        -0.0814
      9 C8         -1.2832   -4.3639    3.0123 C.ar      1 <0>        -0.1452
     10 C9         -1.6056   -3.4890    4.0395 C.ar      1 <0>         0.1100
     11 C10        -2.2660   -2.3025    3.7553 C.ar      1 <0>        -0.2058
     12 C11        -2.5963   -1.9927    2.4501 C.ar      1 <0>        -0.0597
     13 O2         -1.2755   -3.7939    5.3220 O.3       1 <0>        -0.3113
     14 C12        -1.6387   -2.8464    6.3282 C.3       1 <0>         0.1488
     15 C13        -1.1951   -3.3510    7.6771 C.2       1 <0>         0.2560
     16 N1         -1.9214   -4.1179    8.4980 N.2       1 <0>        -0.5306
     17 C14        -1.2460   -4.3769    9.5832 C.2       1 <0>         0.2978
     18 O3         -0.0530   -3.7764    9.4879 O.3       1 <0>        -0.0960
     19 N2         -0.0402   -3.1164    8.2308 N.2       1 <0>        -0.3163
     20 C15        -1.7256   -5.2089   10.7445 C.3       1 <0>        -0.0029
     21 C16        -1.7332   -4.3557   12.0145 C.3       1 <0>        -0.1169
     22 C17        -2.2201   -5.2004   13.1935 C.3       1 <0>        -0.1167
     23 C18        -1.2832   -6.3944   13.3869 C.3       1 <0>        -0.1248
     24 C19        -1.2756   -7.2477   12.1169 C.3       1 <0>        -0.1167
     25 C20        -0.7887   -6.4029   10.9379 C.3       1 <0>        -0.1177
     26 C21        -1.8128   -1.5263   -2.1016 C.2       1 <0>         0.4767
     27 O4         -1.8975   -2.4735   -2.8645 O.co2     1 <0>        -0.7007
     28 O5         -1.9820   -0.3924   -2.5164 O.co2     1 <0>        -0.6789
     29 H1          1.0039    1.9031    0.0027 H         1 <0>         0.0555
     30 H2         -0.5459    1.8868   -0.8726 H         1 <0>         0.0676
     31 H3         -0.5289    1.8773    0.9072 H         1 <0>         0.0532
     32 H4          0.5123   -0.3556   -0.8948 H         1 <0>         0.0523
     33 H5          0.7568   -1.6008    1.2356 H         1 <0>         0.0508
     34 H6          1.7647   -0.1336    1.2338 H         1 <0>         0.0541
     35 H7          0.2319   -0.1594    2.1383 H         1 <0>         0.0557
     36 H8         -0.5769   -2.3321   -0.5597 H         1 <0>         0.0488
     37 H9         -3.5477   -1.9193   -0.0003 H         1 <0>         0.0740
     38 H10        -2.8264   -3.4509   -0.5500 H         1 <0>         0.0873
     39 H11        -1.3695   -4.7327    0.9094 H         1 <0>         0.1303
     40 H12        -0.7694   -5.2884    3.2310 H         1 <0>         0.1258
     41 H13        -2.5181   -1.6197    4.5532 H         1 <0>         0.1228
     42 H14        -3.1064   -1.0671    2.2278 H         1 <0>         0.1284
     43 H15        -1.1549   -1.8920    6.1202 H         1 <0>         0.0952
     44 H16        -2.7206   -2.7129    6.3280 H         1 <0>         0.1014
     45 H17        -2.7347   -5.5680   10.5420 H         1 <0>         0.1208
     46 H18        -0.7241   -3.9967   12.2170 H         1 <0>         0.0755
     47 H19        -2.4007   -3.5051   11.8767 H         1 <0>         0.0723
     48 H20        -2.2255   -4.5925   14.0983 H         1 <0>         0.0708
     49 H21        -3.2292   -5.5594   12.9910 H         1 <0>         0.0684
     50 H22        -0.2741   -6.0354   13.5894 H         1 <0>         0.0654
     51 H23        -1.6301   -6.9962   14.2269 H         1 <0>         0.0667
     52 H24        -0.6081   -8.0983   12.2547 H         1 <0>         0.0712
     53 H25        -2.2847   -7.6067   11.9144 H         1 <0>         0.0684
     54 H26        -0.7833   -7.0108   10.0331 H         1 <0>         0.0731
     55 H27         0.2204   -6.0439   11.1403 H         1 <0>         0.0756
@<TRIPOS>BOND
     1    1    2 1
     2    1   29 1
     3    1   30 1
     4    1   31 1
     5    2    3 1
     6    2    4 1
     7    2   32 1
     8    3   33 1
     9    3   34 1
    10    3   35 1
    11    4    5 1
    12    5    6 1
    13    5   26 1
    14    5   36 1
    15    6    7 1
    16    6   37 1
    17    6   38 1
    18    7   12 ar
    19    7    8 ar
    20    8    9 ar
    21    8   39 1
    22    9   10 ar
    23    9   40 1
    24   10   11 ar
    25   10   13 1
    26   11   12 ar
    27   11   41 1
    28   12   42 1
    29   13   14 1
    30   14   15 1
    31   14   43 1
    32   14   44 1
    33   15   19 2
    34   15   16 1
    35   16   17 2
    36   17   18 1
    37   17   20 1
    38   18   19 1
    39   20   25 1
    40   20   21 1
    41   20   45 1
    42   21   22 1
    43   21   46 1
    44   21   47 1
    45   22   23 1
    46   22   48 1
    47   22   49 1
    48   23   24 1
    49   23   50 1
    50   23   51 1
    51   24   25 1
    52   24   52 1
    53   24   53 1
    54   25   54 1
    55   25   55 1
    56   26   27 2
    57   26   28 1
@<TRIPOS>MOLECULE
CHEMBL23874
   58    59     0     0     0
SMALL
USER_CHARGES

@<TRIPOS>ATOM
      1 C1         -0.2350    1.5325    0.0990 C.3       1 <0>        -0.1509
      2 C2         -0.2151    0.0027    0.0971 C.3       1 <0>        -0.1144
      3 C3          0.6074   -0.4951   -1.0932 C.3       1 <0>        -0.0634
      4 C4          0.6270   -2.0020   -1.0951 C.ar      1 <0>        -0.1484
      5 C5          1.6237   -2.6833   -0.4115 C.ar      1 <0>         0.1704
      6 C6          1.6472   -4.0731   -0.4090 C.ar      1 <0>        -0.2185
      7 C7          0.6806   -4.7841   -1.0856 C.ar      1 <0>        -0.0374
      8 C8         -0.3272   -4.1077   -1.7770 C.ar      1 <0>        -0.1193
      9 C9         -0.3523   -2.7054   -1.7740 C.ar      1 <0>         0.1856
     10 O1         -1.3313   -2.0403   -2.4391 O.3       1 <0>        -0.4693
     11 C10        -1.3628   -4.8645   -2.5023 C.2       1 <0>         0.1761
     12 N1         -2.2957   -4.2349   -3.1423 N.2       1 <0>        -0.3155
     13 O2         -3.2252   -4.9567   -3.9298 O.3       1 <0>        -0.4150
     14 C11        -1.3360   -6.3712   -2.4993 C.3       1 <0>        -0.1168
     15 C12        -0.5065   -6.8690   -3.6846 C.3       1 <0>        -0.1421
     16 O3          2.5805   -1.9896    0.2576 O.3       1 <0>        -0.3026
     17 C13         3.5772   -2.7527    0.9404 C.3       1 <0>         0.0624
     18 C14         4.5608   -1.8055    1.6305 C.3       1 <0>        -0.1003
     19 C15         5.6279   -2.6226    2.3616 C.3       1 <0>        -0.1166
     20 S1          6.7942   -1.4996    3.1798 S.3       1 <0>        -0.0920
     21 C16         7.9444   -2.5783    3.9660 C.ar      1 <0>        -0.1052
     22 C17         7.8014   -3.9552    3.8468 C.ar      1 <0>        -0.1174
     23 C18         8.7049   -4.7977    4.4639 C.ar      1 <0>        -0.0944
     24 C19         9.7514   -4.2730    5.2004 C.ar      1 <0>        -0.0045
     25 C20         9.8973   -2.9032    5.3221 C.ar      1 <0>        -0.0905
     26 C21         9.0007   -2.0537    4.7024 C.ar      1 <0>        -0.0097
     27 Cl1         9.1889   -0.3341    4.8490 Cl        1 <0>        -0.0682
     28 C22        10.7347   -5.1962    5.8725 C.3       1 <0>        -0.1609
     29 C23        11.8747   -5.4875    4.9308 C.2       1 <0>         0.4972
     30 O4         11.8875   -4.9913    3.8172 O.co2     1 <0>        -0.6855
     31 O5         12.7842   -6.2193    5.2826 O.co2     1 <0>        -0.6982
     32 H1          0.7848    1.9091    0.1792 H         1 <0>         0.0546
     33 H2         -0.6830    1.8913   -0.8276 H         1 <0>         0.0526
     34 H3         -0.8210    1.8872    0.9470 H         1 <0>         0.0531
     35 H4          0.2329   -0.3561    1.0237 H         1 <0>         0.0614
     36 H5         -1.2348   -0.3739    0.0169 H         1 <0>         0.0623
     37 H6          0.1594   -0.1364   -2.0198 H         1 <0>         0.0705
     38 H7          1.6272   -0.1186   -1.0130 H         1 <0>         0.0766
     39 H8          2.4260   -4.5973    0.1249 H         1 <0>         0.1381
     40 H9          0.7022   -5.8639   -1.0818 H         1 <0>         0.1375
     41 H10        -1.1151   -1.8405   -3.3602 H         1 <0>         0.3905
     42 H11        -3.8836   -4.4012   -4.3691 H         1 <0>         0.4018
     43 H12        -0.8899   -6.7248   -1.5697 H         1 <0>         0.0814
     44 H13        -2.3536   -6.7529   -2.5821 H         1 <0>         0.0831
     45 H14        -0.5594   -7.9566   -3.7339 H         1 <0>         0.0633
     46 H15        -0.9004   -6.4438   -4.6078 H         1 <0>         0.0569
     47 H16         0.5312   -6.5611   -3.5567 H         1 <0>         0.0589
     48 H17         3.1003   -3.3881    1.6867 H         1 <0>         0.0689
     49 H18         4.1135   -3.3742    0.2234 H         1 <0>         0.0696
     50 H19         5.0377   -1.1701    0.8842 H         1 <0>         0.0866
     51 H20         4.0244   -1.1840    2.3476 H         1 <0>         0.0860
     52 H21         5.1511   -3.2580    3.1079 H         1 <0>         0.0899
     53 H22         6.1643   -3.2441    1.6446 H         1 <0>         0.0913
     54 H23         6.9843   -4.3661    3.2725 H         1 <0>         0.1240
     55 H24         8.5941   -5.8681    4.3714 H         1 <0>         0.1259
     56 H25        10.7154   -2.4969    5.8983 H         1 <0>         0.1323
     57 H26        11.1208   -4.7215    6.7745 H         1 <0>         0.0740
     58 H27        10.2354   -6.1281    6.1376 H         1 <0>         0.0743
@<TRIPOS>BOND
     1    1    2 1
     2    1   32 1
     3    1   33 1
     4    1   34 1
     5    2    3 1
     6    2   35 1
     7    2   36 1
     8    3    4 1
     9    3   37 1
    10    3   38 1
    11    4    9 ar
    12    4    5 ar
    13    5    6 ar
    14    5   16 1
    15    6    7 ar
    16    6   39 1
    17    7    8 ar
    18    7   40 1
    19    8    9 ar
    20    8   11 1
    21    9   10 1
    22   10   41 1
    23   11   12 2
    24   11   14 1
    25   12   13 1
    26   13   42 1
    27   14   15 1
    28   14   43 1
    29   14   44 1
    30   15   45 1
    31   15   46 1
    32   15   47 1
    33   16   17 1
    34   17   18 1
    35   17   48 1
    36   17   49 1
    37   18   19 1
    38   18   50 1
    39   18   51 1
    40   19   20 1
    41   19   52 1
    42   19   53 1
    43   20   21 1
    44   21   26 ar
    45   21   22 ar
    46   22   23 ar
    47   22   54 1
    48   23   24 ar
    49   23   55 1
    50   24   25 ar
    51   24   28 1
    52   25   26 ar
    53   25   56 1
    54   26   27 1
    55   28   29 1
    56   28   57 1
    57   28   58 1
    58   29   30 2
    59   29   31 1
@<TRIPOS>MOLECULE
CHEMBL411045
   52    54     0     0     0
SMALL
USER_CHARGES

@<TRIPOS>ATOM
      1 C1          0.2753    1.1890   -0.1587 C.3       1 <0>        -0.0962
      2 C2          0.1609   -0.3095   -0.0466 C.ar      1 <0>        -0.1231
      3 C3          0.2118   -1.0926   -1.1830 C.ar      1 <0>        -0.0694
      4 C4          0.1063   -2.4737   -1.0794 C.ar      1 <0>        -0.1334
      5 C5         -0.0504   -3.0658    0.1677 C.ar      1 <0>        -0.1070
      6 C6         -0.1011   -2.2810    1.3025 C.ar      1 <0>        -0.1355
      7 C7          0.0101   -0.9020    1.1983 C.ar      1 <0>         0.1735
      8 O1         -0.0339   -0.1302    2.3173 O.3       1 <0>        -0.2966
      9 C8         -0.0637   -0.8104    3.5737 C.3       1 <0>         0.0288
     10 C9          1.1832   -1.6868    3.7089 C.3       1 <0>        -0.1735
     11 C10        -0.0914    0.2155    4.7085 C.3       1 <0>        -0.1148
     12 C11        -1.2958   -1.6749    3.6479 C.2       1 <0>         0.4810
     13 O2         -2.0761   -1.7058    2.7116 O.co2     1 <0>        -0.6689
     14 O3         -1.5123   -2.3435    4.6442 O.co2     1 <0>        -0.6847
     15 S1          0.1706   -3.4741   -2.5285 S.3       1 <0>        -0.1201
     16 C12        -0.0049   -5.1671   -1.9011 C.3       1 <0>        -0.1074
     17 C13         0.0347   -6.1514   -3.0718 C.3       1 <0>        -0.0187
     18 C14        -0.1111   -7.5579   -2.5506 C.2       1 <0>         0.0748
     19 N1         -1.2098   -8.2546   -2.3661 N.2       1 <0>        -0.5091
     20 C15        -1.0904   -9.4825   -1.8942 C.2       1 <0>         0.2880
     21 N2          0.1241   -9.9280   -1.6394 N.2       1 <0>        -0.4647
     22 S2          1.0913   -8.6277   -2.0680 S.3       1 <0>         0.3085
     23 C16        -2.2837  -10.3322   -1.6581 C.ar      1 <0>         0.0075
     24 C17        -3.5575   -9.8425   -1.9395 C.ar      1 <0>        -0.0713
     25 C18        -4.6639  -10.6374   -1.7184 C.ar      1 <0>        -0.0741
     26 C19        -4.5100  -11.9179   -1.2185 C.ar      1 <0>        -0.1677
     27 C20        -3.2478  -12.4091   -0.9374 C.ar      1 <0>        -0.0752
     28 C21        -2.1341  -11.6248   -1.1596 C.ar      1 <0>        -0.0798
     29 C22        -5.7219  -12.7810   -0.9788 C.3       1 <0>         0.5085
     30 F1         -6.0062  -13.5171   -2.1340 F         1 <0>        -0.1757
     31 F2         -5.4680  -13.6572    0.0818 F         1 <0>        -0.1757
     32 F3         -6.8167  -11.9698   -0.6615 F         1 <0>        -0.1743
     33 H1          1.3242    1.4790   -0.0960 H         1 <0>         0.0613
     34 H2         -0.1350    1.5142   -1.1147 H         1 <0>         0.0590
     35 H3         -0.2804    1.6576    0.6535 H         1 <0>         0.0695
     36 H4          0.3333   -0.6313   -2.1520 H         1 <0>         0.1245
     37 H5         -0.1329   -4.1396    0.2495 H         1 <0>         0.1124
     38 H6         -0.2229   -2.7410    2.2720 H         1 <0>         0.1431
     39 H7          2.0591   -1.0533    3.8487 H         1 <0>         0.0519
     40 H8          1.0715   -2.3473    4.5687 H         1 <0>         0.0753
     41 H9          1.3072   -2.2840    2.8056 H         1 <0>         0.0656
     42 H10        -0.9332    0.8931    4.5652 H         1 <0>         0.0573
     43 H11        -0.1989   -0.3007    5.6625 H         1 <0>         0.0785
     44 H12         0.8379    0.7851    4.7062 H         1 <0>         0.0511
     45 H13         0.8123   -5.3865   -1.2141 H         1 <0>         0.0914
     46 H14        -0.9559   -5.2637   -1.3773 H         1 <0>         0.0971
     47 H15        -0.7825   -5.9320   -3.7588 H         1 <0>         0.1144
     48 H16         0.9857   -6.0548   -3.5956 H         1 <0>         0.1096
     49 H17        -3.6789   -8.8427   -2.3295 H         1 <0>         0.1512
     50 H18        -5.6518  -10.2588   -1.9358 H         1 <0>         0.1444
     51 H19        -3.1334  -13.4095   -0.5469 H         1 <0>         0.1431
     52 H20        -1.1488  -12.0108   -0.9440 H         1 <0>         0.1457
@<TRIPOS>BOND
     1    1    2 1
     2    1   33 1
     3    1   34 1
     4    1   35 1
     5    2    7 ar
     6    2    3 ar
     7    3    4 ar
     8    3   36 1
     9    4    5 ar
    10    4   15 1
    11    5    6 ar
    12    5   37 1
    13    6    7 ar
    14    6   38 1
    15    7    8 1
    16    8    9 1
    17    9   10 1
    18    9   11 1
    19    9   12 1
    20   10   39 1
    21   10   40 1
    22   10   41 1
    23   11   42 1
    24   11   43 1
    25   11   44 1
    26   12   13 2
    27   12   14 1
    28   15   16 1
    29   16   17 1
    30   16   45 1
    31   16   46 1
    32   17   18 1
    33   17   47 1
    34   17   48 1
    35   18   22 1
    36   18   19 2
    37   19   20 1
    38   20   21 2
    39   20   23 1
    40   21   22 1
    41   23   28 ar
    42   23   24 ar
    43   24   25 ar
    44   24   49 1
    45   25   26 ar
    46   25   50 1
    47   26   27 ar
    48   26   29 1
    49   27   28 ar
    50   27   51 1
    51   28   52 1
    52   29   30 1
    53   29   31 1
    54   29   32 1
@<TRIPOS>MOLECULE
CHEMBL563351
   61    63     0     0     0
SMALL
USER_CHARGES

@<TRIPOS>ATOM
      1 C1         -0.2484    1.6369   -0.3259 C.3       1 <0>        -0.1498
      2 C2         -0.2076    0.1113   -0.2175 C.3       1 <0>        -0.1242
      3 C3          0.5853   -0.4626   -1.3935 C.3       1 <0>        -0.1230
      4 C4          0.6260   -1.9882   -1.2851 C.3       1 <0>        -0.0814
      5 C5          1.4189   -2.5620   -2.4611 C.3       1 <0>        -0.1359
      6 C6          1.3557   -4.0672   -2.4227 C.2       1 <0>         0.5024
      7 O1          0.9717   -4.6863   -3.4004 O.co2     1 <0>        -0.6861
      8 O2          1.6886   -4.6658   -1.4141 O.co2     1 <0>        -0.6732
      9 S1          3.1480   -2.0262   -2.3434 S.3       1 <0>        -0.1147
     10 C7          3.8498   -2.5094   -3.8857 C.ar      1 <0>        -0.1051
     11 C8          3.0363   -3.0159   -4.8914 C.ar      1 <0>        -0.0734
     12 C9          3.5874   -3.3943   -6.0997 C.ar      1 <0>        -0.1282
     13 C10         4.9528   -3.2688   -6.3094 C.ar      1 <0>         0.1092
     14 C11         5.7661   -2.7631   -5.3059 C.ar      1 <0>        -0.1974
     15 C12         5.2163   -2.3787   -4.0989 C.ar      1 <0>        -0.0705
     16 O3          5.4946   -3.6422   -7.4996 O.3       1 <0>        -0.3140
     17 C13         6.9074   -3.4857   -7.6470 C.3       1 <0>         0.0653
     18 C14         7.3299   -3.9548   -9.0406 C.3       1 <0>        -0.1195
     19 C15         8.8425   -3.7872   -9.1983 C.3       1 <0>         0.0637
     20 O4          9.2371   -4.2254  -10.5000 O.3       1 <0>        -0.3100
     21 C16        10.5587   -4.1426  -10.8044 C.ar      1 <0>         0.1377
     22 C17        11.4568   -3.6544   -9.8649 C.ar      1 <0>        -0.2064
     23 C18        12.7987   -3.5692  -10.1709 C.ar      1 <0>        -0.0670
     24 C19        13.2532   -3.9743  -11.4247 C.ar      1 <0>        -0.0898
     25 C20        12.3494   -4.4645  -12.3657 C.ar      1 <0>        -0.0689
     26 C21        11.0092   -4.5518  -12.0522 C.ar      1 <0>        -0.1493
     27 C22        14.6962   -3.8835  -11.7572 C.ar      1 <0>        -0.0342
     28 C23        15.6017   -3.3986  -10.8155 C.ar      1 <0>        -0.1166
     29 C24        16.9431   -3.3167  -11.1300 C.ar      1 <0>        -0.1157
     30 C25        17.3891   -3.7145  -12.3775 C.ar      1 <0>        -0.1247
     31 C26        16.4946   -4.1961  -13.3163 C.ar      1 <0>        -0.1159
     32 C27        15.1519   -4.2882  -13.0104 C.ar      1 <0>        -0.1165
     33 H1          0.7681    2.0299   -0.3050 H         1 <0>         0.0526
     34 H2         -0.7290    1.9219   -1.2617 H         1 <0>         0.0512
     35 H3         -0.8132    2.0457    0.5119 H         1 <0>         0.0488
     36 H4          0.2730   -0.1738    0.7184 H         1 <0>         0.0605
     37 H5         -1.2241   -0.2817   -0.2383 H         1 <0>         0.0588
     38 H6          0.1046   -0.1775   -2.3293 H         1 <0>         0.0578
     39 H7          1.6017   -0.0695   -1.3726 H         1 <0>         0.0693
     40 H8          1.1066   -2.2732   -0.3492 H         1 <0>         0.0735
     41 H9         -0.3905   -2.3812   -1.3059 H         1 <0>         0.0697
     42 H10         0.9905   -2.2041   -3.3973 H         1 <0>         0.0812
     43 H11         1.9732   -3.1141   -4.7282 H         1 <0>         0.1497
     44 H12         2.9552   -3.7885   -6.8815 H         1 <0>         0.1301
     45 H13         6.8292   -2.6661   -5.4702 H         1 <0>         0.1247
     46 H14         5.8491   -1.9809   -3.3193 H         1 <0>         0.1251
     47 H15         7.1716   -2.4357   -7.5214 H         1 <0>         0.0631
     48 H16         7.4197   -4.0820   -6.8920 H         1 <0>         0.0639
     49 H17         7.0657   -5.0048   -9.1662 H         1 <0>         0.0871
     50 H18         6.8176   -3.3584   -9.7956 H         1 <0>         0.0863
     51 H19         9.1068   -2.7372   -9.0728 H         1 <0>         0.0675
     52 H20         9.3548   -4.3836   -8.4434 H         1 <0>         0.0680
     53 H21        11.1040   -3.3407   -8.8935 H         1 <0>         0.1318
     54 H22        13.4968   -3.1887   -9.4399 H         1 <0>         0.1285
     55 H23        12.6986   -4.7787  -13.3381 H         1 <0>         0.1324
     56 H24        10.3089   -4.9350  -12.7796 H         1 <0>         0.1345
     57 H25        15.2545   -3.0871   -9.8414 H         1 <0>         0.1244
     58 H26        17.6457   -2.9411  -10.4009 H         1 <0>         0.1233
     59 H27        18.4395   -3.6484  -12.6196 H         1 <0>         0.1214
     60 H28        16.8482   -4.5046  -14.2891 H         1 <0>         0.1233
     61 H29        14.4551   -4.6689  -13.7425 H         1 <0>         0.1249
@<TRIPOS>BOND
     1    1    2 1
     2    1   33 1
     3    1   34 1
     4    1   35 1
     5    2    3 1
     6    2   36 1
     7    2   37 1
     8    3    4 1
     9    3   38 1
    10    3   39 1
    11    4    5 1
    12    4   40 1
    13    4   41 1
    14    5    6 1
    15    5    9 1
    16    5   42 1
    17    6    7 2
    18    6    8 1
    19    9   10 1
    20   10   15 ar
    21   10   11 ar
    22   11   12 ar
    23   11   43 1
    24   12   13 ar
    25   12   44 1
    26   13   14 ar
    27   13   16 1
    28   14   15 ar
    29   14   45 1
    30   15   46 1
    31   16   17 1
    32   17   18 1
    33   17   47 1
    34   17   48 1
    35   18   19 1
    36   18   49 1
    37   18   50 1
    38   19   20 1
    39   19   51 1
    40   19   52 1
    41   20   21 1
    42   21   26 ar
    43   21   22 ar
    44   22   23 ar
    45   22   53 1
    46   23   24 ar
    47   23   54 1
    48   24   25 ar
    49   24   27 1
    50   25   26 ar
    51   25   55 1
    52   26   56 1
    53   27   32 ar
    54   27   28 ar
    55   28   29 ar
    56   28   57 1
    57   29   30 ar
    58   29   58 1
    59   30   31 ar
    60   30   59 1
    61   31   32 ar
    62   31   60 1
    63   32   61 1
@<TRIPOS>MOLECULE
CHEMBL563351__1
   61    63     0     0     0
SMALL
USER_CHARGES

@<TRIPOS>ATOM
      1 C1         -0.0187    1.5258    0.0104 C.3       1 <0>        -0.1499
      2 C2          0.0021   -0.0041    0.0020 C.3       1 <0>        -0.1245
      3 C3          0.7182   -0.4975   -1.2568 C.3       1 <0>        -0.1214
      4 C4          0.7390   -2.0273   -1.2652 C.3       1 <0>        -0.0829
      5 C5          1.4551   -2.5207   -2.5240 C.3       1 <0>        -0.1390
      6 C6          1.5842   -4.0213   -2.4729 C.2       1 <0>         0.4965
      7 O1          0.7531   -4.7237   -3.0229 O.co2     1 <0>        -0.6649
      8 O2          2.5197   -4.5330   -1.8817 O.co2     1 <0>        -0.6897
      9 S1          0.4978   -2.0457   -3.9898 S.3       1 <0>        -0.1066
     10 C7          1.5114   -2.5460   -5.3414 C.ar      1 <0>        -0.0879
     11 C8          2.7354   -3.1582   -5.1031 C.ar      1 <0>        -0.0798
     12 C9          3.5290   -3.5498   -6.1632 C.ar      1 <0>        -0.1265
     13 C10         3.1043   -3.3320   -7.4656 C.ar      1 <0>         0.1052
     14 C11         1.8823   -2.7208   -7.7048 C.ar      1 <0>        -0.1931
     15 C12         1.0845   -2.3336   -6.6463 C.ar      1 <0>        -0.0744
     16 O3          3.8869   -3.7177   -8.5089 O.3       1 <0>        -0.3144
     17 C13         3.3877   -3.4627   -9.8234 C.3       1 <0>         0.0655
     18 C14         4.3979   -3.9619  -10.8584 C.3       1 <0>        -0.1196
     19 C15         3.8634   -3.6889  -12.2657 C.3       1 <0>         0.0638
     20 O4          4.8069   -4.1552  -13.2324 O.3       1 <0>        -0.3100
     21 C16         4.4830   -3.9877  -14.5412 C.ar      1 <0>         0.1378
     22 C17         3.2827   -3.3808  -14.8857 C.ar      1 <0>        -0.2065
     23 C18         2.9513   -3.2094  -16.2133 C.ar      1 <0>        -0.0670
     24 C19         3.8228   -3.6457  -17.2097 C.ar      1 <0>        -0.0899
     25 C20         5.0272   -4.2541  -16.8608 C.ar      1 <0>        -0.0688
     26 C21         5.3555   -4.4184  -15.5315 C.ar      1 <0>        -0.1494
     27 C22         3.4689   -3.4632  -18.6388 C.ar      1 <0>        -0.0341
     28 C23         2.2674   -2.8502  -18.9890 C.ar      1 <0>        -0.1166
     29 C24         1.9434   -2.6826  -20.3201 C.ar      1 <0>        -0.1157
     30 C25         2.8086   -3.1221  -21.3058 C.ar      1 <0>        -0.1248
     31 C26         4.0024   -3.7316  -20.9639 C.ar      1 <0>        -0.1159
     32 C27         4.3393   -3.8989  -19.6360 C.ar      1 <0>        -0.1165
     33 H1          1.0039    1.9031    0.0027 H         1 <0>         0.0516
     34 H2         -0.5459    1.8868   -0.8726 H         1 <0>         0.0526
     35 H3         -0.5289    1.8773    0.9072 H         1 <0>         0.0490
     36 H4          0.5293   -0.3651    0.8851 H         1 <0>         0.0595
     37 H5         -1.0205   -0.3814    0.0098 H         1 <0>         0.0600
     38 H6          0.1910   -0.1364   -2.1398 H         1 <0>         0.0686
     39 H7          1.7408   -0.1202   -1.2645 H         1 <0>         0.0595
     40 H8          1.2661   -2.3884   -0.3821 H         1 <0>         0.0753
     41 H9         -0.2836   -2.4046   -1.2575 H         1 <0>         0.0669
     42 H10         2.4472   -2.0723   -2.5770 H         1 <0>         0.0813
     43 H11         3.0664   -3.3275   -4.0891 H         1 <0>         0.1379
     44 H12         4.4808   -4.0254   -5.9781 H         1 <0>         0.1292
     45 H13         1.5529   -2.5514   -8.7193 H         1 <0>         0.1245
     46 H14         0.1311   -1.8617   -6.8327 H         1 <0>         0.1251
     47 H15         2.4402   -3.9840   -9.9597 H         1 <0>         0.0638
     48 H16         3.2348   -2.3912   -9.9524 H         1 <0>         0.0629
     49 H17         5.3454   -3.4407  -10.7221 H         1 <0>         0.0862
     50 H18         4.5508   -5.0334  -10.7293 H         1 <0>         0.0870
     51 H19         2.9159   -4.2102  -12.4020 H         1 <0>         0.0680
     52 H20         3.7104   -2.6174  -12.3947 H         1 <0>         0.0675
     53 H21         2.6078   -3.0430  -14.1132 H         1 <0>         0.1318
     54 H22         2.0171   -2.7380  -16.4807 H         1 <0>         0.1284
     55 H23         5.7044   -4.5934  -17.6307 H         1 <0>         0.1323
     56 H24         6.2903   -4.8864  -15.2605 H         1 <0>         0.1344
     57 H25         1.5908   -2.5073  -18.2202 H         1 <0>         0.1244
     58 H26         1.0125   -2.2077  -20.5926 H         1 <0>         0.1233
     59 H27         2.5510   -2.9893  -22.3461 H         1 <0>         0.1214
     60 H28         4.6739   -4.0736  -21.7376 H         1 <0>         0.1232
     61 H29         5.2738   -4.3705  -19.3702 H         1 <0>         0.1249
@<TRIPOS>BOND
     1    1    2 1
     2    1   33 1
     3    1   34 1
     4    1   35 1
     5    2    3 1
     6    2   36 1
     7    2   37 1
     8    3    4 1
     9    3   38 1
    10    3   39 1
    11    4    5 1
    12    4   40 1
    13    4   41 1
    14    5    6 1
    15    5    9 1
    16    5   42 1
    17    6    7 2
    18    6    8 1
    19    9   10 1
    20   10   15 ar
    21   10   11 ar
    22   11   12 ar
    23   11   43 1
    24   12   13 ar
    25   12   44 1
    26   13   14 ar
    27   13   16 1
    28   14   15 ar
    29   14   45 1
    30   15   46 1
    31   16   17 1
    32   17   18 1
    33   17   47 1
    34   17   48 1
    35   18   19 1
    36   18   49 1
    37   18   50 1
    38   19   20 1
    39   19   51 1
    40   19   52 1
    41   20   21 1
    42   21   26 ar
    43   21   22 ar
    44   22   23 ar
    45   22   53 1
    46   23   24 ar
    47   23   54 1
    48   24   25 ar
    49   24   27 1
    50   25   26 ar
    51   25   55 1
    52   26   56 1
    53   27   32 ar
    54   27   28 ar
    55   28   29 ar
    56   28   57 1
    57   29   30 ar
    58   29   58 1
    59   30   31 ar
    60   30   59 1
    61   31   32 ar
    62   31   60 1
    63   32   61 1
@<TRIPOS>MOLECULE
CHEMBL490029
   61    64     0     0     0
SMALL
USER_CHARGES

@<TRIPOS>ATOM
      1 C1         -0.7486   -2.4980   -2.0616 C.3       1 <0>        -0.1482
      2 C2         -0.3257   -1.0642   -2.3874 C.3       1 <0>        -0.1028
      3 C3         -1.5628   -0.1651   -2.4318 C.3       1 <0>         0.0129
      4 H1         -2.2854   -0.5759   -3.1369 H         1 <0>         0.0634
      5 C4         -1.1622    1.2193   -2.8723 C.2       1 <0>         0.4782
      6 O1         -0.7228    1.3983   -3.9955 O.co2     1 <0>        -0.6873
      7 O2         -1.2775    2.1602   -2.1057 O.co2     1 <0>        -0.6720
      8 O3         -2.1509   -0.0995   -1.1310 O.3       1 <0>        -0.2861
      9 C5         -3.4731    0.2080   -1.0665 C.ar      1 <0>         0.1813
     10 C6         -4.1336    0.1808    0.1540 C.ar      1 <0>        -0.1523
     11 C7         -5.4779    0.4931    0.2212 C.ar      1 <0>        -0.0705
     12 C8         -6.1688    0.8335   -0.9259 C.ar      1 <0>        -0.1631
     13 C9         -5.5130    0.8625   -2.1498 C.ar      1 <0>         0.1417
     14 C10        -4.1614    0.5545   -2.2183 C.ar      1 <0>        -0.1892
     15 N1         -6.2133    1.2075   -3.3124 N.pl3     1 <0>        -0.4131
     16 C11        -6.4456    0.3696   -4.3539 C.2       1 <0>         0.1500
     17 C12        -7.1543    1.0224   -5.3214 C.2       1 <0>        -0.2457
     18 C13        -7.3777    2.3935   -4.8240 C.ar      1 <0>        -0.0795
     19 C14        -6.7707    2.4479   -3.5589 C.ar      1 <0>         0.1360
     20 C15        -6.8199    3.6292   -2.8281 C.ar      1 <0>        -0.1161
     21 C16        -7.4665    4.7354   -3.3488 C.ar      1 <0>         0.1171
     22 C17        -8.0703    4.6761   -4.6010 C.ar      1 <0>        -0.2023
     23 C18        -8.0216    3.5147   -5.3404 C.ar      1 <0>        -0.0349
     24 O4         -7.5129    5.8892   -2.6316 O.3       1 <0>        -0.3073
     25 C19        -8.1959    6.9951   -3.2253 C.3       1 <0>         0.6052
     26 F1         -9.5297    6.6464   -3.4631 F         1 <0>        -0.1663
     27 F2         -8.1481    8.0924   -2.3588 F         1 <0>        -0.1332
     28 F3         -7.5784    7.3293   -4.4354 F         1 <0>        -0.1638
     29 C20        -7.6046    0.4692   -6.6044 C.2       1 <0>         0.4845
     30 O5         -6.8584    0.4770   -7.5661 O.2       1 <0>        -0.4426
     31 C21        -8.9627   -0.0967   -6.7284 C.ar      1 <0>        -0.1958
     32 C22        -9.7771   -0.2177   -5.5991 C.ar      1 <0>        -0.0190
     33 C23       -11.0432   -0.7455   -5.7191 C.ar      1 <0>        -0.1659
     34 C24       -11.5117   -1.1577   -6.9613 C.ar      1 <0>         0.1566
     35 C25       -10.7048   -1.0390   -8.0870 C.ar      1 <0>        -0.2242
     36 C26        -9.4394   -0.5073   -7.9764 C.ar      1 <0>        -0.0199
     37 O6        -12.7600   -1.6778   -7.0753 O.3       1 <0>        -0.3140
     38 C27       -13.1780   -2.0813   -8.3809 C.3       1 <0>         0.0247
     39 C28        -5.9900   -1.0647   -4.4315 C.3       1 <0>        -0.1069
     40 H2          0.1327   -3.1385   -2.0300 H         1 <0>         0.0519
     41 H3         -1.2476   -2.5184   -1.0927 H         1 <0>         0.0558
     42 H4         -1.4325   -2.8586   -2.8301 H         1 <0>         0.0485
     43 H5          0.3581   -0.7036   -1.6190 H         1 <0>         0.0681
     44 H6          0.1732   -1.0438   -3.3563 H         1 <0>         0.0855
     45 H7         -3.5963   -0.0853    1.0523 H         1 <0>         0.1338
     46 H8         -5.9896    0.4708    1.1720 H         1 <0>         0.1341
     47 H9         -7.2196    1.0769   -0.8708 H         1 <0>         0.1254
     48 H10        -3.6480    0.5806   -3.1682 H         1 <0>         0.1361
     49 H11        -6.3543    3.6831   -1.8551 H         1 <0>         0.1411
     50 H12        -8.5731    5.5457   -4.9976 H         1 <0>         0.1355
     51 H13        -8.4920    3.4703   -6.3116 H         1 <0>         0.1331
     52 H14        -9.4138    0.1020   -4.6336 H         1 <0>         0.1393
     53 H15       -11.6731   -0.8397   -4.8469 H         1 <0>         0.1363
     54 H16       -11.0724   -1.3604   -9.0503 H         1 <0>         0.1335
     55 H17        -8.8146   -0.4116   -8.8521 H         1 <0>         0.1371
     56 H18       -13.1565   -1.2219   -9.0510 H         1 <0>         0.0582
     57 H19       -12.5043   -2.8517   -8.7561 H         1 <0>         0.0583
     58 H20       -14.1920   -2.4781   -8.3313 H         1 <0>         0.1014
     59 H21        -6.7583   -1.7133   -4.0107 H         1 <0>         0.0873
     60 H22        -5.8167   -1.3351   -5.4731 H         1 <0>         0.0887
     61 H23        -5.0652   -1.1832   -3.8668 H         1 <0>         0.0813
@<TRIPOS>BOND
     1    1    2 1
     2    1   40 1
     3    1   41 1
     4    1   42 1
     5    2    3 1
     6    2   43 1
     7    2   44 1
     8    3    4 1
     9    3    5 1
    10    3    8 1
    11    5    6 2
    12    5    7 1
    13    8    9 1
    14    9   14 ar
    15    9   10 ar
    16   10   11 ar
    17   10   45 1
    18   11   12 ar
    19   11   46 1
    20   12   13 ar
    21   12   47 1
    22   13   14 ar
    23   13   15 1
    24   14   48 1
    25   15   19 1
    26   15   16 1
    27   16   17 2
    28   16   39 1
    29   17   18 1
    30   17   29 1
    31   18   23 ar
    32   18   19 ar
    33   19   20 ar
    34   20   21 ar
    35   20   49 1
    36   21   22 ar
    37   21   24 1
    38   22   23 ar
    39   22   50 1
    40   23   51 1
    41   24   25 1
    42   25   26 1
    43   25   27 1
    44   25   28 1
    45   29   30 2
    46   29   31 1
    47   31   36 ar
    48   31   32 ar
    49   32   33 ar
    50   32   52 1
    51   33   34 ar
    52   33   53 1
    53   34   35 ar
    54   34   37 1
    55   35   36 ar
    56   35   54 1
    57   36   55 1
    58   37   38 1
    59   38   56 1
    60   38   57 1
    61   38   58 1
    62   39   59 1
    63   39   60 1
    64   39   61 1
@<TRIPOS>MOLECULE
CHEMBL87928
   62    65     0     0     0
SMALL
USER_CHARGES

@<TRIPOS>ATOM
      1 C1         -0.0187    1.5258    0.0104 C.3       1 <0>        -0.1428
      2 C2          0.0021   -0.0041    0.0020 C.3       1 <0>         0.0659
      3 O1          0.6932   -0.4774    1.1597 O.3       1 <0>        -0.3669
      4 C3          0.7699   -1.9016    1.2491 C.3       1 <0>         0.0331
      5 H1          0.7819   -2.3284    0.2462 H         1 <0>         0.0487
      6 C4          2.0499   -2.2981    1.9875 C.3       1 <0>        -0.0609
      7 C5          3.2484   -1.8847    1.1728 C.ar      1 <0>        -0.0962
      8 C6          3.7840   -2.7557    0.2422 C.ar      1 <0>        -0.0824
      9 C7          4.8829   -2.3792   -0.5056 C.ar      1 <0>        -0.1515
     10 C8          5.4488   -1.1259   -0.3223 C.ar      1 <0>         0.1122
     11 C9          4.9092   -0.2536    0.6118 C.ar      1 <0>        -0.2070
     12 C10         3.8070   -0.6328    1.3533 C.ar      1 <0>        -0.0616
     13 O2          6.5301   -0.7534   -1.0564 O.3       1 <0>        -0.3148
     14 C11         7.0601    0.5515   -0.8146 C.3       1 <0>         0.0868
     15 C12         8.2468    0.7862   -1.7134 C.2       1 <0>        -0.1150
     16 C13         8.3717    1.9479   -2.3678 C.2       1 <0>        -0.0448
     17 C14         7.3422    3.0035   -2.2080 C.ar      1 <0>        -0.0505
     18 C15         6.5550    3.3830   -3.2939 C.ar      1 <0>        -0.0998
     19 C16         5.5986    4.3659   -3.1394 C.ar      1 <0>        -0.1169
     20 C17         5.4207    4.9743   -1.9099 C.ar      1 <0>        -0.1147
     21 C18         6.1993    4.6020   -0.8288 C.ar      1 <0>        -0.1169
     22 C19         7.1542    3.6156   -0.9700 C.ar      1 <0>        -0.1102
     23 C20         9.5384    2.1787   -3.2515 C.ar      1 <0>        -0.0334
     24 C21        10.4716    3.1657   -2.9309 C.ar      1 <0>        -0.0967
     25 C22        11.5560    3.3805   -3.7510 C.ar      1 <0>        -0.1005
     26 C23        11.7223    2.6100   -4.9048 C.ar      1 <0>        -0.0177
     27 C24        10.7874    1.6220   -5.2249 C.ar      1 <0>        -0.0952
     28 C25         9.7065    1.4051   -4.4008 C.ar      1 <0>        -0.0989
     29 C26        12.8850    2.8400   -5.7854 C.2       1 <0>         0.0274
     30 C27        13.1611    2.1675   -6.9353 C.2       1 <0>        -0.1925
     31 C28        14.3567    2.7105   -7.4458 C.2       1 <0>        -0.2117
     32 C29        14.7475    3.6772   -6.5922 C.2       1 <0>        -0.0357
     33 O3         13.8536    3.7561   -5.5930 O.3       1 <0>        -0.1714
     34 C30        -0.4267   -2.4228    2.0025 C.2       1 <0>         0.4773
     35 O4         -0.6021   -3.6243    2.1120 O.co2     1 <0>        -0.7002
     36 O5         -1.2193   -1.6429    2.5025 O.co2     1 <0>        -0.6801
     37 H2          1.0039    1.9031    0.0027 H         1 <0>         0.0535
     38 H3         -0.5459    1.8868   -0.8726 H         1 <0>         0.0596
     39 H4         -0.5289    1.8773    0.9072 H         1 <0>         0.0623
     40 H5         -1.0205   -0.3814    0.0098 H         1 <0>         0.0455
     41 H6          0.5123   -0.3556   -0.8948 H         1 <0>         0.0296
     42 H7          2.0796   -1.7996    2.9564 H         1 <0>         0.0731
     43 H8          2.0651   -3.3781    2.1339 H         1 <0>         0.0872
     44 H9          3.3432   -3.7313    0.0999 H         1 <0>         0.1287
     45 H10         5.3014   -3.0602   -1.2319 H         1 <0>         0.1251
     46 H11         5.3479    0.7226    0.7563 H         1 <0>         0.1207
     47 H12         3.3839    0.0475    2.0775 H         1 <0>         0.1259
     48 H13         6.2941    1.2988   -1.0215 H         1 <0>         0.0747
     49 H14         7.3721    0.6297    0.2269 H         1 <0>         0.0725
     50 H15         8.9965    0.0176   -1.8297 H         1 <0>         0.1301
     51 H16         6.6936    2.9091   -4.2544 H         1 <0>         0.1223
     52 H17         4.9882    4.6608   -3.9800 H         1 <0>         0.1239
     53 H18         4.6713    5.7432   -1.7936 H         1 <0>         0.1231
     54 H19         6.0566    5.0809    0.1286 H         1 <0>         0.1251
     55 H20         7.7583    3.3223   -0.1241 H         1 <0>         0.1229
     56 H21        10.3427    3.7613   -2.0393 H         1 <0>         0.1286
     57 H22        12.2778    4.1445   -3.5030 H         1 <0>         0.1293
     58 H23        10.9150    1.0263   -6.1167 H         1 <0>         0.1307
     59 H24         8.9860    0.6388   -4.6459 H         1 <0>         0.1334
     60 H25        12.5769    1.3710   -7.3721 H         1 <0>         0.1512
     61 H26        14.8640    2.4091   -8.3504 H         1 <0>         0.1512
     62 H27        15.6310    4.2897   -6.6964 H         1 <0>         0.2052
@<TRIPOS>BOND
     1    1    2 1
     2    1   37 1
     3    1   38 1
     4    1   39 1
     5    2    3 1
     6    2   40 1
     7    2   41 1
     8    3    4 1
     9    4    5 1
    10    4    6 1
    11    4   34 1
    12    6    7 1
    13    6   42 1
    14    6   43 1
    15    7   12 ar
    16    7    8 ar
    17    8    9 ar
    18    8   44 1
    19    9   10 ar
    20    9   45 1
    21   10   11 ar
    22   10   13 1
    23   11   12 ar
    24   11   46 1
    25   12   47 1
    26   13   14 1
    27   14   15 1
    28   14   48 1
    29   14   49 1
    30   15   16 2
    31   15   50 1
    32   16   17 1
    33   16   23 1
    34   17   22 ar
    35   17   18 ar
    36   18   19 ar
    37   18   51 1
    38   19   20 ar
    39   19   52 1
    40   20   21 ar
    41   20   53 1
    42   21   22 ar
    43   21   54 1
    44   22   55 1
    45   23   28 ar
    46   23   24 ar
    47   24   25 ar
    48   24   56 1
    49   25   26 ar
    50   25   57 1
    51   26   27 ar
    52   26   29 1
    53   27   28 ar
    54   27   58 1
    55   28   59 1
    56   29   33 1
    57   29   30 2
    58   30   31 1
    59   30   60 1
    60   31   32 2
    61   31   61 1
    62   32   33 1
    63   32   62 1
    64   34   35 2
    65   34   36 1
@<TRIPOS>MOLECULE
CHEMBL424939
   61    65     0     0     0
SMALL
USER_CHARGES

@<TRIPOS>ATOM
      1 C1          1.0716    1.5554    0.8251 C.3       1 <0>         0.0236
      2 O1          1.0017    0.1324    0.7146 O.3       1 <0>        -0.3006
      3 C2         -0.2267   -0.4107    0.5010 C.ar      1 <0>         0.0983
      4 C3         -1.3354    0.4080    0.3948 C.ar      1 <0>        -0.1206
      5 C4         -2.5950   -0.1528    0.1755 C.ar      1 <0>        -0.0305
      6 C5         -2.7295   -1.5378    0.0643 C.ar      1 <0>        -0.0745
      7 C6         -1.6196   -2.3492    0.1711 C.ar      1 <0>        -0.1748
      8 C7         -0.3669   -1.7918    0.3834 C.ar      1 <0>         0.1344
      9 O2          0.7248   -2.5951    0.4823 O.3       1 <0>        -0.2942
     10 C8          0.5092   -4.0018    0.3522 C.3       1 <0>         0.0596
     11 C9          1.8436   -4.7373    0.4906 C.3       1 <0>        -0.1187
     12 C10         1.6127   -6.2433    0.3513 C.3       1 <0>         0.0658
     13 O3          2.8591   -6.9303    0.4805 O.3       1 <0>        -0.3150
     14 C11         2.8300   -8.2853    0.3806 C.ar      1 <0>         0.1143
     15 C12         1.6277   -8.9407    0.1570 C.ar      1 <0>        -0.2082
     16 C13         1.6033  -10.3168    0.0563 C.ar      1 <0>        -0.0704
     17 C14         2.7742  -11.0473    0.1780 C.ar      1 <0>        -0.1081
     18 C15         3.9735  -10.3965    0.4010 C.ar      1 <0>        -0.0611
     19 C16         4.0021   -9.0159    0.4962 C.ar      1 <0>        -0.1402
     20 C17         5.0950  -11.4088    0.4959 C.3       1 <0>        -0.0829
     21 C18         4.3971  -12.7629    0.7439 C.3       1 <0>        -0.1019
     22 C19         3.0085  -12.5413    0.1077 C.3       1 <0>        -0.0266
     23 H1          3.0102  -12.8754   -0.9299 H         1 <0>         0.0888
     24 C20         1.9348  -13.2852    0.9043 C.3       1 <0>        -0.1740
     25 C21         2.1018  -14.7700    0.7078 C.2       1 <0>         0.4909
     26 O4          2.9277  -15.1910   -0.0841 O.co2     1 <0>        -0.6953
     27 O5          1.4111  -15.5502    1.3408 O.co2     1 <0>        -0.7083
     28 C22        -3.7836    0.7181    0.0617 C.2       1 <0>         0.2143
     29 N1         -3.8555    2.0296    0.1327 N.2       1 <0>        -0.5042
     30 C23        -5.0184    2.6989    0.0094 C.ar      1 <0>         0.0806
     31 C24        -5.2330    4.0969    0.0660 C.ar      1 <0>        -0.0615
     32 C25        -6.4812    4.6166   -0.0778 C.ar      1 <0>        -0.1114
     33 C26        -7.5890    3.8062   -0.2844 C.ar      1 <0>        -0.0946
     34 C27        -7.4233    2.4351   -0.3467 C.ar      1 <0>        -0.0668
     35 C28        -6.1667    1.8998   -0.2027 C.ar      1 <0>        -0.1435
     36 S1         -5.4884    0.2580   -0.2152 S.3       1 <0>        -0.0015
     37 H2          2.1056    1.8563    0.9939 H         1 <0>         0.1036
     38 H3          0.7068    2.0097   -0.0960 H         1 <0>         0.0569
     39 H4          0.4559    1.8855    1.6618 H         1 <0>         0.0570
     40 H5         -1.2276    1.4791    0.4817 H         1 <0>         0.1498
     41 H6         -3.7029   -1.9739   -0.1050 H         1 <0>         0.1350
     42 H7         -1.7251   -3.4206    0.0850 H         1 <0>         0.1478
     43 H8         -0.1738   -4.3383    1.1322 H         1 <0>         0.0704
     44 H9          0.0770   -4.2141   -0.6257 H         1 <0>         0.0703
     45 H10         2.5266   -4.4007   -0.2894 H         1 <0>         0.0872
     46 H11         2.2758   -4.5249    1.4685 H         1 <0>         0.0873
     47 H12         0.9297   -6.5799    1.1312 H         1 <0>         0.0646
     48 H13         1.1805   -6.4557   -0.6266 H         1 <0>         0.0644
     49 H14         0.7126   -8.3750    0.0623 H         1 <0>         0.1235
     50 H15         0.6672  -10.8266   -0.1179 H         1 <0>         0.1223
     51 H16         4.9395   -8.5070    0.6655 H         1 <0>         0.1240
     52 H17         5.6576  -11.4385   -0.4373 H         1 <0>         0.0793
     53 H18         5.7549  -11.1652    1.3286 H         1 <0>         0.0708
     54 H19         4.9291  -13.5707    0.2414 H         1 <0>         0.0854
     55 H20         4.3067  -12.9623    1.8117 H         1 <0>         0.0643
     56 H21         2.0360  -13.0451    1.9627 H         1 <0>         0.0567
     57 H22         0.9478  -12.9813    0.5556 H         1 <0>         0.0557
     58 H23        -4.3949    4.7590    0.2257 H         1 <0>         0.1330
     59 H24        -6.6141    5.6873   -0.0297 H         1 <0>         0.1348
     60 H25        -8.5707    4.2425   -0.3951 H         1 <0>         0.1397
     61 H26        -8.2748    1.7904   -0.5065 H         1 <0>         0.1351
@<TRIPOS>BOND
     1    1    2 1
     2    1   37 1
     3    1   38 1
     4    1   39 1
     5    2    3 1
     6    3    8 ar
     7    3    4 ar
     8    4    5 ar
     9    4   40 1
    10    5    6 ar
    11    5   28 1
    12    6    7 ar
    13    6   41 1
    14    7    8 ar
    15    7   42 1
    16    8    9 1
    17    9   10 1
    18   10   11 1
    19   10   43 1
    20   10   44 1
    21   11   12 1
    22   11   45 1
    23   11   46 1
    24   12   13 1
    25   12   47 1
    26   12   48 1
    27   13   14 1
    28   14   19 ar
    29   14   15 ar
    30   15   16 ar
    31   15   49 1
    32   16   17 ar
    33   16   50 1
    34   17   22 1
    35   17   18 ar
    36   18   19 ar
    37   18   20 1
    38   19   51 1
    39   20   21 1
    40   20   52 1
    41   20   53 1
    42   21   22 1
    43   21   54 1
    44   21   55 1
    45   22   23 1
    46   22   24 1
    47   24   25 1
    48   24   56 1
    49   24   57 1
    50   25   26 2
    51   25   27 1
    52   28   36 1
    53   28   29 2
    54   29   30 1
    55   30   35 ar
    56   30   31 ar
    57   31   32 ar
    58   31   58 1
    59   32   33 ar
    60   32   59 1
    61   33   34 ar
    62   33   60 1
    63   34   35 ar
    64   34   61 1
    65   35   36 1
@<TRIPOS>MOLECULE
CHEMBL200916
   59    63     0     0     0
SMALL
USER_CHARGES

@<TRIPOS>ATOM
      1 C1          0.0525    1.4992    0.0805 C.3       1 <0>        -0.1541
      2 C2          0.0074   -0.0286    0.0134 C.3       1 <0>        -0.0950
      3 C3          0.6061   -0.4987   -1.3138 C.3       1 <0>        -0.1421
      4 C4          0.4006   -2.0078   -1.4600 C.3       1 <0>        -0.0212
      5 C5          0.9355   -2.4914   -2.8245 C.3       1 <0>        -0.1253
      6 C6         -0.3200   -2.4142   -3.7189 C.3       1 <0>        -0.0830
      7 C7         -1.4909   -2.5715   -2.7726 C.ar      1 <0>        -0.0568
      8 C8         -1.0769   -2.3378   -1.4738 C.ar      1 <0>        -0.1058
      9 C9         -1.9853   -2.4266   -0.4322 C.ar      1 <0>        -0.0697
     10 C10        -3.3040   -2.7483   -0.6839 C.ar      1 <0>        -0.2107
     11 C11        -3.7216   -2.9833   -1.9855 C.ar      1 <0>         0.1168
     12 C12        -2.8121   -2.8937   -3.0281 C.ar      1 <0>        -0.1423
     13 O1         -5.0186   -3.3011   -2.2382 O.3       1 <0>        -0.3165
     14 C13        -5.8988   -3.3759   -1.1149 C.3       1 <0>         0.0686
     15 C14        -7.3053   -3.7427   -1.5928 C.3       1 <0>        -0.0350
     16 C15        -8.2335   -3.8216   -0.4082 C.2       1 <0>        -0.0031
     17 C16        -8.4811   -4.9176    0.3325 C.2       1 <0>        -0.0236
     18 O2         -9.3633   -4.5644    1.2889 O.3       1 <0>        -0.1868
     19 C17        -9.6449   -3.2595    1.1231 C.2       1 <0>         0.2617
     20 N1         -8.9549   -2.8108    0.0982 N.2       1 <0>        -0.4457
     21 C18       -10.5654   -2.4664    1.9534 C.2       1 <0>        -0.0756
     22 C19       -11.2947   -2.8666    3.0275 C.2       1 <0>        -0.0990
     23 C20       -12.1253   -1.9459    3.6950 C.ar      1 <0>        -0.0956
     24 C21       -12.9551   -2.1695    4.8229 C.ar      1 <0>        -0.0663
     25 C22       -13.7008   -1.1625    5.3478 C.ar      1 <0>        -0.1246
     26 C23       -13.6809    0.1165    4.8062 C.ar      1 <0>        -0.0857
     27 C24       -12.8859    0.3771    3.7076 C.ar      1 <0>        -0.0778
     28 C25       -12.1248   -0.6347    3.1648 C.ar      1 <0>        -0.1203
     29 S1        -10.9924   -0.7406    1.8018 S.3       1 <0>         0.1387
     30 C26        -7.8837   -6.2862    0.1299 C.3       1 <0>        -0.0731
     31 C27         2.0804   -0.1878   -1.3380 C.2       1 <0>         0.4993
     32 O3          2.8330   -0.8552   -2.0271 O.co2     1 <0>        -0.6907
     33 O4          2.5208    0.7311   -0.6686 O.co2     1 <0>        -0.6891
     34 H1          1.0890    1.8294    0.1502 H         1 <0>         0.0957
     35 H2         -0.4019    1.9160   -0.8183 H         1 <0>         0.0341
     36 H3         -0.4973    1.8408    0.9575 H         1 <0>         0.0272
     37 H4          0.5832   -0.4458    0.8396 H         1 <0>         0.0490
     38 H5         -1.0269   -0.3651    0.0849 H         1 <0>         0.0418
     39 H6          0.1125    0.0167   -2.1378 H         1 <0>         0.0612
     40 H7          0.8987   -2.5371   -0.6477 H         1 <0>         0.0666
     41 H8          1.7154   -1.8251   -3.1932 H         1 <0>         0.1285
     42 H9          1.3003   -3.5163   -2.7565 H         1 <0>         0.0548
     43 H10        -0.3672   -1.4484   -4.2219 H         1 <0>         0.0772
     44 H11        -0.3135   -3.2224   -4.4503 H         1 <0>         0.0674
     45 H12        -1.6606   -2.2437    0.5815 H         1 <0>         0.1207
     46 H13        -4.0091   -2.8173    0.1313 H         1 <0>         0.1210
     47 H14        -3.1355   -3.0764   -4.0422 H         1 <0>         0.1233
     48 H15        -5.5402   -4.1375   -0.4225 H         1 <0>         0.0607
     49 H16        -5.9268   -2.4102   -0.6103 H         1 <0>         0.0651
     50 H17        -7.6638   -2.9811   -2.2852 H         1 <0>         0.0961
     51 H18        -7.2773   -4.7084   -2.0974 H         1 <0>         0.0943
     52 H19       -11.2377   -3.8897    3.3689 H         1 <0>         0.1428
     53 H20       -12.9950   -3.1519    5.2697 H         1 <0>         0.1278
     54 H21       -14.3245   -1.3613    6.2068 H         1 <0>         0.1295
     55 H22       -14.2828    0.9009    5.2408 H         1 <0>         0.1370
     56 H23       -12.8615    1.3671    3.2766 H         1 <0>         0.1352
     57 H24        -6.9622   -6.3693    0.7061 H         1 <0>         0.0908
     58 H25        -8.5913   -7.0447    0.4647 H         1 <0>         0.0826
     59 H26        -7.6655   -6.4344   -0.9277 H         1 <0>         0.0987
@<TRIPOS>BOND
     1    1    2 1
     2    1   34 1
     3    1   35 1
     4    1   36 1
     5    2    3 1
     6    2   37 1
     7    2   38 1
     8    3    4 1
     9    3   31 1
    10    3   39 1
    11    4    8 1
    12    4    5 1
    13    4   40 1
    14    5    6 1
    15    5   41 1
    16    5   42 1
    17    6    7 1
    18    6   43 1
    19    6   44 1
    20    7   12 ar
    21    7    8 ar
    22    8    9 ar
    23    9   10 ar
    24    9   45 1
    25   10   11 ar
    26   10   46 1
    27   11   12 ar
    28   11   13 1
    29   12   47 1
    30   13   14 1
    31   14   15 1
    32   14   48 1
    33   14   49 1
    34   15   16 1
    35   15   50 1
    36   15   51 1
    37   16   20 1
    38   16   17 2
    39   17   18 1
    40   17   30 1
    41   18   19 1
    42   19   20 2
    43   19   21 1
    44   21   29 1
    45   21   22 2
    46   22   23 1
    47   22   52 1
    48   23   28 ar
    49   23   24 ar
    50   24   25 ar
    51   24   53 1
    52   25   26 ar
    53   25   54 1
    54   26   27 ar
    55   26   55 1
    56   27   28 ar
    57   27   56 1
    58   28   29 1
    59   30   57 1
    60   30   58 1
    61   30   59 1
    62   31   32 2
    63   31   33 1
@<TRIPOS>MOLECULE
CHEMBL200916__1
   59    63     0     0     0
SMALL
USER_CHARGES

@<TRIPOS>ATOM
      1 C1          0.0125    1.8056   -0.5483 C.3       1 <0>        -0.1445
      2 C2         -0.1995    0.3121   -0.2928 C.3       1 <0>        -0.1004
      3 C3          0.6046   -0.4987   -1.3110 C.3       1 <0>        -0.1486
      4 C4          0.3143   -1.9888   -1.1201 C.3       1 <0>        -0.0292
      5 C5         -1.1945   -2.2662   -1.2891 C.3       1 <0>        -0.1159
      6 C6         -1.2031   -3.6609   -1.9502 C.3       1 <0>        -0.0759
      7 C7          0.1178   -3.7601   -2.6829 C.ar      1 <0>        -0.0717
      8 C8          0.9903   -2.7989   -2.2057 C.ar      1 <0>        -0.1023
      9 C9          2.2671   -2.7015   -2.7334 C.ar      1 <0>        -0.0506
     10 C10         2.6742   -3.5604   -3.7346 C.ar      1 <0>        -0.2067
     11 C11         1.8009   -4.5251   -4.2149 C.ar      1 <0>         0.1166
     12 C12         0.5228   -4.6221   -3.6866 C.ar      1 <0>        -0.1477
     13 O1          2.1969   -5.3723   -5.2009 O.3       1 <0>        -0.3176
     14 C13         3.5275   -5.2133   -5.6973 C.3       1 <0>         0.0667
     15 C14         3.7897   -6.2477   -6.7937 C.3       1 <0>        -0.0335
     16 C15         5.1928   -6.0801   -7.3173 C.2       1 <0>        -0.0037
     17 C16         5.5682   -5.2866   -8.3374 C.2       1 <0>        -0.0216
     18 O2          6.9011   -5.4255   -8.4842 O.3       1 <0>        -0.1865
     19 C17         7.3255   -6.3003   -7.5545 C.2       1 <0>         0.2597
     20 N1          6.2897   -6.6907   -6.8455 N.2       1 <0>        -0.4450
     21 C18         8.7160   -6.7410   -7.3599 C.2       1 <0>        -0.0727
     22 C19         9.8265   -6.3676   -8.0478 C.2       1 <0>        -0.1005
     23 C20        11.0805   -6.9085   -7.7042 C.ar      1 <0>        -0.0945
     24 C21        12.3417   -6.6467   -8.2972 C.ar      1 <0>        -0.0664
     25 C22        13.4650   -7.2599   -7.8411 C.ar      1 <0>        -0.1248
     26 C23        13.4246   -8.1602   -6.7841 C.ar      1 <0>        -0.0868
     27 C24        12.2165   -8.4431   -6.1779 C.ar      1 <0>        -0.0776
     28 C25        11.0694   -7.8290   -6.6304 C.ar      1 <0>        -0.1210
     29 S1          9.3596   -7.8913   -6.1572 S.3       1 <0>         0.1381
     30 C26         4.6656   -4.4066   -9.1632 C.3       1 <0>        -0.0737
     31 C27         2.0758   -0.2435   -1.1071 C.2       1 <0>         0.5053
     32 O3          2.6291   -0.6408   -0.0959 O.co2     1 <0>        -0.6993
     33 O4          2.7128    0.3602   -1.9534 O.co2     1 <0>        -0.7026
     34 H1          1.0546    2.0624   -0.3581 H         1 <0>         0.0573
     35 H2         -0.2351    2.0357   -1.5846 H         1 <0>         0.0474
     36 H3         -0.6310    2.3828    0.1158 H         1 <0>         0.0407
     37 H4          0.1353    0.0647    0.7146 H         1 <0>         0.0603
     38 H5         -1.2583    0.0731   -0.3927 H         1 <0>         0.0475
     39 H6          0.3203   -0.1995   -2.3198 H         1 <0>         0.0584
     40 H7          0.6529   -2.3166   -0.1373 H         1 <0>         0.0875
     41 H8         -1.6943   -2.2935   -0.3208 H         1 <0>         0.0716
     42 H9         -1.6540   -1.5248   -1.9427 H         1 <0>         0.0701
     43 H10        -1.2736   -4.4392   -1.1904 H         1 <0>         0.0770
     44 H11        -2.0324   -3.7411   -2.6530 H         1 <0>         0.0700
     45 H12         2.9474   -1.9505   -2.3597 H         1 <0>         0.1425
     46 H13         3.6707   -3.4811   -4.1433 H         1 <0>         0.1218
     47 H14        -0.1585   -5.3727   -4.0594 H         1 <0>         0.1213
     48 H15         3.6445   -4.2106   -6.1083 H         1 <0>         0.0624
     49 H16         4.2385   -5.3579   -4.8839 H         1 <0>         0.0658
     50 H17         3.6727   -7.2505   -6.3828 H         1 <0>         0.0951
     51 H18         3.0787   -6.1032   -7.6072 H         1 <0>         0.0937
     52 H19         9.7476   -5.6571   -8.8573 H         1 <0>         0.1431
     53 H20        12.4101   -5.9521   -9.1213 H         1 <0>         0.1277
     54 H21        14.4122   -7.0424   -8.3120 H         1 <0>         0.1291
     55 H22        14.3310   -8.6356   -6.4393 H         1 <0>         0.1365
     56 H23        12.1711   -9.1415   -5.3553 H         1 <0>         0.1348
     57 H24         4.6006   -3.4202   -8.7040 H         1 <0>         0.0925
     58 H25         5.0721   -4.3125  -10.1702 H         1 <0>         0.0823
     59 H26         3.6714   -4.8506   -9.2128 H         1 <0>         0.0985
@<TRIPOS>BOND
     1    1    2 1
     2    1   34 1
     3    1   35 1
     4    1   36 1
     5    2    3 1
     6    2   37 1
     7    2   38 1
     8    3    4 1
     9    3   31 1
    10    3   39 1
    11    4    8 1
    12    4    5 1
    13    4   40 1
    14    5    6 1
    15    5   41 1
    16    5   42 1
    17    6    7 1
    18    6   43 1
    19    6   44 1
    20    7   12 ar
    21    7    8 ar
    22    8    9 ar
    23    9   10 ar
    24    9   45 1
    25   10   11 ar
    26   10   46 1
    27   11   12 ar
    28   11   13 1
    29   12   47 1
    30   13   14 1
    31   14   15 1
    32   14   48 1
    33   14   49 1
    34   15   16 1
    35   15   50 1
    36   15   51 1
    37   16   20 1
    38   16   17 2
    39   17   18 1
    40   17   30 1
    41   18   19 1
    42   19   20 2
    43   19   21 1
    44   21   29 1
    45   21   22 2
    46   22   23 1
    47   22   52 1
    48   23   28 ar
    49   23   24 ar
    50   24   25 ar
    51   24   53 1
    52   25   26 ar
    53   25   54 1
    54   26   27 ar
    55   26   55 1
    56   27   28 ar
    57   27   56 1
    58   28   29 1
    59   30   57 1
    60   30   58 1
    61   30   59 1
    62   31   32 2
    63   31   33 1
@<TRIPOS>MOLECULE
CHEMBL200916__2
   59    63     0     0     0
SMALL
USER_CHARGES

@<TRIPOS>ATOM
      1 C1         -0.0187    1.5258    0.0104 C.3       1 <0>        -0.1449
      2 C2          0.0021   -0.0041    0.0020 C.3       1 <0>        -0.1019
      3 C3          0.7182   -0.4975   -1.2568 C.3       1 <0>        -0.1440
      4 C4          0.8493   -2.0210   -1.2049 C.3       1 <0>        -0.0281
      5 C5          1.7201   -2.4429   -0.0026 C.3       1 <0>        -0.1210
      6 C6          3.1299   -2.5216   -0.6259 C.3       1 <0>        -0.0748
      7 C7          2.8988   -2.8144   -2.0930 C.ar      1 <0>        -0.0672
      8 C8          1.5876   -2.5265   -2.4260 C.ar      1 <0>        -0.0987
      9 C9          1.1461   -2.7193   -3.7246 C.ar      1 <0>        -0.0449
     10 C10         2.0092   -3.1986   -4.6895 C.ar      1 <0>        -0.2055
     11 C11         3.3245   -3.4881   -4.3579 C.ar      1 <0>         0.1178
     12 C12         3.7663   -3.2945   -3.0581 C.ar      1 <0>        -0.1456
     13 O1          4.1776   -3.9608   -5.3042 O.3       1 <0>        -0.3172
     14 C13         3.6526   -4.1360   -6.6217 C.3       1 <0>         0.0671
     15 C14         4.7516   -4.6716   -7.5416 C.3       1 <0>        -0.0342
     16 C15         4.1979   -4.8563   -8.9310 C.2       1 <0>        -0.0019
     17 C16         3.6147   -5.9707   -9.4096 C.2       1 <0>        -0.0245
     18 O2          3.2620   -5.7219  -10.6868 O.3       1 <0>        -0.1870
     19 C17         3.6324   -4.4612  -10.9748 C.2       1 <0>         0.2607
     20 N1          4.1938   -3.9373   -9.9078 N.2       1 <0>        -0.4443
     21 C18         3.4365   -3.7809  -12.2649 C.2       1 <0>        -0.0737
     22 C19         2.8559   -4.2611  -13.3955 C.2       1 <0>        -0.1007
     23 C20         2.7627   -3.4440  -14.5387 C.ar      1 <0>        -0.0948
     24 C21         2.1984   -3.7607  -15.8004 C.ar      1 <0>        -0.0668
     25 C22         2.1904   -2.8484  -16.8071 C.ar      1 <0>        -0.1249
     26 C23         2.7296   -1.5788  -16.6430 C.ar      1 <0>        -0.0869
     27 C24         3.2888   -1.2294  -15.4296 C.ar      1 <0>        -0.0772
     28 C25         3.3041   -2.1447  -14.4003 C.ar      1 <0>        -0.1212
     29 S1          3.8958   -2.1197  -12.7268 S.3       1 <0>         0.1410
     30 C26         3.3970   -7.2583   -8.6575 C.3       1 <0>        -0.0723
     31 C27        -0.0771   -0.1029   -2.4745 C.2       1 <0>         0.5063
     32 O3          0.4235    0.6153   -3.3231 O.co2     1 <0>        -0.7002
     33 O4         -1.2211   -0.5017   -2.6110 O.co2     1 <0>        -0.7024
     34 H1          1.0039    1.9031    0.0027 H         1 <0>         0.0458
     35 H2         -0.5459    1.8868   -0.8726 H         1 <0>         0.0580
     36 H3         -0.5289    1.8773    0.9072 H         1 <0>         0.0417
     37 H4          0.5293   -0.3651    0.8851 H         1 <0>         0.0478
     38 H5         -1.0205   -0.3814    0.0098 H         1 <0>         0.0626
     39 H6          1.7103   -0.0491   -1.3098 H         1 <0>         0.0578
     40 H7         -0.1360   -2.4827   -1.1407 H         1 <0>         0.0787
     41 H8          1.6858   -1.6893    0.7841 H         1 <0>         0.0786
     42 H9          1.4099   -3.4161    0.3779 H         1 <0>         0.0659
     43 H10         3.6495   -1.5708   -0.5072 H         1 <0>         0.0784
     44 H11         3.7027   -3.3265   -0.1652 H         1 <0>         0.0694
     45 H12         0.1221   -2.4940   -3.9832 H         1 <0>         0.1275
     46 H13         1.6607   -3.3482   -5.7008 H         1 <0>         0.1214
     47 H14         4.7901   -3.5193   -2.7981 H         1 <0>         0.1216
     48 H15         2.8258   -4.8457   -6.5919 H         1 <0>         0.0608
     49 H16         3.2960   -3.1784   -7.0009 H         1 <0>         0.0668
     50 H17         5.5784   -3.9619   -7.5714 H         1 <0>         0.0959
     51 H18         5.1082   -5.6292   -7.1623 H         1 <0>         0.0935
     52 H19         2.4667   -5.2682  -13.4176 H         1 <0>         0.1427
     53 H20         1.7701   -4.7387  -15.9632 H         1 <0>         0.1274
     54 H21         1.7546   -3.1169  -17.7580 H         1 <0>         0.1289
     55 H22         2.7120   -0.8706  -17.4582 H         1 <0>         0.1365
     56 H23         3.7118   -0.2456  -15.2890 H         1 <0>         0.1351
     57 H24         2.4295   -7.2272   -8.1564 H         1 <0>         0.0910
     58 H25         3.4177   -8.0949   -9.3559 H         1 <0>         0.0819
     59 H26         4.1862   -7.3840   -7.9163 H         1 <0>         0.0983
@<TRIPOS>BOND
     1    1    2 1
     2    1   34 1
     3    1   35 1
     4    1   36 1
     5    2    3 1
     6    2   37 1
     7    2   38 1
     8    3    4 1
     9    3   31 1
    10    3   39 1
    11    4    8 1
    12    4    5 1
    13    4   40 1
    14    5    6 1
    15    5   41 1
    16    5   42 1
    17    6    7 1
    18    6   43 1
    19    6   44 1
    20    7   12 ar
    21    7    8 ar
    22    8    9 ar
    23    9   10 ar
    24    9   45 1
    25   10   11 ar
    26   10   46 1
    27   11   12 ar
    28   11   13 1
    29   12   47 1
    30   13   14 1
    31   14   15 1
    32   14   48 1
    33   14   49 1
    34   15   16 1
    35   15   50 1
    36   15   51 1
    37   16   20 1
    38   16   17 2
    39   17   18 1
    40   17   30 1
    41   18   19 1
    42   19   20 2
    43   19   21 1
    44   21   29 1
    45   21   22 2
    46   22   23 1
    47   22   52 1
    48   23   28 ar
    49   23   24 ar
    50   24   25 ar
    51   24   53 1
    52   25   26 ar
    53   25   54 1
    54   26   27 ar
    55   26   55 1
    56   27   28 ar
    57   27   56 1
    58   28   29 1
    59   30   57 1
    60   30   58 1
    61   30   59 1
    62   31   32 2
    63   31   33 1
@<TRIPOS>MOLECULE
CHEMBL200916__3
   59    63     0     0     0
SMALL
USER_CHARGES

@<TRIPOS>ATOM
      1 C1         -0.0413    0.7206   -3.3017 C.3       1 <0>        -0.1439
      2 C2          0.1503   -0.6589   -2.6683 C.3       1 <0>        -0.0982
      3 C3          0.7182   -0.4975   -1.2568 C.3       1 <0>        -0.1524
      4 C4          0.7680   -1.8627   -0.5679 C.3       1 <0>        -0.0266
      5 C5          1.7514   -2.7979   -1.3030 C.3       1 <0>        -0.1290
      6 C6          2.3519   -3.6234   -0.1454 C.3       1 <0>        -0.0773
      7 C7          2.2355   -2.7364    1.0757 C.ar      1 <0>        -0.0611
      8 C8          1.3248   -1.7242    0.8330 C.ar      1 <0>        -0.0949
      9 C9          1.0556   -0.7864    1.8160 C.ar      1 <0>        -0.0382
     10 C10         1.6923   -0.8570    3.0388 C.ar      1 <0>        -0.2063
     11 C11         2.6061   -1.8711    3.2845 C.ar      1 <0>         0.1177
     12 C12         2.8756   -2.8096    2.3003 C.ar      1 <0>        -0.1444
     13 O1          3.2360   -1.9444    4.4865 O.3       1 <0>        -0.3175
     14 C13         2.9091   -0.9431    5.4523 C.3       1 <0>         0.0682
     15 C14         3.7109   -1.1879    6.7322 C.3       1 <0>        -0.0345
     16 C15         3.3662   -0.1320    7.7506 C.2       1 <0>        -0.0037
     17 C16         3.9828    1.0548    7.9010 C.2       1 <0>        -0.0192
     18 O2          3.3730    1.6977    8.9171 O.3       1 <0>        -0.1866
     19 C17         2.3926    0.8991    9.3760 C.2       1 <0>         0.2568
     20 N1          2.3870   -0.2059    8.6640 N.2       1 <0>        -0.4448
     21 C18         1.4764    1.2124   10.4842 C.2       1 <0>        -0.0710
     22 C19         1.4237    2.3354   11.2471 C.2       1 <0>        -0.1016
     23 C20         0.4621    2.4449   12.2702 C.ar      1 <0>        -0.0940
     24 C21         0.2507    3.5251   13.1642 C.ar      1 <0>        -0.0665
     25 C22        -0.7300    3.4688   14.1027 C.ar      1 <0>        -0.1247
     26 C23        -1.5588    2.3608   14.2238 C.ar      1 <0>        -0.0871
     27 C24        -1.3870    1.2870   13.3726 C.ar      1 <0>        -0.0777
     28 C25        -0.3962    1.3303   12.4164 C.ar      1 <0>        -0.1214
     29 S1          0.1564    0.2143   11.1514 S.3       1 <0>         0.1365
     30 C26         5.1407    1.5693    7.0853 C.3       1 <0>        -0.0750
     31 C27         2.1097    0.0754   -1.3376 C.2       1 <0>         0.5076
     32 O3          2.5237    0.7990   -0.4480 O.co2     1 <0>        -0.6960
     33 O4          2.8216   -0.1847   -2.2927 O.co2     1 <0>        -0.6975
     34 H1         -0.7336    1.3055   -2.6962 H         1 <0>         0.0399
     35 H2          0.9192    1.2335   -3.3529 H         1 <0>         0.0616
     36 H3         -0.4458    0.6056   -4.3073 H         1 <0>         0.0402
     37 H4         -0.8101   -1.1717   -2.6171 H         1 <0>         0.0376
     38 H5          0.8427   -1.2437   -3.2738 H         1 <0>         0.0686
     39 H6          0.0809    0.1757   -0.6835 H         1 <0>         0.0552
     40 H7         -0.2271   -2.3066   -0.5372 H         1 <0>         0.0674
     41 H8          1.2219   -3.4426   -2.0046 H         1 <0>         0.0636
     42 H9          2.5256   -2.2234   -1.8116 H         1 <0>         0.1090
     43 H10         1.7832   -4.5421   -0.0012 H         1 <0>         0.0718
     44 H11         3.3980   -3.8531   -0.3477 H         1 <0>         0.0705
     45 H12         0.3442    0.0035    1.6251 H         1 <0>         0.1168
     46 H13         1.4796   -0.1237    3.8026 H         1 <0>         0.1194
     47 H14         3.5868   -3.6000    2.4899 H         1 <0>         0.1209
     48 H15         3.1543    0.0410    5.0526 H         1 <0>         0.0623
     49 H16         1.8435   -0.9889    5.6767 H         1 <0>         0.0635
     50 H17         3.4658   -2.1719    7.1318 H         1 <0>         0.0948
     51 H18         4.7766   -1.1421    6.5077 H         1 <0>         0.0945
     52 H19         2.1185    3.1429   11.0694 H         1 <0>         0.1432
     53 H20         0.8768    4.4026   13.0984 H         1 <0>         0.1278
     54 H21        -0.8682    4.3058   14.7711 H         1 <0>         0.1291
     55 H22        -2.3315    2.3390   14.9781 H         1 <0>         0.1364
     56 H23        -2.0244    0.4192   13.4563 H         1 <0>         0.1346
     57 H24         4.7623    2.1193    6.2237 H         1 <0>         0.0936
     58 H25         5.7518    2.2312    7.6990 H         1 <0>         0.0825
     59 H26         5.7457    0.7296    6.7432 H         1 <0>         0.0996
@<TRIPOS>BOND
     1    1    2 1
     2    1   34 1
     3    1   35 1
     4    1   36 1
     5    2    3 1
     6    2   37 1
     7    2   38 1
     8    3    4 1
     9    3   31 1
    10    3   39 1
    11    4    8 1
    12    4    5 1
    13    4   40 1
    14    5    6 1
    15    5   41 1
    16    5   42 1
    17    6    7 1
    18    6   43 1
    19    6   44 1
    20    7   12 ar
    21    7    8 ar
    22    8    9 ar
    23    9   10 ar
    24    9   45 1
    25   10   11 ar
    26   10   46 1
    27   11   12 ar
    28   11   13 1
    29   12   47 1
    30   13   14 1
    31   14   15 1
    32   14   48 1
    33   14   49 1
    34   15   16 1
    35   15   50 1
    36   15   51 1
    37   16   20 1
    38   16   17 2
    39   17   18 1
    40   17   30 1
    41   18   19 1
    42   19   20 2
    43   19   21 1
    44   21   29 1
    45   21   22 2
    46   22   23 1
    47   22   52 1
    48   23   28 ar
    49   23   24 ar
    50   24   25 ar
    51   24   53 1
    52   25   26 ar
    53   25   54 1
    54   26   27 ar
    55   26   55 1
    56   27   28 ar
    57   27   56 1
    58   28   29 1
    59   30   57 1
    60   30   58 1
    61   30   59 1
    62   31   32 2
    63   31   33 1
@<TRIPOS>MOLECULE
CHEMBL482659
   68    71     0     0     0
SMALL
USER_CHARGES

@<TRIPOS>ATOM
      1 C1         -0.4536    0.7528    1.1559 C.3       1 <0>        -0.1512
      2 C2         -0.3049   -0.7503    0.9120 C.3       1 <0>        -0.0143
      3 C3          0.3590   -0.9740   -0.3825 C.1       1 <0>        -0.1274
      4 C4          0.8886   -1.1525   -1.4150 C.1       1 <0>        -0.2048
      5 C5          1.5525   -1.3762   -2.7096 C.3       1 <0>         0.1796
      6 O1          1.6914   -2.7801   -2.9374 O.3       1 <0>        -0.2858
      7 C6          2.2894   -3.1611   -4.0978 C.ar      1 <0>         0.1745
      8 C7          2.7377   -2.2052   -4.9942 C.ar      1 <0>        -0.1944
      9 C8          3.3462   -2.5941   -6.1737 C.ar      1 <0>        -0.0337
     10 C9          3.5092   -3.9365   -6.4624 C.ar      1 <0>        -0.1393
     11 C10         3.0645   -4.8969   -5.5739 C.ar      1 <0>        -0.0298
     12 C11         2.4580   -4.5144   -4.3854 C.ar      1 <0>        -0.1567
     13 S1          1.8963   -5.7362   -3.2468 S.3       1 <0>         0.0020
     14 C12         3.1097   -5.7183   -1.9694 C.ar      1 <0>        -0.1471
     15 C13         4.2450   -4.9344   -2.1095 C.ar      1 <0>        -0.0759
     16 C14         5.1960   -4.9211   -1.1087 C.ar      1 <0>        -0.2062
     17 C15         5.0114   -5.6924    0.0263 C.ar      1 <0>         0.1407
     18 C16         3.8723   -6.4824    0.1694 C.ar      1 <0>        -0.0986
     19 C17         2.9184   -6.4888   -0.8216 C.ar      1 <0>        -0.0193
     20 C18         1.6535   -7.3009   -0.7247 C.3       1 <0>        -0.0776
     21 C19         1.7915   -8.3854    0.3418 C.3       1 <0>        -0.1170
     22 C20         2.2864   -7.7304    1.6367 C.3       1 <0>        -0.1176
     23 C21         3.7410   -7.3019    1.4266 C.3       1 <0>        -0.0703
     24 O2          5.9504   -5.6793    1.0100 O.3       1 <0>        -0.2760
     25 C22         7.0952   -4.8494    0.8030 C.3       1 <0>        -0.0067
     26 C23         8.0186   -4.9627    1.9886 C.2       1 <0>         0.5021
     27 O3          7.7237   -5.6870    2.9240 O.co2     1 <0>        -0.6699
     28 O4          9.0606   -4.3301    2.0123 O.co2     1 <0>        -0.6881
     29 C24         3.8325   -1.5517   -7.1474 C.3       1 <0>         0.0981
     30 O5          5.1854   -1.2082   -6.8412 O.3       1 <0>        -0.2979
     31 C25         5.7787   -0.2743   -7.6306 C.ar      1 <0>         0.1346
     32 C26         5.0711    0.3035   -8.6748 C.ar      1 <0>        -0.1951
     33 C27         5.6758    1.2523   -9.4760 C.ar      1 <0>        -0.0764
     34 C28         6.9868    1.6263   -9.2380 C.ar      1 <0>        -0.0684
     35 C29         7.6941    1.0510   -8.1976 C.ar      1 <0>        -0.0738
     36 C30         7.0906    0.1063   -7.3898 C.ar      1 <0>        -0.0989
     37 C31         7.8592   -0.5148   -6.2521 C.3       1 <0>        -0.1096
     38 Cl1         7.7448    2.8186  -10.2467 Cl        1 <0>        -0.0724
     39 H1          0.5320    1.2182    1.1678 H         1 <0>         0.0619
     40 H2         -1.0535    1.1926    0.3591 H         1 <0>         0.0609
     41 H3         -0.9452    0.9184    2.1145 H         1 <0>         0.0671
     42 H4          0.2949   -1.1901    1.7088 H         1 <0>         0.0891
     43 H5         -1.2905   -1.2157    0.9001 H         1 <0>         0.0887
     44 H6          0.9526   -0.9364   -3.5064 H         1 <0>         0.0859
     45 H7          2.5381   -0.9108   -2.6977 H         1 <0>         0.0865
     46 H8          2.6118   -1.1558   -4.7722 H         1 <0>         0.1351
     47 H9          3.9849   -4.2352   -7.3848 H         1 <0>         0.1328
     48 H10         3.1924   -5.9447   -5.8023 H         1 <0>         0.1439
     49 H11         4.3849   -4.3369   -2.9982 H         1 <0>         0.1141
     50 H12         6.0814   -4.3112   -1.2110 H         1 <0>         0.1281
     51 H13         0.8238   -6.6439   -0.4639 H         1 <0>         0.0792
     52 H14         1.4518   -7.7683   -1.6885 H         1 <0>         0.0756
     53 H15         0.8233   -8.8553    0.5149 H         1 <0>         0.0648
     54 H16         2.5103   -9.1354    0.0118 H         1 <0>         0.0660
     55 H17         1.6698   -6.8618    1.8677 H         1 <0>         0.0635
     56 H18         2.2319   -8.4481    2.4553 H         1 <0>         0.0664
     57 H19         4.3791   -8.1823    1.3500 H         1 <0>         0.0760
     58 H20         4.0570   -6.7030    2.2807 H         1 <0>         0.0828
     59 H21         7.6188   -5.1706   -0.0974 H         1 <0>         0.0581
     60 H22         6.7769   -3.8133    0.6881 H         1 <0>         0.0570
     61 H23         3.7789   -1.9484   -8.1612 H         1 <0>         0.0782
     62 H24         3.2059   -0.6631   -7.0714 H         1 <0>         0.0750
     63 H25         4.0483    0.0113   -8.8613 H         1 <0>         0.1372
     64 H26         5.1253    1.7023  -10.2889 H         1 <0>         0.1352
     65 H27         8.7173    1.3439   -8.0136 H         1 <0>         0.1405
     66 H28         8.3754   -1.4070   -6.6067 H         1 <0>         0.0740
     67 H29         8.5890    0.2007   -5.8732 H         1 <0>         0.0696
     68 H30         7.1692   -0.7875   -5.4536 H         1 <0>         0.0756
@<TRIPOS>BOND
     1    1    2 1
     2    1   39 1
     3    1   40 1
     4    1   41 1
     5    2    3 1
     6    2   42 1
     7    2   43 1
     8    3    4 3
     9    4    5 1
    10    5    6 1
    11    5   44 1
    12    5   45 1
    13    6    7 1
    14    7   12 ar
    15    7    8 ar
    16    8    9 ar
    17    8   46 1
    18    9   10 ar
    19    9   29 1
    20   10   11 ar
    21   10   47 1
    22   11   12 ar
    23   11   48 1
    24   12   13 1
    25   13   14 1
    26   14   19 ar
    27   14   15 ar
    28   15   16 ar
    29   15   49 1
    30   16   17 ar
    31   16   50 1
    32   17   18 ar
    33   17   24 1
    34   18   23 1
    35   18   19 ar
    36   19   20 1
    37   20   21 1
    38   20   51 1
    39   20   52 1
    40   21   22 1
    41   21   53 1
    42   21   54 1
    43   22   23 1
    44   22   55 1
    45   22   56 1
    46   23   57 1
    47   23   58 1
    48   24   25 1
    49   25   26 1
    50   25   59 1
    51   25   60 1
    52   26   27 2
    53   26   28 1
    54   29   30 1
    55   29   61 1
    56   29   62 1
    57   30   31 1
    58   31   36 ar
    59   31   32 ar
    60   32   33 ar
    61   32   63 1
    62   33   34 ar
    63   33   64 1
    64   34   35 ar
    65   34   38 1
    66   35   36 ar
    67   35   65 1
    68   36   37 1
    69   37   66 1
    70   37   67 1
    71   37   68 1
@<TRIPOS>MOLECULE
CHEMBL426883
   59    62     0     0     0
SMALL
USER_CHARGES

@<TRIPOS>ATOM
      1 C1         -0.9624    2.1902   -0.6669 C.3       1 <0>        -0.1518
      2 C2         -0.7283    0.6864   -0.5101 C.3       1 <0>        -0.1176
      3 C3          0.0537    0.4235    0.7785 C.3       1 <0>        -0.0694
      4 C4          0.2842   -1.0577    0.9329 C.ar      1 <0>        -0.1229
      5 C5         -0.6410   -1.8383    1.6036 C.ar      1 <0>         0.2020
      6 C6         -0.4353   -3.2080    1.7506 C.ar      1 <0>        -0.2161
      7 C7          0.6820   -3.7992    1.2350 C.ar      1 <0>         0.0021
      8 C8          1.6268   -3.0268    0.5543 C.ar      1 <0>        -0.2128
      9 C9          1.4223   -1.6449    0.3981 C.ar      1 <0>         0.1306
     10 O1          2.4752   -1.1641   -0.2937 O.3       1 <0>        -0.0560
     11 N1          3.3609   -2.2240   -0.5939 N.2       1 <0>        -0.2256
     12 C10         2.8994   -3.3335   -0.1035 C.2       1 <0>         0.0487
     13 C11         3.5457   -4.6910   -0.2065 C.3       1 <0>         0.5554
     14 F1          3.1073   -5.3290   -1.3718 F         1 <0>        -0.1555
     15 F2          4.9362   -4.5433   -0.2506 F         1 <0>        -0.1566
     16 F3          3.1936   -5.4608    0.9074 F         1 <0>        -0.1547
     17 O2         -1.7574   -1.2646    2.1226 O.3       1 <0>        -0.2934
     18 C12        -2.6727   -2.1255    2.8031 C.3       1 <0>         0.0589
     19 C13        -3.8593   -1.3061    3.3146 C.3       1 <0>        -0.1191
     20 C14        -4.8393   -2.2279    4.0432 C.3       1 <0>         0.0656
     21 O3         -5.9475   -1.4626    4.5209 O.3       1 <0>        -0.3149
     22 C15        -6.9167   -2.1352    5.1957 C.ar      1 <0>         0.1133
     23 C16        -6.8013   -3.5028    5.3993 C.ar      1 <0>        -0.2080
     24 C17        -7.7881   -4.1814    6.0851 C.ar      1 <0>        -0.0705
     25 C18        -8.8941   -3.5031    6.5710 C.ar      1 <0>        -0.1070
     26 C19        -9.0114   -2.1403    6.3693 C.ar      1 <0>        -0.0608
     27 C20        -8.0203   -1.4559    5.6873 C.ar      1 <0>        -0.1396
     28 C21       -10.2978   -1.6400    6.9908 C.3       1 <0>        -0.0831
     29 C22       -11.1590   -2.9022    7.2083 C.3       1 <0>        -0.1020
     30 C23       -10.0938   -4.0110    7.3421 C.3       1 <0>        -0.0269
     31 H1         -9.8340   -4.1614    8.3899 H         1 <0>         0.0891
     32 C24       -10.6058   -5.3157    6.7285 C.3       1 <0>        -0.1740
     33 C25       -11.7078   -5.8773    7.5894 C.2       1 <0>         0.4908
     34 O4        -11.9807   -5.3473    8.6529 O.co2     1 <0>        -0.6952
     35 O5        -12.3264   -6.8618    7.2225 O.co2     1 <0>        -0.7080
     36 H2         -0.0024    2.7044   -0.7132 H         1 <0>         0.0543
     37 H3         -1.5195    2.3774   -1.5848 H         1 <0>         0.0554
     38 H4         -1.5320    2.5601    0.1857 H         1 <0>         0.0568
     39 H5         -1.6883    0.1721   -0.4638 H         1 <0>         0.0655
     40 H6         -0.1587    0.3165   -1.3626 H         1 <0>         0.0597
     41 H7          1.0137    0.9378    0.7322 H         1 <0>         0.0753
     42 H8         -0.5159    0.7934    1.6310 H         1 <0>         0.0859
     43 H9         -1.1645   -3.8064    2.2764 H         1 <0>         0.1492
     44 H10         0.8355   -4.8617    1.3533 H         1 <0>         0.1454
     45 H11        -3.0300   -2.8922    2.1156 H         1 <0>         0.0743
     46 H12        -2.1683   -2.5992    3.6453 H         1 <0>         0.0741
     47 H13        -3.5020   -0.5395    4.0021 H         1 <0>         0.0882
     48 H14        -4.3637   -0.8324    2.4724 H         1 <0>         0.0884
     49 H15        -5.1966   -2.9946    3.3557 H         1 <0>         0.0650
     50 H16        -4.3349   -2.7016    4.8854 H         1 <0>         0.0648
     51 H17        -5.9411   -4.0353    5.0215 H         1 <0>         0.1232
     52 H18        -7.6978   -5.2459    6.2435 H         1 <0>         0.1226
     53 H19        -8.1093   -0.3906    5.5338 H         1 <0>         0.1241
     54 H20       -10.0929   -1.1530    7.9442 H         1 <0>         0.0796
     55 H21       -10.8018   -0.9503    6.3136 H         1 <0>         0.0710
     56 H22       -11.7469   -2.8173    8.1223 H         1 <0>         0.0856
     57 H23       -11.8027   -3.0850    6.3479 H         1 <0>         0.0644
     58 H24       -10.9906   -5.1201    5.7276 H         1 <0>         0.0567
     59 H25        -9.7886   -6.0347    6.6695 H         1 <0>         0.0557
@<TRIPOS>BOND
     1    1    2 1
     2    1   36 1
     3    1   37 1
     4    1   38 1
     5    2    3 1
     6    2   39 1
     7    2   40 1
     8    3    4 1
     9    3   41 1
    10    3   42 1
    11    4    9 ar
    12    4    5 ar
    13    5    6 ar
    14    5   17 1
    15    6    7 ar
    16    6   43 1
    17    7    8 ar
    18    7   44 1
    19    8   12 1
    20    8    9 ar
    21    9   10 1
    22   10   11 1
    23   11   12 2
    24   12   13 1
    25   13   14 1
    26   13   15 1
    27   13   16 1
    28   17   18 1
    29   18   19 1
    30   18   45 1
    31   18   46 1
    32   19   20 1
    33   19   47 1
    34   19   48 1
    35   20   21 1
    36   20   49 1
    37   20   50 1
    38   21   22 1
    39   22   27 ar
    40   22   23 ar
    41   23   24 ar
    42   23   51 1
    43   24   25 ar
    44   24   52 1
    45   25   30 1
    46   25   26 ar
    47   26   27 ar
    48   26   28 1
    49   27   53 1
    50   28   29 1
    51   28   54 1
    52   28   55 1
    53   29   30 1
    54   29   56 1
    55   29   57 1
    56   30   31 1
    57   30   32 1
    58   32   33 1
    59   32   58 1
    60   32   59 1
    61   33   34 2
    62   33   35 1
@<TRIPOS>MOLECULE
CHEMBL424685
   66    68     0     0     0
SMALL
USER_CHARGES

@<TRIPOS>ATOM
      1 C1         -0.0187    1.5258    0.0104 C.3       1 <0>        -0.1463
      2 C2          0.0021   -0.0041    0.0020 C.3       1 <0>        -0.0936
      3 C3          0.7182   -0.4975   -1.2568 C.3       1 <0>        -0.1321
      4 C4          2.1536    0.0321   -1.2676 C.3       1 <0>        -0.1153
      5 C5          0.7390   -2.0273   -1.2652 C.3       1 <0>        -0.0530
      6 C6          1.4443   -2.5133   -2.5051 C.ar      1 <0>        -0.0905
      7 C7          0.7251   -2.7414   -3.6637 C.ar      1 <0>        -0.0547
      8 C8          1.3693   -3.1874   -4.8015 C.ar      1 <0>        -0.1468
      9 C9          2.7391   -3.4059   -4.7810 C.ar      1 <0>         0.1113
     10 C10         3.4586   -3.1759   -3.6174 C.ar      1 <0>        -0.2133
     11 C11         2.8105   -2.7250   -2.4837 C.ar      1 <0>        -0.0801
     12 O1          3.3751   -3.8450   -5.8989 O.3       1 <0>        -0.3157
     13 C12         4.7864   -4.0484   -5.8048 C.3       1 <0>         0.0668
     14 C13         5.3218   -4.5395   -7.1513 C.3       1 <0>        -0.1191
     15 C14         6.8329   -4.7571   -7.0506 C.3       1 <0>         0.0636
     16 O2          7.3329   -5.2158   -8.3082 O.3       1 <0>        -0.2998
     17 C15         8.6677   -5.4592   -8.3899 C.ar      1 <0>         0.1394
     18 C16         9.4783   -5.2662   -7.2810 C.ar      1 <0>        -0.1955
     19 C17        10.8346   -5.5147   -7.3662 C.ar      1 <0>        -0.0709
     20 C18        11.3850   -5.9552   -8.5558 C.ar      1 <0>        -0.1047
     21 C19        10.5801   -6.1482   -9.6631 C.ar      1 <0>        -0.0677
     22 C20         9.2212   -5.9070   -9.5816 C.ar      1 <0>        -0.0669
     23 Cl1         8.2095   -6.1563  -10.9701 Cl        1 <0>        -0.0560
     24 C21        12.8650   -6.2248   -8.6454 C.3       1 <0>        -0.0408
     25 C22        13.4837   -5.3230   -9.7154 C.3       1 <0>        -0.1127
     26 C23        14.9863   -5.5968   -9.8065 C.3       1 <0>        -0.1199
     27 C24        15.2159   -7.0627  -10.1798 C.3       1 <0>        -0.1213
     28 C25        14.5971   -7.9644   -9.1098 C.3       1 <0>        -0.1198
     29 C26        13.0946   -7.6907   -9.0188 C.3       1 <0>        -0.1125
     30 C27        -0.0107    0.0017   -2.4777 C.2       1 <0>         0.5132
     31 O3          0.5646    0.7150   -3.2819 O.co2     1 <0>        -0.6948
     32 O4         -1.1756   -0.3076   -2.6612 O.co2     1 <0>        -0.7027
     33 H1          1.0039    1.9031    0.0027 H         1 <0>         0.0499
     34 H2         -0.5459    1.8868   -0.8726 H         1 <0>         0.0589
     35 H3         -0.5289    1.8773    0.9072 H         1 <0>         0.0396
     36 H4          0.5293   -0.3651    0.8851 H         1 <0>         0.0427
     37 H5         -1.0205   -0.3814    0.0098 H         1 <0>         0.0606
     38 H6          2.6808   -0.3290   -0.3846 H         1 <0>         0.0262
     39 H7          2.6638   -0.3194   -2.1644 H         1 <0>         0.0534
     40 H8          2.1388    1.1220   -1.2617 H         1 <0>         0.0508
     41 H9          1.2661   -2.3884   -0.3821 H         1 <0>         0.0540
     42 H10        -0.2836   -2.4046   -1.2575 H         1 <0>         0.0711
     43 H11        -0.3413   -2.5711   -3.6791 H         1 <0>         0.1356
     44 H12         0.8069   -3.3660   -5.7060 H         1 <0>         0.1246
     45 H13         4.5251   -3.3453   -3.5989 H         1 <0>         0.1184
     46 H14         3.3708   -2.5416   -1.5789 H         1 <0>         0.1182
     47 H15         5.2721   -3.1087   -5.5415 H         1 <0>         0.0633
     48 H16         4.9958   -4.7932   -5.0370 H         1 <0>         0.0617
     49 H17         4.8361   -5.4791   -7.4146 H         1 <0>         0.0863
     50 H18         5.1124   -3.7946   -7.9191 H         1 <0>         0.0876
     51 H19         7.3186   -3.8175   -6.7873 H         1 <0>         0.0689
     52 H20         7.0423   -5.5020   -6.2828 H         1 <0>         0.0680
     53 H21         9.0494   -4.9215   -6.3516 H         1 <0>         0.1377
     54 H22        11.4658   -5.3644   -6.5028 H         1 <0>         0.1304
     55 H23        11.0125   -6.4916  -10.5912 H         1 <0>         0.1371
     56 H24        13.3310   -6.0179   -7.6820 H         1 <0>         0.0797
     57 H25        13.0177   -5.5299  -10.6788 H         1 <0>         0.0644
     58 H26        13.3202   -4.2787   -9.4494 H         1 <0>         0.0643
     59 H27        15.4271   -4.9544  -10.5687 H         1 <0>         0.0624
     60 H28        15.4523   -5.3899   -8.8431 H         1 <0>         0.0619
     61 H29        14.7499   -7.2695  -11.1432 H         1 <0>         0.0616
     62 H30        16.2864   -7.2577  -10.2447 H         1 <0>         0.0604
     63 H31        14.7607   -9.0087   -9.3758 H         1 <0>         0.0622
     64 H32        15.0632   -7.7576   -8.1464 H         1 <0>         0.0619
     65 H33        12.6538   -8.3331   -8.2565 H         1 <0>         0.0640
     66 H34        12.6286   -7.8975   -9.9822 H         1 <0>         0.0644
@<TRIPOS>BOND
     1    1    2 1
     2    1   33 1
     3    1   34 1
     4    1   35 1
     5    2    3 1
     6    2   36 1
     7    2   37 1
     8    3    4 1
     9    3    5 1
    10    3   30 1
    11    4   38 1
    12    4   39 1
    13    4   40 1
    14    5    6 1
    15    5   41 1
    16    5   42 1
    17    6   11 ar
    18    6    7 ar
    19    7    8 ar
    20    7   43 1
    21    8    9 ar
    22    8   44 1
    23    9   10 ar
    24    9   12 1
    25   10   11 ar
    26   10   45 1
    27   11   46 1
    28   12   13 1
    29   13   14 1
    30   13   47 1
    31   13   48 1
    32   14   15 1
    33   14   49 1
    34   14   50 1
    35   15   16 1
    36   15   51 1
    37   15   52 1
    38   16   17 1
    39   17   22 ar
    40   17   18 ar
    41   18   19 ar
    42   18   53 1
    43   19   20 ar
    44   19   54 1
    45   20   21 ar
    46   20   24 1
    47   21   22 ar
    48   21   55 1
    49   22   23 1
    50   24   29 1
    51   24   25 1
    52   24   56 1
    53   25   26 1
    54   25   57 1
    55   25   58 1
    56   26   27 1
    57   26   59 1
    58   26   60 1
    59   27   28 1
    60   27   61 1
    61   27   62 1
    62   28   29 1
    63   28   63 1
    64   28   64 1
    65   29   65 1
    66   29   66 1
    67   30   31 2
    68   30   32 1
@<TRIPOS>MOLECULE
CHEMBL240437
   69    72     0     0     0
SMALL
USER_CHARGES

@<TRIPOS>ATOM
      1 C1         -2.0150   -8.9631    1.9248 C.3       1 <0>        -0.1481
      2 C2         -3.4983   -9.0612    2.2866 C.3       1 <0>        -0.0884
      3 C3         -4.1975   -7.7865    1.8901 C.ar      1 <0>        -0.0611
      4 C4         -4.2792   -6.7374    2.7880 C.ar      1 <0>        -0.1306
      5 C5         -4.9183   -5.5677    2.4303 C.ar      1 <0>        -0.0676
      6 C6         -5.4820   -5.4446    1.1616 C.ar      1 <0>        -0.0543
      7 C7         -5.3966   -6.5049    0.2610 C.ar      1 <0>        -0.0647
      8 C8         -4.7502   -7.6678    0.6276 C.ar      1 <0>        -0.1286
      9 C9         -6.1705   -4.1902    0.7715 C.ar      1 <0>         0.3675
     10 N1         -6.2365   -3.1916    1.6412 N.ar      1 <0>        -0.5154
     11 C10        -6.8426   -2.0566    1.3294 C.ar      1 <0>         0.1547
     12 C11        -7.4131   -1.9160    0.0783 C.ar      1 <0>        -0.1917
     13 C12        -7.3279   -2.9850   -0.8171 C.ar      1 <0>         0.4315
     14 N2         -6.7000   -4.0934   -0.4399 N.ar      1 <0>        -0.5187
     15 N3         -7.8857   -2.8888   -2.0817 N.pl3     1 <0>        -0.6598
     16 C13        -9.2828   -3.2734   -2.2973 C.3       1 <0>         0.1166
     17 C14        -7.0784   -2.4026   -3.2033 C.3       1 <0>         0.1519
     18 C15        -6.3813   -3.5845   -3.8801 C.3       1 <0>        -0.1387
     19 C16        -5.5381   -3.0766   -5.0514 C.3       1 <0>         0.0642
     20 O1         -4.8870   -4.1805   -5.6835 O.3       1 <0>        -0.3166
     21 C17        -4.0932   -3.9001   -6.7504 C.ar      1 <0>         0.1158
     22 C18        -3.9390   -2.5889   -7.1772 C.ar      1 <0>        -0.2090
     23 C19        -3.1318   -2.3092   -8.2610 C.ar      1 <0>        -0.0703
     24 C20        -2.4748   -3.3321   -8.9255 C.ar      1 <0>        -0.1105
     25 C21        -2.6270   -4.6394   -8.5022 C.ar      1 <0>        -0.0607
     26 C22        -3.4310   -4.9224   -7.4116 C.ar      1 <0>        -0.1422
     27 C23        -1.8136   -5.5612   -9.3854 C.3       1 <0>        -0.0842
     28 C24        -1.5008   -4.7356  -10.6514 C.3       1 <0>        -0.0980
     29 C25        -1.5485   -3.2866  -10.1220 C.3       1 <0>        -0.0249
     30 H1         -0.5533   -2.9622   -9.8178 H         1 <0>         0.0846
     31 C26        -2.1096   -2.3485  -11.1925 C.3       1 <0>        -0.1739
     32 C27        -1.1153   -2.2180  -12.3174 C.2       1 <0>         0.4906
     33 O2         -0.0937   -2.8833  -12.3082 O.co2     1 <0>        -0.6944
     34 O3         -1.3325   -1.4472  -13.2367 O.co2     1 <0>        -0.7087
     35 C28        -8.1115   -0.6386   -0.3109 C.3       1 <0>        -0.0682
     36 C29        -9.6001   -0.7485    0.0251 C.3       1 <0>        -0.1475
     37 H2         -1.5093   -9.8851    2.2116 H         1 <0>         0.0588
     38 H3         -1.9124   -8.8116    0.8503 H         1 <0>         0.0576
     39 H4         -1.5665   -8.1227    2.4547 H         1 <0>         0.0563
     40 H5         -3.9468   -9.9016    1.7567 H         1 <0>         0.0734
     41 H6         -3.6009   -9.2128    3.3612 H         1 <0>         0.0728
     42 H7         -3.8423   -6.8340    3.7710 H         1 <0>         0.1258
     43 H8         -4.9818   -4.7494    3.1322 H         1 <0>         0.1356
     44 H9         -5.8320   -6.4151   -0.7233 H         1 <0>         0.1356
     45 H10        -4.6793   -8.4883   -0.0711 H         1 <0>         0.1266
     46 H11        -6.8912   -1.2493    2.0452 H         1 <0>         0.1684
     47 H12        -9.9203   -2.3942   -2.2034 H         1 <0>         0.0468
     48 H13        -9.3931   -3.6973   -3.2954 H         1 <0>         0.0649
     49 H14        -9.5745   -4.0147   -1.5534 H         1 <0>         0.0555
     50 H15        -7.7233   -1.8998   -3.9241 H         1 <0>         0.0803
     51 H16        -6.3295   -1.7015   -2.8349 H         1 <0>         0.0665
     52 H17        -5.7364   -4.0872   -3.1593 H         1 <0>         0.0772
     53 H18        -7.1302   -4.2856   -4.2485 H         1 <0>         0.0750
     54 H19        -6.1830   -2.5739   -5.7722 H         1 <0>         0.0604
     55 H20        -4.7893   -2.3755   -4.6830 H         1 <0>         0.0579
     56 H21        -4.4500   -1.7887   -6.6624 H         1 <0>         0.1228
     57 H22        -3.0120   -1.2885   -8.5929 H         1 <0>         0.1217
     58 H23        -3.5461   -5.9431   -7.0777 H         1 <0>         0.1227
     59 H24        -0.8897   -5.8482   -8.8833 H         1 <0>         0.0785
     60 H25        -2.3945   -6.4462   -9.6450 H         1 <0>         0.0700
     61 H26        -0.5092   -4.9755  -11.0352 H         1 <0>         0.0877
     62 H27        -2.2620   -4.8942  -11.4153 H         1 <0>         0.0632
     63 H28        -3.0440   -2.7558  -11.5789 H         1 <0>         0.0570
     64 H29        -2.2943   -1.3673  -10.7552 H         1 <0>         0.0550
     65 H30        -7.6757    0.1958    0.2385 H         1 <0>         0.0741
     66 H31        -7.9921   -0.4708   -1.3813 H         1 <0>         0.0796
     67 H32       -10.0114   -1.6464   -0.4361 H         1 <0>         0.0575
     68 H33        -9.7253   -0.8055    1.1064 H         1 <0>         0.0534
     69 H34       -10.1242    0.1282   -0.3555 H         1 <0>         0.0614
@<TRIPOS>BOND
     1    1    2 1
     2    1   37 1
     3    1   38 1
     4    1   39 1
     5    2    3 1
     6    2   40 1
     7    2   41 1
     8    3    8 ar
     9    3    4 ar
    10    4    5 ar
    11    4   42 1
    12    5    6 ar
    13    5   43 1
    14    6    7 ar
    15    6    9 1
    16    7    8 ar
    17    7   44 1
    18    8   45 1
    19    9   14 ar
    20    9   10 ar
    21   10   11 ar
    22   11   12 ar
    23   11   46 1
    24   12   13 ar
    25   12   35 1
    26   13   14 ar
    27   13   15 1
    28   15   16 1
    29   15   17 1
    30   16   47 1
    31   16   48 1
    32   16   49 1
    33   17   18 1
    34   17   50 1
    35   17   51 1
    36   18   19 1
    37   18   52 1
    38   18   53 1
    39   19   20 1
    40   19   54 1
    41   19   55 1
    42   20   21 1
    43   21   26 ar
    44   21   22 ar
    45   22   23 ar
    46   22   56 1
    47   23   24 ar
    48   23   57 1
    49   24   29 1
    50   24   25 ar
    51   25   26 ar
    52   25   27 1
    53   26   58 1
    54   27   28 1
    55   27   59 1
    56   27   60 1
    57   28   29 1
    58   28   61 1
    59   28   62 1
    60   29   30 1
    61   29   31 1
    62   31   32 1
    63   31   63 1
    64   31   64 1
    65   32   33 2
    66   32   34 1
    67   35   36 1
    68   35   65 1
    69   35   66 1
    70   36   67 1
    71   36   68 1
    72   36   69 1
@<TRIPOS>MOLECULE
CHEMBL240437__1
   70    73     0     0     0
SMALL
USER_CHARGES

@<TRIPOS>ATOM
      1 C1         -9.9737    4.6677   -2.8023 C.3       1 <0>        -0.1495
      2 C2         -8.5734    4.5961   -2.1902 C.3       1 <0>        -0.1015
      3 C3         -8.2717    3.1746   -1.7910 C.ar      1 <0>        -0.0149
      4 C4         -8.6033    2.7296   -0.5239 C.ar      1 <0>        -0.1203
      5 C5         -8.3294    1.4289   -0.1529 C.ar      1 <0>        -0.0245
      6 C6         -7.7176    0.5631   -1.0576 C.ar      1 <0>        -0.1251
      7 C7         -7.3857    1.0169   -2.3329 C.ar      1 <0>        -0.0786
      8 C8         -7.6695    2.3181   -2.6949 C.ar      1 <0>        -0.1164
      9 C9         -7.4203   -0.8358   -0.6645 C.ar      1 <0>         0.4525
     10 N1         -6.8329   -1.6419   -1.5381 N.ar      1 <0>        -0.5056
     11 C10        -6.5517   -2.8969   -1.2239 C.ar      1 <0>         0.1769
     12 C11        -6.8770   -3.3683    0.0339 C.ar      1 <0>        -0.1522
     13 C12        -7.4952   -2.4962    0.9334 C.ar      1 <0>         0.5220
     14 N2         -7.7435   -1.2476    0.5533 N.ar      1 <0>        -0.4749
     15 N3         -7.8397   -2.9256    2.2048 N.pl3     1 <0>        -0.6652
     16 C13        -9.1483   -3.5404    2.4409 C.3       1 <0>         0.1058
     17 C14        -6.8952   -2.7649    3.3132 C.3       1 <0>         0.1427
     18 C15        -7.1247   -1.4103    3.9864 C.3       1 <0>        -0.1409
     19 C16        -6.1383   -1.2424    5.1439 C.3       1 <0>         0.0626
     20 O1         -6.3527    0.0228    5.7727 O.3       1 <0>        -0.3178
     21 C17        -5.5530    0.3309    6.8275 C.ar      1 <0>         0.1089
     22 C18        -4.5779   -0.5632    7.2457 C.ar      1 <0>        -0.2083
     23 C19        -3.7683   -0.2458    8.3173 C.ar      1 <0>        -0.0706
     24 C20        -3.9251    0.9618    8.9780 C.ar      1 <0>        -0.1036
     25 C21        -4.8961    1.8543    8.5632 C.ar      1 <0>        -0.0586
     26 C22        -5.7055    1.5415    7.4848 C.ar      1 <0>        -0.1400
     27 C23        -4.8654    3.0879    9.4401 C.3       1 <0>        -0.0855
     28 C24        -4.0742    2.6699   10.6976 C.3       1 <0>        -0.0989
     29 C25        -3.1757    1.5352   10.1618 C.3       1 <0>        -0.0269
     30 H1         -2.2127    1.9340    9.8428 H         1 <0>         0.0865
     31 C26        -2.9781    0.4628   11.2351 C.3       1 <0>        -0.1743
     32 C27        -2.1228    1.0155   12.3460 C.2       1 <0>         0.4898
     33 O2         -1.7790    2.1851   12.3264 O.co2     1 <0>        -0.6936
     34 O3         -1.7746    0.2930   13.2643 O.co2     1 <0>        -0.7060
     35 C28        -6.5723   -4.7911    0.4262 C.3       1 <0>        -0.0788
     36 C29        -7.7793   -5.6768    0.1105 C.3       1 <0>        -0.1556
     37 H2        -10.1919    5.6958   -3.0911 H         1 <0>         0.0689
     38 H3        -10.0189    4.0258   -3.6822 H         1 <0>         0.0577
     39 H4        -10.7080    4.3324   -2.0699 H         1 <0>         0.0596
     40 H5         -7.8391    4.9314   -2.9227 H         1 <0>         0.0839
     41 H6         -8.5282    5.2379   -1.3104 H         1 <0>         0.0859
     42 H7         -9.0771    3.4015    0.1765 H         1 <0>         0.1456
     43 H8         -8.5884    1.0826    0.8368 H         1 <0>         0.1504
     44 H9         -6.9111    0.3504   -3.0378 H         1 <0>         0.1255
     45 H10        -7.4171    2.6694   -3.6845 H         1 <0>         0.1435
     46 H11        -6.0734   -3.5454   -1.9430 H         1 <0>         0.2203
     47 H12        -9.0625   -4.6233    2.3512 H         1 <0>         0.0634
     48 H13        -9.4944   -3.2850    3.4424 H         1 <0>         0.0839
     49 H14        -9.8618   -3.1702    1.7046 H         1 <0>         0.0630
     50 H15        -7.0489   -3.5625    4.0400 H         1 <0>         0.1000
     51 H16        -5.8754   -2.8128    2.9313 H         1 <0>         0.0746
     52 H17        -6.9710   -0.6126    3.2596 H         1 <0>         0.0745
     53 H18        -8.1445   -1.3624    4.3682 H         1 <0>         0.0824
     54 H19        -6.2920   -2.0401    5.8707 H         1 <0>         0.0644
     55 H20        -5.1185   -1.2903    4.7621 H         1 <0>         0.0585
     56 H21        -4.4530   -1.5060    6.7338 H         1 <0>         0.1213
     57 H22        -3.0094   -0.9420    8.6425 H         1 <0>         0.1235
     58 H23        -6.4608    2.2406    7.1575 H         1 <0>         0.1229
     59 H24        -4.3566    3.9040    8.9270 H         1 <0>         0.0797
     60 H25        -5.8785    3.3841    9.7117 H         1 <0>         0.0715
     61 H26        -3.4715    3.4986   11.0694 H         1 <0>         0.0898
     62 H27        -4.7455    2.2995   11.4724 H         1 <0>         0.0647
     63 H28        -3.9476    0.1669   11.6359 H         1 <0>         0.0573
     64 H29        -2.4865   -0.4050   10.7954 H         1 <0>         0.0548
     65 H30        -5.7061   -5.1446   -0.1331 H         1 <0>         0.0956
     66 H31        -6.3583   -4.8357    1.4940 H         1 <0>         0.1024
     67 H32        -7.9259   -5.7201   -0.9687 H         1 <0>         0.0599
     68 H33        -7.6027   -6.6818    0.4938 H         1 <0>         0.0799
     69 H34        -8.6693   -5.2595    0.5816 H         1 <0>         0.0626
     70 H35        -6.6064   -1.3075   -2.4201 H         1 <0>         0.4487
@<TRIPOS>BOND
     1    1    2 1
     2    1   37 1
     3    1   38 1
     4    1   39 1
     5    2    3 1
     6    2   40 1
     7    2   41 1
     8    3    8 ar
     9    3    4 ar
    10    4    5 ar
    11    4   42 1
    12    5    6 ar
    13    5   43 1
    14    6    7 ar
    15    6    9 1
    16    7    8 ar
    17    7   44 1
    18    8   45 1
    19    9   14 ar
    20    9   10 ar
    21   10   11 ar
    22   10   70 1
    23   11   12 ar
    24   11   46 1
    25   12   13 ar
    26   12   35 1
    27   13   14 ar
    28   13   15 1
    29   15   16 1
    30   15   17 1
    31   16   47 1
    32   16   48 1
    33   16   49 1
    34   17   18 1
    35   17   50 1
    36   17   51 1
    37   18   19 1
    38   18   52 1
    39   18   53 1
    40   19   20 1
    41   19   54 1
    42   19   55 1
    43   20   21 1
    44   21   26 ar
    45   21   22 ar
    46   22   23 ar
    47   22   56 1
    48   23   24 ar
    49   23   57 1
    50   24   29 1
    51   24   25 ar
    52   25   26 ar
    53   25   27 1
    54   26   58 1
    55   27   28 1
    56   27   59 1
    57   27   60 1
    58   28   29 1
    59   28   61 1
    60   28   62 1
    61   29   30 1
    62   29   31 1
    63   31   32 1
    64   31   63 1
    65   31   64 1
    66   32   33 2
    67   32   34 1
    68   35   36 1
    69   35   65 1
    70   35   66 1
    71   36   67 1
    72   36   68 1
    73   36   69 1
@<TRIPOS>MOLECULE
CHEMBL473952
   60    64     0     0     0
SMALL
USER_CHARGES

@<TRIPOS>ATOM
      1 C1         -0.0184    1.5028    0.0103 C.3       1 <0>        -0.0714
      2 C2          0.0021   -0.0041    0.0020 C.2       1 <0>        -0.0330
      3 C3         -1.0705   -0.8164    0.0025 C.2       1 <0>        -0.0052
      4 N1         -0.6270   -2.0826   -0.0064 N.2       1 <0>        -0.4583
      5 C4          0.6851   -2.0676   -0.0123 C.2       1 <0>         0.2279
      6 O1          1.0981   -0.7883   -0.0131 O.3       1 <0>        -0.1936
      7 C5          1.5619   -3.2577   -0.0227 C.ar      1 <0>        -0.0165
      8 C6          1.0059   -4.5378   -0.0330 C.ar      1 <0>        -0.0707
      9 C7          1.8298   -5.6443   -0.0432 C.ar      1 <0>        -0.1203
     10 C8          3.2044   -5.4871   -0.0433 C.ar      1 <0>        -0.1015
     11 C9          3.7620   -4.2209   -0.0327 C.ar      1 <0>        -0.1215
     12 C10         2.9493   -3.1060   -0.0282 C.ar      1 <0>        -0.0909
     13 C11        -2.5133   -0.3814    0.0119 C.3       1 <0>        -0.0347
     14 C12        -3.0085   -0.2260   -1.4274 C.3       1 <0>         0.0697
     15 O2         -4.3766    0.1865   -1.4185 O.3       1 <0>        -0.3171
     16 C13        -4.9731    0.3716   -2.6255 C.ar      1 <0>         0.1125
     17 C14        -4.2579    0.1549   -3.7946 C.ar      1 <0>        -0.2128
     18 C15        -4.8665    0.3431   -5.0201 C.ar      1 <0>        -0.0909
     19 C16        -6.1876    0.7473   -5.0825 C.ar      1 <0>        -0.1265
     20 C17        -6.9022    0.9643   -3.9192 C.ar      1 <0>        -0.0295
     21 C18        -6.2996    0.7718   -2.6908 C.ar      1 <0>        -0.1413
     22 C19        -8.3415    1.4051   -3.9909 C.3       1 <0>         0.0018
     23 C20        -9.2372    0.1935   -4.0169 C.2       1 <0>         0.1260
     24 C21        -9.6742   -0.4925   -5.1746 C.2       1 <0>        -0.2542
     25 C22       -10.4741   -1.5381   -4.7502 C.2       1 <0>         0.0661
     26 N2        -10.5197   -1.4887   -3.4079 N.pl3     1 <0>        -0.3310
     27 N3         -9.7408   -0.4096   -2.9760 N.2       1 <0>        -0.3107
     28 C23       -11.2246   -2.3727   -2.5797 C.ar      1 <0>         0.1807
     29 C24       -11.9546   -3.4146   -3.1360 C.ar      1 <0>        -0.1504
     30 C25       -12.6483   -4.2841   -2.3172 C.ar      1 <0>        -0.0913
     31 C26       -12.6167   -4.1176   -0.9448 C.ar      1 <0>        -0.1452
     32 C27       -11.8906   -3.0809   -0.3879 C.ar      1 <0>        -0.0963
     33 C28       -11.1898   -2.2118   -1.2010 C.ar      1 <0>        -0.1286
     34 C29        -9.3415   -0.1568   -6.5665 C.2       1 <0>         0.5546
     35 O3         -9.7870   -0.8345   -7.4826 O.co2     1 <0>        -0.6943
     36 O4         -8.6190    0.8005   -6.8090 O.co2     1 <0>        -0.6811
     37 H1          1.0042    1.8801    0.0026 H         1 <0>         0.0801
     38 H2         -0.5455    1.8639   -0.8728 H         1 <0>         0.0926
     39 H3         -0.5286    1.8543    0.9071 H         1 <0>         0.0930
     40 H4         -0.0670   -4.6619   -0.0326 H         1 <0>         0.1392
     41 H5          1.4008   -6.6354   -0.0508 H         1 <0>         0.1327
     42 H6          3.8450   -6.3565   -0.0513 H         1 <0>         0.1283
     43 H7          4.8357   -4.1050   -0.0321 H         1 <0>         0.1304
     44 H8          3.3858   -2.1181   -0.0249 H         1 <0>         0.1300
     45 H9         -3.1156   -1.1316    0.5243 H         1 <0>         0.0940
     46 H10        -2.6018    0.5726    0.5316 H         1 <0>         0.0926
     47 H11        -2.4061    0.5242   -1.9398 H         1 <0>         0.0592
     48 H12        -2.9200   -1.1800   -1.9471 H         1 <0>         0.0630
     49 H13        -3.2261   -0.1604   -3.7464 H         1 <0>         0.1172
     50 H14        -4.3102    0.1749   -5.9304 H         1 <0>         0.1205
     51 H15        -6.6617    0.8940   -6.0418 H         1 <0>         0.1610
     52 H16        -6.8596    0.9372   -1.7823 H         1 <0>         0.1255
     53 H17        -8.5789    2.0139   -3.1184 H         1 <0>         0.0763
     54 H18        -8.4972    1.9916   -4.8964 H         1 <0>         0.1205
     55 H19       -10.9704   -2.2607   -5.3810 H         1 <0>         0.1775
     56 H20       -11.9802   -3.5448   -4.2078 H         1 <0>         0.1310
     57 H21       -13.2163   -5.0948   -2.7493 H         1 <0>         0.1287
     58 H22       -13.1605   -4.7983   -0.3067 H         1 <0>         0.1232
     59 H23       -11.8678   -2.9533    0.6843 H         1 <0>         0.1269
     60 H24       -10.6193   -1.4050   -0.7652 H         1 <0>         0.1360
@<TRIPOS>BOND
     1    1    2 1
     2    1   37 1
     3    1   38 1
     4    1   39 1
     5    2    6 1
     6    2    3 2
     7    3    4 1
     8    3   13 1
     9    4    5 2
    10    5    6 1
    11    5    7 1
    12    7   12 ar
    13    7    8 ar
    14    8    9 ar
    15    8   40 1
    16    9   10 ar
    17    9   41 1
    18   10   11 ar
    19   10   42 1
    20   11   12 ar
    21   11   43 1
    22   12   44 1
    23   13   14 1
    24   13   45 1
    25   13   46 1
    26   14   15 1
    27   14   47 1
    28   14   48 1
    29   15   16 1
    30   16   21 ar
    31   16   17 ar
    32   17   18 ar
    33   17   49 1
    34   18   19 ar
    35   18   50 1
    36   19   20 ar
    37   19   51 1
    38   20   21 ar
    39   20   22 1
    40   21   52 1
    41   22   23 1
    42   22   53 1
    43   22   54 1
    44   23   27 2
    45   23   24 1
    46   24   25 2
    47   24   34 1
    48   25   26 1
    49   25   55 1
    50   26   27 1
    51   26   28 1
    52   28   33 ar
    53   28   29 ar
    54   29   30 ar
    55   29   56 1
    56   30   31 ar
    57   30   57 1
    58   31   32 ar
    59   31   58 1
    60   32   33 ar
    61   32   59 1
    62   33   60 1
    63   34   35 2
    64   34   36 1
@<TRIPOS>MOLECULE
CHEMBL491142
   62    66     0     0     0
SMALL
USER_CHARGES

@<TRIPOS>ATOM
      1 C1         -0.0184    1.5028    0.0103 C.3       1 <0>        -0.0699
      2 C2          0.0021   -0.0041    0.0020 C.2       1 <0>        -0.0353
      3 C3         -1.0705   -0.8164    0.0025 C.2       1 <0>        -0.0041
      4 N1         -0.6270   -2.0826   -0.0064 N.2       1 <0>        -0.4565
      5 C4          0.6851   -2.0676   -0.0123 C.2       1 <0>         0.2291
      6 O1          1.0981   -0.7883   -0.0131 O.3       1 <0>        -0.1938
      7 C5          1.5619   -3.2577   -0.0227 C.ar      1 <0>        -0.0156
      8 C6          1.0059   -4.5378   -0.0330 C.ar      1 <0>        -0.0693
      9 C7          1.8298   -5.6443   -0.0432 C.ar      1 <0>        -0.1200
     10 C8          3.2044   -5.4871   -0.0433 C.ar      1 <0>        -0.1021
     11 C9          3.7620   -4.2209   -0.0327 C.ar      1 <0>        -0.1223
     12 C10         2.9493   -3.1060   -0.0282 C.ar      1 <0>        -0.0909
     13 C11        -2.5133   -0.3814    0.0119 C.3       1 <0>        -0.0325
     14 C12        -3.0085   -0.2260   -1.4274 C.3       1 <0>         0.0661
     15 O2         -4.3766    0.1865   -1.4185 O.3       1 <0>        -0.3184
     16 C13        -4.9731    0.3716   -2.6255 C.ar      1 <0>         0.1242
     17 C14        -4.2580    0.1549   -3.7944 C.ar      1 <0>        -0.1919
     18 C15        -4.8667    0.3432   -5.0201 C.ar      1 <0>        -0.0248
     19 C16        -6.1874    0.7477   -5.0825 C.ar      1 <0>        -0.1166
     20 C17        -6.9021    0.9648   -3.9190 C.ar      1 <0>        -0.0719
     21 C18        -6.2998    0.7719   -2.6908 C.ar      1 <0>        -0.1616
     22 C19        -6.8489    0.9529   -6.4210 C.3       1 <0>         0.0197
     23 C20        -7.4853   -0.3373   -6.8698 C.2       1 <0>         0.0259
     24 C21        -6.8919   -1.3498   -7.6283 C.2       1 <0>         0.0894
     25 N2         -7.8134   -2.2749   -7.7772 N.2       1 <0>        -0.2967
     26 N3         -8.8837   -1.8919   -7.1759 N.pl3     1 <0>        -0.1255
     27 N4         -8.7106   -0.7436   -6.6233 N.2       1 <0>        -0.2938
     28 C22       -10.0756   -2.6286   -7.1251 C.ar      1 <0>         0.1689
     29 C23       -11.1790   -2.1208   -6.4526 C.ar      1 <0>        -0.1146
     30 C24       -12.3519   -2.8486   -6.4047 C.ar      1 <0>        -0.1031
     31 C25       -12.4277   -4.0820   -7.0252 C.ar      1 <0>        -0.1283
     32 C26       -11.3304   -4.5904   -7.6958 C.ar      1 <0>        -0.1013
     33 C27       -10.1565   -3.8647   -7.7520 C.ar      1 <0>        -0.1118
     34 C28        -5.4842   -1.3754   -8.1658 C.3       1 <0>        -0.1155
     35 C29        -4.5714   -2.0170   -7.1528 C.2       1 <0>         0.5019
     36 O3         -5.0221   -2.4165   -6.0927 O.co2     1 <0>        -0.6724
     37 O4         -3.3821   -2.1367   -7.3933 O.co2     1 <0>        -0.7008
     38 H1          1.0042    1.8801    0.0026 H         1 <0>         0.0795
     39 H2         -0.5455    1.8639   -0.8728 H         1 <0>         0.0923
     40 H3         -0.5286    1.8543    0.9071 H         1 <0>         0.0915
     41 H4         -0.0670   -4.6619   -0.0326 H         1 <0>         0.1399
     42 H5          1.4008   -6.6354   -0.0508 H         1 <0>         0.1327
     43 H6          3.8450   -6.3565   -0.0513 H         1 <0>         0.1277
     44 H7          4.8357   -4.1050   -0.0321 H         1 <0>         0.1297
     45 H8          3.3858   -2.1181   -0.0249 H         1 <0>         0.1296
     46 H9         -3.1156   -1.1316    0.5243 H         1 <0>         0.0934
     47 H10        -2.6018    0.5726    0.5316 H         1 <0>         0.0909
     48 H11        -2.4061    0.5242   -1.9398 H         1 <0>         0.0607
     49 H12        -2.9200   -1.1800   -1.9471 H         1 <0>         0.0695
     50 H13        -3.2262   -0.1604   -3.7462 H         1 <0>         0.1222
     51 H14        -4.3105    0.1747   -5.9304 H         1 <0>         0.1259
     52 H15        -7.9335    1.2810   -3.9704 H         1 <0>         0.1232
     53 H16        -6.8598    0.9373   -1.7823 H         1 <0>         0.1231
     54 H17        -7.6139    1.7243   -6.3338 H         1 <0>         0.0850
     55 H18        -6.1019    1.2629   -7.1517 H         1 <0>         0.0903
     56 H19       -11.1201   -1.1579   -5.9671 H         1 <0>         0.1394
     57 H20       -13.2105   -2.4542   -5.8817 H         1 <0>         0.1314
     58 H21       -13.3457   -4.6496   -6.9858 H         1 <0>         0.1267
     59 H22       -11.3926   -5.5540   -8.1795 H         1 <0>         0.1321
     60 H23        -9.3013   -4.2602   -8.2797 H         1 <0>         0.1412
     61 H24        -5.4594   -1.9493   -9.0921 H         1 <0>         0.0772
     62 H25        -5.1511   -0.3561   -8.3608 H         1 <0>         0.0808
@<TRIPOS>BOND
     1    1    2 1
     2    1   38 1
     3    1   39 1
     4    1   40 1
     5    2    6 1
     6    2    3 2
     7    3    4 1
     8    3   13 1
     9    4    5 2
    10    5    6 1
    11    5    7 1
    12    7   12 ar
    13    7    8 ar
    14    8    9 ar
    15    8   41 1
    16    9   10 ar
    17    9   42 1
    18   10   11 ar
    19   10   43 1
    20   11   12 ar
    21   11   44 1
    22   12   45 1
    23   13   14 1
    24   13   46 1
    25   13   47 1
    26   14   15 1
    27   14   48 1
    28   14   49 1
    29   15   16 1
    30   16   21 ar
    31   16   17 ar
    32   17   18 ar
    33   17   50 1
    34   18   19 ar
    35   18   51 1
    36   19   20 ar
    37   19   22 1
    38   20   21 ar
    39   20   52 1
    40   21   53 1
    41   22   23 1
    42   22   54 1
    43   22   55 1
    44   23   27 2
    45   23   24 1
    46   24   25 2
    47   24   34 1
    48   25   26 1
    49   26   27 1
    50   26   28 1
    51   28   33 ar
    52   28   29 ar
    53   29   30 ar
    54   29   56 1
    55   30   31 ar
    56   30   57 1
    57   31   32 ar
    58   31   58 1
    59   32   33 ar
    60   32   59 1
    61   33   60 1
    62   34   35 1
    63   34   61 1
    64   34   62 1
    65   35   36 2
    66   35   37 1
@<TRIPOS>MOLECULE
CHEMBL513145
   61    64     0     0     0
SMALL
USER_CHARGES

@<TRIPOS>ATOM
      1 C1         -0.0184    1.5028    0.0103 C.3       1 <0>        -0.1193
      2 C2          0.0021   -0.0041    0.0020 C.ar      1 <0>        -0.0663
      3 C3          0.0057   -0.6862   -1.2017 C.ar      1 <0>        -0.1225
      4 C4          0.0239   -2.0656   -1.2163 C.ar      1 <0>        -0.0846
      5 C5          0.0392   -2.7730   -0.0132 C.ar      1 <0>        -0.0248
      6 C6          0.0359   -2.0787    1.1975 C.ar      1 <0>        -0.0649
      7 C7          0.0229   -0.6992    1.1981 C.ar      1 <0>        -0.1222
      8 C8          0.0582   -4.2511   -0.0214 C.2       1 <0>         0.2332
      9 N1          0.0684   -5.0231    1.0397 N.2       1 <0>        -0.4608
     10 C9          0.0849   -6.3032    0.6386 C.2       1 <0>        -0.0082
     11 C10         0.0847   -6.3137   -0.7068 C.2       1 <0>        -0.0326
     12 O1          0.0622   -5.0300   -1.1169 O.3       1 <0>        -0.1931
     13 C11         0.1008   -7.5340   -1.5908 C.3       1 <0>        -0.0725
     14 C12         0.1011   -7.5141    1.5356 C.3       1 <0>        -0.0329
     15 C13        -1.3358   -7.9431    1.8394 C.3       1 <0>         0.0670
     16 O2         -1.3204   -9.0913    2.6899 O.3       1 <0>        -0.3169
     17 C14        -2.5245   -9.6031    3.0573 C.ar      1 <0>         0.1190
     18 C15        -3.6967   -9.0158    2.6038 C.ar      1 <0>        -0.2043
     19 C16        -4.9195   -9.5383    2.9784 C.ar      1 <0>        -0.0708
     20 C17        -4.9757  -10.6453    3.8049 C.ar      1 <0>        -0.1062
     21 C18        -3.8088  -11.2322    4.2585 C.ar      1 <0>        -0.0810
     22 C19        -2.5835  -10.7172    3.8819 C.ar      1 <0>        -0.1521
     23 C20        -6.3109  -11.2129    4.2123 C.3       1 <0>        -0.0671
     24 C21        -6.7484  -12.2683    3.1947 C.3       1 <0>        -0.1484
     25 C22        -7.0054  -11.5998    1.8397 C.3       1 <0>         0.0509
     26 O3         -8.1196  -10.7108    1.9643 O.3       1 <0>        -0.3655
     27 C23        -9.3195  -11.3493    2.4076 C.3       1 <0>         0.2072
     28 O4         -9.0917  -11.9615    3.6794 O.3       1 <0>        -0.3568
     29 C24        -8.0433  -12.9353    3.6712 C.3       1 <0>         0.0507
     30 C25        -9.7330  -12.4181    1.3939 C.3       1 <0>        -0.1868
     31 C26       -10.4172  -10.3244    2.5329 C.2       1 <0>         0.5278
     32 O5        -10.8307   -9.7496    1.5404 O.co2     1 <0>        -0.6719
     33 O6        -10.8918  -10.0700    3.6268 O.co2     1 <0>        -0.6619
     34 H1          1.0042    1.8801    0.0026 H         1 <0>         0.0743
     35 H2         -0.5455    1.8639   -0.8728 H         1 <0>         0.0696
     36 H3         -0.5286    1.8543    0.9071 H         1 <0>         0.0703
     37 H4         -0.0062   -0.1376   -2.1319 H         1 <0>         0.1305
     38 H5          0.0259   -2.5969   -2.1566 H         1 <0>         0.1305
     39 H6          0.0473   -2.6202    2.1319 H         1 <0>         0.1391
     40 H7          0.0244   -0.1607    2.1343 H         1 <0>         0.1324
     41 H8         -0.9229   -7.8419   -1.8038 H         1 <0>         0.0889
     42 H9          0.6114   -7.2994   -2.5248 H         1 <0>         0.0812
     43 H10         0.6255   -8.3435   -1.0833 H         1 <0>         0.0957
     44 H11         0.6257   -8.3289    1.0365 H         1 <0>         0.0921
     45 H12         0.6119   -7.2696    2.4669 H         1 <0>         0.0940
     46 H13        -1.8604   -7.1283    2.3384 H         1 <0>         0.0664
     47 H14        -1.8466   -8.1876    0.9080 H         1 <0>         0.0624
     48 H15        -3.6534   -8.1507    1.9588 H         1 <0>         0.1239
     49 H16        -5.8323   -9.0814    2.6256 H         1 <0>         0.1331
     50 H17        -3.8554  -12.0966    4.9043 H         1 <0>         0.1266
     51 H18        -1.6724  -11.1787    4.2329 H         1 <0>         0.1266
     52 H19        -6.2255  -11.6714    5.1975 H         1 <0>         0.0697
     53 H20        -7.0505  -10.4129    4.2468 H         1 <0>         0.0892
     54 H21        -5.9669  -13.0210    3.0903 H         1 <0>         0.0793
     55 H22        -6.1220  -11.0376    1.5369 H         1 <0>         0.0905
     56 H23        -7.2284  -12.3621    1.0932 H         1 <0>         0.0456
     57 H24        -8.3057  -13.7482    2.9940 H         1 <0>         0.0465
     58 H25        -7.9024  -13.3282    4.6781 H         1 <0>         0.0891
     59 H26        -8.9390  -13.1594    1.3033 H         1 <0>         0.0474
     60 H27       -10.6478  -12.9049    1.7319 H         1 <0>         0.0663
     61 H28        -9.9067  -11.9514    0.4243 H         1 <0>         0.0774
@<TRIPOS>BOND
     1    1    2 1
     2    1   34 1
     3    1   35 1
     4    1   36 1
     5    2    7 ar
     6    2    3 ar
     7    3    4 ar
     8    3   37 1
     9    4    5 ar
    10    4   38 1
    11    5    6 ar
    12    5    8 1
    13    6    7 ar
    14    6   39 1
    15    7   40 1
    16    8   12 1
    17    8    9 2
    18    9   10 1
    19   10   11 2
    20   10   14 1
    21   11   12 1
    22   11   13 1
    23   13   41 1
    24   13   42 1
    25   13   43 1
    26   14   15 1
    27   14   44 1
    28   14   45 1
    29   15   16 1
    30   15   46 1
    31   15   47 1
    32   16   17 1
    33   17   22 ar
    34   17   18 ar
    35   18   19 ar
    36   18   48 1
    37   19   20 ar
    38   19   49 1
    39   20   21 ar
    40   20   23 1
    41   21   22 ar
    42   21   50 1
    43   22   51 1
    44   23   24 1
    45   23   52 1
    46   23   53 1
    47   24   29 1
    48   24   25 1
    49   24   54 1
    50   25   26 1
    51   25   55 1
    52   25   56 1
    53   26   27 1
    54   27   28 1
    55   27   30 1
    56   27   31 1
    57   28   29 1
    58   29   57 1
    59   29   58 1
    60   30   59 1
    61   30   60 1
    62   30   61 1
    63   31   32 2
    64   31   33 1
@<TRIPOS>MOLECULE
CHEMBL255271
   67    71     0     0     0
SMALL
USER_CHARGES

@<TRIPOS>ATOM
      1 C1         -0.0416    3.2123   -1.6797 C.3       1 <0>        -0.0710
      2 C2          0.2660    1.7547   -1.9073 C.2       1 <0>        -0.0340
      3 C3         -0.6042    0.7324   -1.8178 C.2       1 <0>        -0.0019
      4 N1          0.0618   -0.3994   -2.0924 N.2       1 <0>        -0.4567
      5 C4          1.3134   -0.0985   -2.3470 C.2       1 <0>         0.2246
      6 O1          1.4624    1.2335   -2.2439 O.3       1 <0>        -0.1944
      7 C5          2.3791   -1.0620   -2.6952 C.ar      1 <0>        -0.0145
      8 C6          2.0909   -2.4248   -2.7819 C.ar      1 <0>        -0.0710
      9 C7          3.0901   -3.3186   -3.1077 C.ar      1 <0>        -0.1203
     10 C8          4.3754   -2.8666   -3.3484 C.ar      1 <0>        -0.1026
     11 C9          4.6678   -1.5170   -3.2636 C.ar      1 <0>        -0.1217
     12 C10         3.6766   -0.6120   -2.9443 C.ar      1 <0>        -0.0916
     13 C11        -2.0667    0.8395   -1.4703 C.3       1 <0>        -0.0376
     14 C12        -2.8827    1.0267   -2.7510 C.3       1 <0>         0.0700
     15 O2         -4.2695    1.1284   -2.4215 O.3       1 <0>        -0.3070
     16 C13        -5.1378    1.2990   -3.4530 C.ar      1 <0>         0.1262
     17 C14        -4.6652    1.3614   -4.7560 C.ar      1 <0>        -0.2202
     18 C15        -5.5498    1.5343   -5.8027 C.ar      1 <0>        -0.0922
     19 C16        -6.9054    1.6452   -5.5527 C.ar      1 <0>        -0.1545
     20 C17        -7.3786    1.5838   -4.2552 C.ar      1 <0>        -0.0310
     21 C18        -6.4984    1.4052   -3.2053 C.ar      1 <0>        -0.1274
     22 C19        -8.8565    1.7056   -3.9864 C.3       1 <0>        -0.0411
     23 C20        -9.4864    0.3368   -4.0135 C.2       1 <0>        -0.1660
     24 C21        -9.6667   -0.2918   -2.8689 C.2       1 <0>        -0.1255
     25 C22       -10.2637   -1.6620   -2.7422 C.3       1 <0>        -0.0877
     26 C23       -11.0450   -2.0229   -4.0081 C.3       1 <0>         0.1229
     27 N2        -10.2174   -1.6620   -5.1719 N.pl3     1 <0>        -0.5657
     28 C24        -9.8828   -0.2399   -5.3443 C.3       1 <0>         0.1751
     29 C25        -9.7770   -2.6215   -6.0668 C.ar      1 <0>         0.5849
     30 N3         -9.0299   -2.2510   -7.0966 N.ar      1 <0>        -0.5458
     31 C26        -8.5924   -3.1428   -7.9699 C.ar      1 <0>         0.2084
     32 C27        -8.9245   -4.4776   -7.7974 C.ar      1 <0>        -0.2634
     33 C28        -9.7074   -4.8303   -6.7096 C.ar      1 <0>         0.1379
     34 N4        -10.1079   -3.8892   -5.8706 N.ar      1 <0>        -0.5377
     35 C29       -10.0931   -6.2692   -6.4822 C.3       1 <0>         0.5244
     36 F1         -9.1251   -6.8913   -5.6865 F         1 <0>        -0.1668
     37 F2        -11.3328   -6.3232   -5.8361 F         1 <0>        -0.1620
     38 F3        -10.1795   -6.9290   -7.7128 F         1 <0>        -0.1688
     39 C30        -9.2562    0.3935   -1.6384 C.2       1 <0>         0.5234
     40 O3         -9.9871    1.2354   -1.1339 O.co2     1 <0>        -0.6898
     41 O4         -8.1827    0.1233   -1.1165 O.co2     1 <0>        -0.6786
     42 H1          0.8629    3.8020   -1.8290 H         1 <0>         0.0794
     43 H2         -0.8071    3.5365   -2.3847 H         1 <0>         0.0922
     44 H3         -0.4029    3.3527   -0.6610 H         1 <0>         0.0940
     45 H4          1.0881   -2.7790   -2.5939 H         1 <0>         0.1396
     46 H5          2.8685   -4.3735   -3.1748 H         1 <0>         0.1325
     47 H6          5.1539   -3.5705   -3.6031 H         1 <0>         0.1278
     48 H7          5.6733   -1.1707   -3.4520 H         1 <0>         0.1300
     49 H8          3.9051    0.4418   -2.8832 H         1 <0>         0.1298
     50 H9         -2.3877   -0.0712   -0.9648 H         1 <0>         0.0967
     51 H10        -2.2221    1.6945   -0.8123 H         1 <0>         0.0942
     52 H11        -2.5616    1.9375   -3.2565 H         1 <0>         0.0570
     53 H12        -2.7273    0.1718   -3.4090 H         1 <0>         0.0613
     54 H13        -3.6066    1.2751   -4.9518 H         1 <0>         0.1163
     55 H14        -5.1824    1.5833   -6.8171 H         1 <0>         0.1157
     56 H15        -7.5954    1.7804   -6.3724 H         1 <0>         0.1171
     57 H16        -6.8691    1.3528   -2.1922 H         1 <0>         0.1611
     58 H17        -9.0115    2.1575   -3.0067 H         1 <0>         0.0996
     59 H18        -9.3147    2.3317   -4.7520 H         1 <0>         0.0696
     60 H19        -9.4666   -2.3899   -2.5907 H         1 <0>         0.0762
     61 H20       -10.9363   -1.6843   -1.8847 H         1 <0>         0.0842
     62 H21       -11.2521   -3.0930   -4.0208 H         1 <0>         0.0980
     63 H22       -11.9813   -1.4654   -4.0347 H         1 <0>         0.0757
     64 H23       -10.7489    0.2974   -5.7308 H         1 <0>         0.0714
     65 H24        -9.0524   -0.1458   -6.0441 H         1 <0>         0.0995
     66 H25        -7.9841   -2.8348   -8.8075 H         1 <0>         0.1784
     67 H26        -8.5808   -5.2264   -8.4957 H         1 <0>         0.1535
@<TRIPOS>BOND
     1    1    2 1
     2    1   42 1
     3    1   43 1
     4    1   44 1
     5    2    6 1
     6    2    3 2
     7    3    4 1
     8    3   13 1
     9    4    5 2
    10    5    6 1
    11    5    7 1
    12    7   12 ar
    13    7    8 ar
    14    8    9 ar
    15    8   45 1
    16    9   10 ar
    17    9   46 1
    18   10   11 ar
    19   10   47 1
    20   11   12 ar
    21   11   48 1
    22   12   49 1
    23   13   14 1
    24   13   50 1
    25   13   51 1
    26   14   15 1
    27   14   52 1
    28   14   53 1
    29   15   16 1
    30   16   21 ar
    31   16   17 ar
    32   17   18 ar
    33   17   54 1
    34   18   19 ar
    35   18   55 1
    36   19   20 ar
    37   19   56 1
    38   20   21 ar
    39   20   22 1
    40   21   57 1
    41   22   23 1
    42   22   58 1
    43   22   59 1
    44   23   28 1
    45   23   24 2
    46   24   25 1
    47   24   39 1
    48   25   26 1
    49   25   60 1
    50   25   61 1
    51   26   27 1
    52   26   62 1
    53   26   63 1
    54   27   28 1
    55   27   29 1
    56   28   64 1
    57   28   65 1
    58   29   34 ar
    59   29   30 ar
    60   30   31 ar
    61   31   32 ar
    62   31   66 1
    63   32   33 ar
    64   32   67 1
    65   33   34 ar
    66   33   35 1
    67   35   36 1
    68   35   37 1
    69   35   38 1
    70   39   40 2
    71   39   41 1
@<TRIPOS>MOLECULE
CHEMBL515667
   76    79     0     0     0
SMALL
USER_CHARGES

@<TRIPOS>ATOM
      1 C1         -0.2975    1.1344   -0.9591 C.3       1 <0>        -0.0953
      2 C2         -0.2421   -0.3704   -0.8989 C.ar      1 <0>        -0.1426
      3 C3         -0.1130   -1.1046   -2.0622 C.ar      1 <0>        -0.0740
      4 C4         -0.0627   -2.4850   -2.0078 C.ar      1 <0>        -0.1655
      5 C5         -0.1409   -3.1346   -0.7894 C.ar      1 <0>        -0.0787
      6 C6         -0.2696   -2.4052    0.3764 C.ar      1 <0>        -0.1553
      7 C7         -0.3151   -1.0193    0.3249 C.ar      1 <0>         0.1802
      8 O1         -0.4360   -0.2992    1.4710 O.3       1 <0>        -0.2985
      9 C8         -0.3823   -1.0240    2.7013 C.3       1 <0>         0.0292
     10 C9          0.9575   -1.7556    2.8042 C.3       1 <0>        -0.1728
     11 C10        -0.5232   -0.0506    3.8733 C.3       1 <0>        -0.1148
     12 C11        -1.5066   -2.0266    2.7432 C.2       1 <0>         0.4815
     13 O2         -2.2820   -2.1125    1.8062 O.co2     1 <0>        -0.6682
     14 O3         -1.6409   -2.7519    3.7140 O.co2     1 <0>        -0.6857
     15 C12         0.0772   -3.2834   -3.2782 C.3       1 <0>         0.1737
     16 N1          1.4977   -3.4873   -3.5729 N.am      1 <0>        -0.7080
     17 C13         1.8659   -4.1795   -4.6692 C.2       1 <0>         0.6012
     18 O4          1.0193   -4.6347   -5.4134 O.2       1 <0>        -0.5374
     19 C14         3.2984   -4.3852   -4.9664 C.2       1 <0>        -0.0120
     20 C15         3.8316   -5.0799   -6.0737 C.2       1 <0>        -0.1561
     21 C16         5.1889   -5.0092   -5.9287 C.2       1 <0>         0.0470
     22 N2          5.4272   -4.3037   -4.7863 N.pl3     1 <0>        -0.2679
     23 N3          4.3154   -3.9490   -4.2496 N.2       1 <0>        -0.2450
     24 C17         6.7554   -3.9920   -4.2526 C.3       1 <0>         0.1474
     25 C18         7.1678   -2.6147   -4.7044 C.ar      1 <0>        -0.1203
     26 C19         7.8557   -2.4542   -5.8925 C.ar      1 <0>        -0.0936
     27 C20         8.2340   -1.1908   -6.3070 C.ar      1 <0>        -0.1243
     28 C21         7.9239   -0.0880   -5.5334 C.ar      1 <0>        -0.1061
     29 C22         7.2351   -0.2484   -4.3457 C.ar      1 <0>        -0.1217
     30 C23         6.8531   -1.5113   -3.9334 C.ar      1 <0>        -0.0861
     31 C24         6.2046   -5.5871   -6.8369 C.ar      1 <0>        -0.0192
     32 C25         7.3945   -6.1003   -6.3208 C.ar      1 <0>        -0.1185
     33 C26         8.3374   -6.6382   -7.1726 C.ar      1 <0>        -0.1088
     34 C27         8.1044   -6.6693   -8.5359 C.ar      1 <0>        -0.0643
     35 C28         6.9262   -6.1619   -9.0539 C.ar      1 <0>        -0.1138
     36 C29         5.9733   -5.6261   -8.2120 C.ar      1 <0>        -0.0897
     37 C30         9.1386   -7.2578   -9.4607 C.3       1 <0>        -0.0309
     38 C31         9.3783   -8.7230   -9.0913 C.3       1 <0>        -0.1397
     39 C32         8.6402   -7.1708  -10.9046 C.3       1 <0>        -0.1463
     40 C33        10.4474   -6.4769   -9.3250 C.3       1 <0>        -0.1391
     41 H1          0.7126    1.5381   -0.8909 H         1 <0>         0.0578
     42 H2         -0.7497    1.4439   -1.9014 H         1 <0>         0.0566
     43 H3         -0.8956    1.5095   -0.1286 H         1 <0>         0.0670
     44 H4         -0.0517   -0.5996   -3.0149 H         1 <0>         0.1182
     45 H5         -0.1017   -4.2131   -0.7495 H         1 <0>         0.1150
     46 H6         -0.3307   -2.9129    1.3276 H         1 <0>         0.1408
     47 H7          1.7590   -1.0289    2.9372 H         1 <0>         0.0502
     48 H8          0.9366   -2.4337    3.6573 H         1 <0>         0.0746
     49 H9          1.1314   -2.3253    1.8914 H         1 <0>         0.0673
     50 H10        -1.4382    0.5299    3.7555 H         1 <0>         0.0568
     51 H11        -0.5658   -0.6104    4.8075 H         1 <0>         0.0781
     52 H12         0.3341    0.6223    3.8918 H         1 <0>         0.0502
     53 H13        -0.4108   -4.2503   -3.1554 H         1 <0>         0.0740
     54 H14        -0.3904   -2.7423   -4.1007 H         1 <0>         0.0729
     55 H15         2.1733   -3.1242   -2.9791 H         1 <0>         0.4074
     56 H16         3.2830   -5.5647   -6.8677 H         1 <0>         0.1633
     57 H17         6.7258   -4.0234   -3.1634 H         1 <0>         0.1113
     58 H18         7.4749   -4.7248   -4.6178 H         1 <0>         0.1175
     59 H19         8.0980   -3.3159   -6.4969 H         1 <0>         0.1221
     60 H20         8.7721   -1.0655   -7.2349 H         1 <0>         0.1235
     61 H21         8.2201    0.8990   -5.8569 H         1 <0>         0.1238
     62 H22         6.9931    0.6132   -3.7412 H         1 <0>         0.1266
     63 H23         6.3117   -1.6363   -3.0073 H         1 <0>         0.1283
     64 H24         7.5777   -6.0763   -5.2567 H         1 <0>         0.1251
     65 H25         9.2592   -7.0356   -6.7743 H         1 <0>         0.1251
     66 H26         6.7502   -6.1889  -10.1191 H         1 <0>         0.1318
     67 H27         5.0522   -5.2341   -8.6171 H         1 <0>         0.1294
     68 H28         8.4459   -9.2793   -9.1879 H         1 <0>         0.0576
     69 H29        10.1263   -9.1487   -9.7601 H         1 <0>         0.0589
     70 H30         9.7334   -8.7850   -8.0626 H         1 <0>         0.0572
     71 H31         8.4694   -6.1269  -11.1678 H         1 <0>         0.0595
     72 H32         9.3882   -7.5965  -11.5734 H         1 <0>         0.0587
     73 H33         7.7078   -7.7271  -11.0012 H         1 <0>         0.0601
     74 H34        10.8025   -6.5389   -8.2964 H         1 <0>         0.0572
     75 H35        11.1954   -6.9026   -9.9939 H         1 <0>         0.0588
     76 H36        10.2766   -5.4331   -9.5882 H         1 <0>         0.0568
@<TRIPOS>BOND
     1    1    2 1
     2    1   41 1
     3    1   42 1
     4    1   43 1
     5    2    7 ar
     6    2    3 ar
     7    3    4 ar
     8    3   44 1
     9    4    5 ar
    10    4   15 1
    11    5    6 ar
    12    5   45 1
    13    6    7 ar
    14    6   46 1
    15    7    8 1
    16    8    9 1
    17    9   10 1
    18    9   11 1
    19    9   12 1
    20   10   47 1
    21   10   48 1
    22   10   49 1
    23   11   50 1
    24   11   51 1
    25   11   52 1
    26   12   13 2
    27   12   14 1
    28   15   16 1
    29   15   53 1
    30   15   54 1
    31   16   17 am
    32   16   55 1
    33   17   18 2
    34   17   19 1
    35   19   23 2
    36   19   20 1
    37   20   21 2
    38   20   56 1
    39   21   22 1
    40   21   31 1
    41   22   23 1
    42   22   24 1
    43   24   25 1
    44   24   57 1
    45   24   58 1
    46   25   30 ar
    47   25   26 ar
    48   26   27 ar
    49   26   59 1
    50   27   28 ar
    51   27   60 1
    52   28   29 ar
    53   28   61 1
    54   29   30 ar
    55   29   62 1
    56   30   63 1
    57   31   36 ar
    58   31   32 ar
    59   32   33 ar
    60   32   64 1
    61   33   34 ar
    62   33   65 1
    63   34   35 ar
    64   34   37 1
    65   35   36 ar
    66   35   66 1
    67   36   67 1
    68   37   38 1
    69   37   39 1
    70   37   40 1
    71   38   68 1
    72   38   69 1
    73   38   70 1
    74   39   71 1
    75   39   72 1
    76   39   73 1
    77   40   74 1
    78   40   75 1
    79   40   76 1
@<TRIPOS>MOLECULE
CHEMBL457062
   82    85     0     0     0
SMALL
USER_CHARGES

@<TRIPOS>ATOM
      1 C1         -0.8599    0.9710   -0.3581 C.3       1 <0>        -0.0954
      2 C2         -0.8160   -0.5349   -0.3191 C.ar      1 <0>        -0.1428
      3 C3         -0.8196   -1.2574   -1.4968 C.ar      1 <0>        -0.0742
      4 C4         -0.7800   -2.6388   -1.4617 C.ar      1 <0>        -0.1661
      5 C5         -0.7361   -3.3010   -0.2484 C.ar      1 <0>        -0.0787
      6 C6         -0.7319   -2.5833    0.9317 C.ar      1 <0>        -0.1552
      7 C7         -0.7664   -1.1965    0.8990 C.ar      1 <0>         0.1805
      8 O1         -0.7566   -0.4880    2.0586 O.3       1 <0>        -0.2984
      9 C8         -0.5809   -1.2269    3.2690 C.3       1 <0>         0.0291
     10 C9          0.7537   -1.9736    3.2216 C.3       1 <0>        -0.1728
     11 C10        -0.5852   -0.2652    4.4589 C.3       1 <0>        -0.1149
     12 C11        -1.7060   -2.2181    3.4202 C.2       1 <0>         0.4816
     13 O2         -2.5775   -2.2855    2.5702 O.co2     1 <0>        -0.6682
     14 O3         -1.7447   -2.9527    4.3925 O.co2     1 <0>        -0.6855
     15 C12        -0.7850   -3.4244   -2.7477 C.3       1 <0>         0.1736
     16 N1          0.5938   -3.6401   -3.1936 N.am      1 <0>        -0.7078
     17 C13         0.8355   -4.3239   -4.3295 C.2       1 <0>         0.6006
     18 O4         -0.0906   -4.7617   -4.9842 O.2       1 <0>        -0.5361
     19 C14         2.2259   -4.5414   -4.7792 C.2       1 <0>        -0.0085
     20 C15         2.6305   -5.2293   -5.9438 C.2       1 <0>        -0.1573
     21 C16         3.9962   -5.1746   -5.9430 C.2       1 <0>         0.0511
     22 N2          4.3626   -4.4845   -4.8253 N.pl3     1 <0>        -0.2745
     23 N3          3.3182   -4.1240   -4.1701 N.2       1 <0>        -0.2496
     24 C17         5.7434   -4.1928   -4.4326 C.3       1 <0>         0.1139
     25 C18         6.1444   -2.8149   -4.9633 C.3       1 <0>         0.0337
     26 N4          7.5619   -2.5691   -4.6659 N.3       1 <0>        -0.5318
     27 C19         7.7844   -2.4569   -3.2170 C.3       1 <0>         0.0084
     28 C20         9.2791   -2.2613   -2.9494 C.3       1 <0>         0.0645
     29 O5          9.7383   -1.1075   -3.6587 O.3       1 <0>        -0.3838
     30 C21         9.5376   -1.1833   -5.0727 C.3       1 <0>         0.0647
     31 C22         8.0456   -1.3679   -5.3618 C.3       1 <0>         0.0175
     32 C23         4.9030   -5.7531   -6.9596 C.ar      1 <0>        -0.0258
     33 C24         4.4704   -6.8060   -7.7658 C.ar      1 <0>        -0.0902
     34 C25         5.3204   -7.3408   -8.7121 C.ar      1 <0>        -0.1100
     35 C26         6.5992   -6.8349   -8.8622 C.ar      1 <0>        -0.0644
     36 C27         7.0341   -5.7907   -8.0656 C.ar      1 <0>        -0.1133
     37 C28         6.1918   -5.2439   -7.1194 C.ar      1 <0>        -0.1250
     38 C29         7.5225   -7.4239   -9.8973 C.3       1 <0>        -0.0310
     39 C30         6.8970   -7.2704  -11.2851 C.3       1 <0>        -0.1395
     40 C31         8.8651   -6.6912   -9.8592 C.3       1 <0>        -0.1452
     41 C32         7.7429   -8.9082   -9.5986 C.3       1 <0>        -0.1396
     42 H1          0.1565    1.3633   -0.3935 H         1 <0>         0.0576
     43 H2         -1.4057    1.2958   -1.2438 H         1 <0>         0.0567
     44 H3         -1.3620    1.3431    0.5349 H         1 <0>         0.0672
     45 H4         -0.8538   -0.7425   -2.4455 H         1 <0>         0.1182
     46 H5         -0.7056   -4.3803   -0.2236 H         1 <0>         0.1151
     47 H6         -0.6977   -3.1009    1.8789 H         1 <0>         0.1410
     48 H7          1.5731   -1.2572    3.2799 H         1 <0>         0.0502
     49 H8          0.8139   -2.6638    4.0630 H         1 <0>         0.0748
     50 H9          0.8248   -2.5317    2.2880 H         1 <0>         0.0671
     51 H10        -1.5010    0.3258    4.4451 H         1 <0>         0.0569
     52 H11        -0.5345   -0.8349    5.3868 H         1 <0>         0.0783
     53 H12         0.2767    0.3987    4.3926 H         1 <0>         0.0502
     54 H13        -1.2685   -4.3873   -2.5833 H         1 <0>         0.0744
     55 H14        -1.3309   -2.8692   -3.5105 H         1 <0>         0.0734
     56 H15         1.3327   -3.2907   -2.6712 H         1 <0>         0.4073
     57 H16         1.9951   -5.6994   -6.6797 H         1 <0>         0.1649
     58 H17         5.8212   -4.2001   -3.3454 H         1 <0>         0.1042
     59 H18         6.4074   -4.9500   -4.8494 H         1 <0>         0.1171
     60 H19         5.9883   -2.7814   -6.0415 H         1 <0>         0.0886
     61 H20         5.5345   -2.0493   -4.4838 H         1 <0>         0.0560
     62 H21         7.2302   -1.6023   -2.8288 H         1 <0>         0.0512
     63 H22         7.4425   -3.3673   -2.7246 H         1 <0>         0.0897
     64 H23         9.4421   -2.1205   -1.8809 H         1 <0>         0.1011
     65 H24         9.8277   -3.1397   -3.2893 H         1 <0>         0.0614
     66 H25         9.8877   -0.2627   -5.5398 H         1 <0>         0.0998
     67 H26        10.0938   -2.0303   -5.4743 H         1 <0>         0.0612
     68 H27         7.8944   -1.4834   -6.4351 H         1 <0>         0.0886
     69 H28         7.4956   -0.4959   -5.0079 H         1 <0>         0.0482
     70 H29         3.4724   -7.2021   -7.6493 H         1 <0>         0.1298
     71 H30         4.9868   -8.1563   -9.3367 H         1 <0>         0.1261
     72 H31         8.0336   -5.4000   -8.1875 H         1 <0>         0.1301
     73 H32         6.5310   -4.4260   -6.5009 H         1 <0>         0.1360
     74 H33         6.7400   -6.2129  -11.4979 H         1 <0>         0.0568
     75 H34         7.5648   -7.6964  -12.0338 H         1 <0>         0.0587
     76 H35         5.9405   -7.7923  -11.3123 H         1 <0>         0.0580
     77 H36         9.3108   -6.8006   -8.8704 H         1 <0>         0.0594
     78 H37         9.5330   -7.1173  -10.6079 H         1 <0>         0.0584
     79 H38         8.7082   -5.6338  -10.0720 H         1 <0>         0.0589
     80 H39         6.7864   -9.4302   -9.6258 H         1 <0>         0.0579
     81 H40         8.4107   -9.3343  -10.3473 H         1 <0>         0.0587
     82 H41         8.1885   -9.0176   -8.6099 H         1 <0>         0.0569
@<TRIPOS>BOND
     1    1    2 1
     2    1   42 1
     3    1   43 1
     4    1   44 1
     5    2    7 ar
     6    2    3 ar
     7    3    4 ar
     8    3   45 1
     9    4    5 ar
    10    4   15 1
    11    5    6 ar
    12    5   46 1
    13    6    7 ar
    14    6   47 1
    15    7    8 1
    16    8    9 1
    17    9   10 1
    18    9   11 1
    19    9   12 1
    20   10   48 1
    21   10   49 1
    22   10   50 1
    23   11   51 1
    24   11   52 1
    25   11   53 1
    26   12   13 2
    27   12   14 1
    28   15   16 1
    29   15   54 1
    30   15   55 1
    31   16   17 am
    32   16   56 1
    33   17   18 2
    34   17   19 1
    35   19   23 2
    36   19   20 1
    37   20   21 2
    38   20   57 1
    39   21   22 1
    40   21   32 1
    41   22   23 1
    42   22   24 1
    43   24   25 1
    44   24   58 1
    45   24   59 1
    46   25   26 1
    47   25   60 1
    48   25   61 1
    49   26   31 1
    50   26   27 1
    51   27   28 1
    52   27   62 1
    53   27   63 1
    54   28   29 1
    55   28   64 1
    56   28   65 1
    57   29   30 1
    58   30   31 1
    59   30   66 1
    60   30   67 1
    61   31   68 1
    62   31   69 1
    63   32   37 ar
    64   32   33 ar
    65   33   34 ar
    66   33   70 1
    67   34   35 ar
    68   34   71 1
    69   35   36 ar
    70   35   38 1
    71   36   37 ar
    72   36   72 1
    73   37   73 1
    74   38   39 1
    75   38   40 1
    76   38   41 1
    77   39   74 1
    78   39   75 1
    79   39   76 1
    80   40   77 1
    81   40   78 1
    82   40   79 1
    83   41   80 1
    84   41   81 1
    85   41   82 1
@<TRIPOS>MOLECULE
CHEMBL457062__1
   83    86     0     0     0
SMALL
USER_CHARGES

@<TRIPOS>ATOM
      1 C1         -0.8540    0.9615   -0.2894 C.3       1 <0>        -0.0963
      2 C2         -0.8145   -0.5447   -0.2577 C.ar      1 <0>        -0.1432
      3 C3         -0.8262   -1.2616   -1.4387 C.ar      1 <0>        -0.0744
      4 C4         -0.7905   -2.6433   -1.4103 C.ar      1 <0>        -0.1708
      5 C5         -0.7425   -3.3113   -0.2004 C.ar      1 <0>        -0.0788
      6 C6         -0.7301   -2.5992    0.9830 C.ar      1 <0>        -0.1547
      7 C7         -0.7606   -1.2122    0.9571 C.ar      1 <0>         0.1838
      8 O1         -0.7429   -0.5091    2.1199 O.3       1 <0>        -0.2971
      9 C8         -0.5632   -1.2543    3.3259 C.3       1 <0>         0.0286
     10 C9          0.7688   -2.0047    3.2681 C.3       1 <0>        -0.1715
     11 C10        -0.5585   -0.2981    4.5203 C.3       1 <0>        -0.1160
     12 C11        -1.6905   -2.2428    3.4783 C.2       1 <0>         0.4805
     13 O2         -2.5665   -2.3036    2.6324 O.co2     1 <0>        -0.6680
     14 O3         -1.7264   -2.9818    4.4473 O.co2     1 <0>        -0.6823
     15 C12        -0.8043   -3.4228   -2.6999 C.3       1 <0>         0.1723
     16 N1          0.5715   -3.6405   -3.1538 N.am      1 <0>        -0.7031
     17 C13         0.8054   -4.3197   -4.2942 C.2       1 <0>         0.5918
     18 O4         -0.1253   -4.7517   -4.9461 O.2       1 <0>        -0.5239
     19 C14         2.1928   -4.5392   -4.7519 C.2       1 <0>         0.0209
     20 C15         2.5894   -5.2228   -5.9217 C.2       1 <0>        -0.1430
     21 C16         3.9553   -5.1721   -5.9276 C.2       1 <0>         0.0520
     22 N2          4.3294   -4.4883   -4.8086 N.pl3     1 <0>        -0.2928
     23 N3          3.2894   -4.1279   -4.1464 N.2       1 <0>        -0.2529
     24 C17         5.7131   -4.2026   -4.4215 C.3       1 <0>         0.0966
     25 C18         6.1150   -2.8228   -4.9465 C.3       1 <0>        -0.0375
     26 N4          7.5336   -2.5809   -4.6517 N.4       1 <0>        -0.3822
     27 C19         7.7272   -2.5136   -3.1967 C.3       1 <0>        -0.0539
     28 C20         9.2060   -2.2617   -2.8922 C.3       1 <0>         0.0381
     29 O5          9.6202   -1.0523   -3.5338 O.3       1 <0>        -0.3543
     30 C21         9.4289   -1.0600   -4.9512 C.3       1 <0>         0.0376
     31 C22         7.9505   -1.3097   -5.2595 C.3       1 <0>        -0.0445
     32 C23         4.8552   -5.7486   -6.9515 C.ar      1 <0>        -0.0255
     33 C24         4.4154   -6.7963   -7.7606 C.ar      1 <0>        -0.0827
     34 C25         5.2589   -7.3291   -8.7137 C.ar      1 <0>        -0.0976
     35 C26         6.5385   -6.8263   -8.8678 C.ar      1 <0>        -0.0533
     36 C27         6.9806   -5.7874   -8.0684 C.ar      1 <0>        -0.1161
     37 C28         6.1447   -5.2425   -7.1154 C.ar      1 <0>        -0.1380
     38 C29         7.4548   -7.4132   -9.9103 C.3       1 <0>        -0.0339
     39 C30         6.8228   -7.2512  -11.2942 C.3       1 <0>        -0.1426
     40 C31         8.7998   -6.6848   -9.8755 C.3       1 <0>        -0.1454
     41 C32         7.6721   -8.8996   -9.6198 C.3       1 <0>        -0.1423
     42 H1          0.1633    1.3509   -0.3281 H         1 <0>         0.0566
     43 H2         -1.4034    1.2921   -1.1708 H         1 <0>         0.0576
     44 H3         -1.3505    1.3309    0.6079 H         1 <0>         0.0690
     45 H4         -0.8637   -0.7422   -2.3848 H         1 <0>         0.1176
     46 H5         -0.7150   -4.3908   -0.1808 H         1 <0>         0.1150
     47 H6         -0.6927   -3.1214    1.9277 H         1 <0>         0.1422
     48 H7          1.5907   -1.2910    3.3262 H         1 <0>         0.0494
     49 H8          0.8311   -2.6995    4.1056 H         1 <0>         0.0760
     50 H9          0.8337   -2.5581    2.3313 H         1 <0>         0.0653
     51 H10        -1.4726    0.2957    4.5140 H         1 <0>         0.0584
     52 H11        -0.5047   -0.8723    5.4452 H         1 <0>         0.0797
     53 H12         0.3051    0.3635    4.4527 H         1 <0>         0.0502
     54 H13        -1.2899   -4.3851   -2.5376 H         1 <0>         0.0774
     55 H14        -1.3525   -2.8625   -3.4573 H         1 <0>         0.0763
     56 H15         1.3141   -3.2958   -2.6336 H         1 <0>         0.4055
     57 H16         1.9489   -5.6876   -6.6567 H         1 <0>         0.1733
     58 H17         5.7966   -4.2163   -3.3348 H         1 <0>         0.1267
     59 H18         6.3728   -4.9592   -4.8462 H         1 <0>         0.1249
     60 H19         5.9560   -2.7836   -6.0241 H         1 <0>         0.1436
     61 H20         5.5077   -2.0585   -4.4616 H         1 <0>         0.1509
     62 H21         7.1280   -1.7002   -2.7874 H         1 <0>         0.1471
     63 H22         7.4183   -3.4562   -2.7448 H         1 <0>         0.1445
     64 H23         9.3452   -2.1685   -1.8151 H         1 <0>         0.1454
     65 H24         9.8016   -3.0945   -3.2661 H         1 <0>         0.0824
     66 H25         9.7293   -0.0971   -5.3643 H         1 <0>         0.1439
     67 H26        10.0321   -1.8517   -5.3956 H         1 <0>         0.0819
     68 H27         7.8074   -1.3586   -6.3390 H         1 <0>         0.1444
     69 H28         7.3512   -0.4968   -4.8494 H         1 <0>         0.1438
     70 H29         3.4168   -7.1898   -7.6410 H         1 <0>         0.1364
     71 H30         4.9197   -8.1405   -9.3405 H         1 <0>         0.1340
     72 H31         7.9806   -5.3991   -8.1935 H         1 <0>         0.1312
     73 H32         6.4895   -4.4287   -6.4948 H         1 <0>         0.1023
     74 H33         6.6680   -6.1922  -11.5012 H         1 <0>         0.0573
     75 H34         7.4856   -7.6757  -12.0483 H         1 <0>         0.0639
     76 H35         5.8646   -7.7701  -11.3191 H         1 <0>         0.0605
     77 H36         9.2501   -6.8003   -8.8895 H         1 <0>         0.0570
     78 H37         9.4626   -7.1094  -10.6295 H         1 <0>         0.0640
     79 H38         8.6451   -5.6259  -10.0824 H         1 <0>         0.0575
     80 H39         6.7139   -9.4185   -9.6447 H         1 <0>         0.0604
     81 H40         8.3348   -9.3241  -10.3739 H         1 <0>         0.0639
     82 H41         8.1223   -9.0151   -8.6339 H         1 <0>         0.0568
     83 H42         8.0891   -3.3331   -5.0307 H         1 <0>         0.4221
@<TRIPOS>BOND
     1    1    2 1
     2    1   42 1
     3    1   43 1
     4    1   44 1
     5    2    7 ar
     6    2    3 ar
     7    3    4 ar
     8    3   45 1
     9    4    5 ar
    10    4   15 1
    11    5    6 ar
    12    5   46 1
    13    6    7 ar
    14    6   47 1
    15    7    8 1
    16    8    9 1
    17    9   10 1
    18    9   11 1
    19    9   12 1
    20   10   48 1
    21   10   49 1
    22   10   50 1
    23   11   51 1
    24   11   52 1
    25   11   53 1
    26   12   13 2
    27   12   14 1
    28   15   16 1
    29   15   54 1
    30   15   55 1
    31   16   17 am
    32   16   56 1
    33   17   18 2
    34   17   19 1
    35   19   23 2
    36   19   20 1
    37   20   21 2
    38   20   57 1
    39   21   22 1
    40   21   32 1
    41   22   23 1
    42   22   24 1
    43   24   25 1
    44   24   58 1
    45   24   59 1
    46   25   26 1
    47   25   60 1
    48   25   61 1
    49   26   31 1
    50   26   27 1
    51   26   83 1
    52   27   28 1
    53   27   62 1
    54   27   63 1
    55   28   29 1
    56   28   64 1
    57   28   65 1
    58   29   30 1
    59   30   31 1
    60   30   66 1
    61   30   67 1
    62   31   68 1
    63   31   69 1
    64   32   37 ar
    65   32   33 ar
    66   33   34 ar
    67   33   70 1
    68   34   35 ar
    69   34   71 1
    70   35   36 ar
    71   35   38 1
    72   36   37 ar
    73   36   72 1
    74   37   73 1
    75   38   39 1
    76   38   40 1
    77   38   41 1
    78   39   74 1
    79   39   75 1
    80   39   76 1
    81   40   77 1
    82   40   78 1
    83   40   79 1
    84   41   80 1
    85   41   81 1
    86   41   82 1
@<TRIPOS>MOLECULE
CHEMBL201653
   63    66     0     0     0
SMALL
USER_CHARGES

@<TRIPOS>ATOM
      1 C1          1.3213    0.9427    0.2164 C.3       1 <0>        -0.1529
      2 C2          0.9207   -0.5339    0.2099 C.3       1 <0>        -0.1175
      3 C3         -0.5923   -0.6509    0.0147 C.3       1 <0>        -0.0728
      4 C4         -0.9870   -2.1053    0.0083 C.ar      1 <0>        -0.1248
      5 C5         -1.1062   -2.7799   -1.1859 C.ar      1 <0>        -0.0425
      6 C6         -1.4724   -4.1293   -1.1907 C.ar      1 <0>        -0.2051
      7 C7         -1.7161   -4.7879    0.0188 C.ar      1 <0>        -0.0183
      8 C8         -1.5947   -4.1058    1.2081 C.ar      1 <0>        -0.2198
      9 C9         -1.2247   -2.7653    1.2085 C.ar      1 <0>         0.1732
     10 O1         -1.1007   -2.0981    2.3836 O.3       1 <0>        -0.2998
     11 C10        -1.3594   -2.8364    3.5793 C.3       1 <0>         0.0607
     12 C11        -1.1707   -1.9241    4.7930 C.3       1 <0>        -0.1186
     13 C12        -1.4478   -2.7147    6.0733 C.3       1 <0>         0.0655
     14 O2         -1.2715   -1.8626    7.2068 O.3       1 <0>        -0.3090
     15 C13        -1.4808   -2.4135    8.4312 C.ar      1 <0>         0.1699
     16 C14        -1.8412   -3.7426    8.5433 C.ar      1 <0>        -0.2532
     17 C15        -2.0548   -4.3073    9.7926 C.ar      1 <0>        -0.0750
     18 C16        -1.9124   -3.5557   10.9383 C.ar      1 <0>        -0.1482
     19 C17        -1.5501   -2.2147   10.8509 C.ar      1 <0>         0.1493
     20 C18        -1.3269   -1.6397    9.5879 C.ar      1 <0>        -0.1352
     21 C19        -0.9603   -0.2434    9.8364 C.2       1 <0>        -0.2062
     22 C20        -0.9762   -0.0644   11.1664 C.2       1 <0>         0.0599
     23 N1         -1.3349   -1.2301   11.7891 N.pl3     1 <0>        -0.4399
     24 C21        -1.4562   -1.4074   13.2383 C.3       1 <0>         0.0321
     25 C22        -0.1629   -1.9517   13.7878 C.2       1 <0>         0.4806
     26 O3          0.7734   -2.1712   13.0384 O.co2     1 <0>        -0.6712
     27 O4         -0.0528   -2.1726   14.9818 O.co2     1 <0>        -0.6925
     28 C23        -1.6018   -4.8561   -2.4677 C.2       1 <0>         0.4453
     29 O5         -2.0518   -5.9857   -2.4816 O.2       1 <0>        -0.4493
     30 C24        -1.1849   -4.2120   -3.7293 C.ar      1 <0>        -0.1648
     31 C25        -0.0959   -3.3364   -3.7433 C.ar      1 <0>        -0.0566
     32 C26         0.2889   -2.7385   -4.9237 C.ar      1 <0>        -0.1610
     33 C27        -0.4023   -3.0043   -6.0963 C.ar      1 <0>         0.1246
     34 C28        -1.4841   -3.8720   -6.0883 C.ar      1 <0>        -0.1611
     35 C29        -1.8744   -4.4801   -4.9149 C.ar      1 <0>        -0.0376
     36 F1         -0.0206   -2.4153   -7.2507 F         1 <0>        -0.1336
     37 H1          2.3992    1.0261    0.3555 H         1 <0>         0.0546
     38 H2          1.0410    1.3994   -0.7328 H         1 <0>         0.0527
     39 H3          0.8092    1.4546    1.0312 H         1 <0>         0.0565
     40 H4          1.4328   -1.0457   -0.6049 H         1 <0>         0.0592
     41 H5          1.2009   -0.9906    1.1591 H         1 <0>         0.0659
     42 H6         -1.1045   -0.1390    0.8295 H         1 <0>         0.0797
     43 H7         -0.8726   -0.1942   -0.9345 H         1 <0>         0.0716
     44 H8         -0.9174   -2.2675   -2.1177 H         1 <0>         0.1434
     45 H9         -1.9996   -5.8300    0.0196 H         1 <0>         0.1374
     46 H10        -1.7827   -4.6136    2.1426 H         1 <0>         0.1378
     47 H11        -2.3832   -3.2100    3.5613 H         1 <0>         0.0698
     48 H12        -0.6674   -3.6760    3.6448 H         1 <0>         0.0705
     49 H13        -0.1469   -1.5505    4.8110 H         1 <0>         0.0873
     50 H14        -1.8628   -1.0845    4.7275 H         1 <0>         0.0864
     51 H15        -2.4716   -3.0883    6.0553 H         1 <0>         0.0628
     52 H16        -0.7557   -3.5543    6.1388 H         1 <0>         0.0636
     53 H17        -1.9575   -4.3448    7.6544 H         1 <0>         0.1188
     54 H18        -2.3362   -5.3473    9.8676 H         1 <0>         0.1206
     55 H19        -2.0823   -4.0071   11.9046 H         1 <0>         0.1159
     56 H20        -0.7219    0.5007    9.0908 H         1 <0>         0.1411
     57 H21        -0.7490    0.8635   11.6702 H         1 <0>         0.1607
     58 H22        -1.6735   -0.4466   13.7049 H         1 <0>         0.0884
     59 H23        -2.2647   -2.1064   13.4524 H         1 <0>         0.0840
     60 H24         0.4428   -3.1285   -2.8307 H         1 <0>         0.1470
     61 H25         1.1302   -2.0614   -4.9356 H         1 <0>         0.1443
     62 H26        -2.0192   -4.0747   -7.0043 H         1 <0>         0.1432
     63 H27        -2.7140   -5.1594   -4.9107 H         1 <0>         0.1423
@<TRIPOS>BOND
     1    1    2 1
     2    1   37 1
     3    1   38 1
     4    1   39 1
     5    2    3 1
     6    2   40 1
     7    2   41 1
     8    3    4 1
     9    3   42 1
    10    3   43 1
    11    4    9 ar
    12    4    5 ar
    13    5    6 ar
    14    5   44 1
    15    6    7 ar
    16    6   28 1
    17    7    8 ar
    18    7   45 1
    19    8    9 ar
    20    8   46 1
    21    9   10 1
    22   10   11 1
    23   11   12 1
    24   11   47 1
    25   11   48 1
    26   12   13 1
    27   12   49 1
    28   12   50 1
    29   13   14 1
    30   13   51 1
    31   13   52 1
    32   14   15 1
    33   15   20 ar
    34   15   16 ar
    35   16   17 ar
    36   16   53 1
    37   17   18 ar
    38   17   54 1
    39   18   19 ar
    40   18   55 1
    41   19   23 1
    42   19   20 ar
    43   20   21 1
    44   21   22 2
    45   21   56 1
    46   22   23 1
    47   22   57 1
    48   23   24 1
    49   24   25 1
    50   24   58 1
    51   24   59 1
    52   25   26 2
    53   25   27 1
    54   28   29 2
    55   28   30 1
    56   30   35 ar
    57   30   31 ar
    58   31   32 ar
    59   31   60 1
    60   32   33 ar
    61   32   61 1
    62   33   34 ar
    63   33   36 1
    64   34   35 ar
    65   34   62 1
    66   35   63 1
@<TRIPOS>MOLECULE
CHEMBL425766
   63    66     0     0     0
SMALL
USER_CHARGES

@<TRIPOS>ATOM
      1 C1          1.3213    0.9427    0.2164 C.3       1 <0>        -0.1527
      2 C2          0.9207   -0.5339    0.2099 C.3       1 <0>        -0.1177
      3 C3         -0.5923   -0.6509    0.0147 C.3       1 <0>        -0.0724
      4 C4         -0.9870   -2.1053    0.0083 C.ar      1 <0>        -0.1253
      5 C5         -1.1062   -2.7799   -1.1859 C.ar      1 <0>        -0.0427
      6 C6         -1.4724   -4.1293   -1.1907 C.ar      1 <0>        -0.2049
      7 C7         -1.7161   -4.7879    0.0188 C.ar      1 <0>        -0.0180
      8 C8         -1.5947   -4.1058    1.2081 C.ar      1 <0>        -0.2194
      9 C9         -1.2247   -2.7653    1.2085 C.ar      1 <0>         0.1729
     10 O1         -1.1007   -2.0981    2.3836 O.3       1 <0>        -0.3003
     11 C10        -1.3594   -2.8364    3.5793 C.3       1 <0>         0.0596
     12 C11        -1.1707   -1.9241    4.7930 C.3       1 <0>        -0.1175
     13 C12        -1.4478   -2.7147    6.0733 C.3       1 <0>         0.0665
     14 O2         -1.2715   -1.8626    7.2068 O.3       1 <0>        -0.3172
     15 C13        -1.4809   -2.4140    8.4322 C.ar      1 <0>         0.0853
     16 C14        -1.8440   -3.7544    8.5366 C.ar      1 <0>        -0.1888
     17 C15        -2.0594   -4.3286    9.7693 C.ar      1 <0>        -0.0759
     18 C16        -1.9148   -3.5687   10.9253 C.ar      1 <0>         0.0883
     19 C17        -1.5483   -2.2149   10.8232 C.ar      1 <0>        -0.0751
     20 C18        -1.3272   -1.6443    9.5677 C.ar      1 <0>        -0.1115
     21 C19        -1.4821   -1.7081   12.1961 C.2       1 <0>        -0.2344
     22 C20        -1.7959   -2.7302   13.0079 C.2       1 <0>         0.0796
     23 N1         -2.0576   -3.8505   12.2676 N.pl3     1 <0>        -0.4416
     24 C21        -2.4343   -5.1546   12.8186 C.3       1 <0>         0.0317
     25 C22        -1.2044   -6.0137   12.9615 C.2       1 <0>         0.4800
     26 O3         -0.1143   -5.5771   12.6336 O.co2     1 <0>        -0.6713
     27 O4         -1.2995   -7.1454   13.4051 O.co2     1 <0>        -0.6927
     28 C23        -1.6018   -4.8561   -2.4677 C.2       1 <0>         0.4450
     29 O5         -2.0518   -5.9857   -2.4816 O.2       1 <0>        -0.4487
     30 C24        -1.1849   -4.2120   -3.7293 C.ar      1 <0>        -0.1646
     31 C25        -0.0959   -3.3364   -3.7433 C.ar      1 <0>        -0.0566
     32 C26         0.2889   -2.7385   -4.9237 C.ar      1 <0>        -0.1611
     33 C27        -0.4023   -3.0043   -6.0963 C.ar      1 <0>         0.1243
     34 C28        -1.4841   -3.8720   -6.0883 C.ar      1 <0>        -0.1610
     35 C29        -1.8744   -4.4801   -4.9149 C.ar      1 <0>        -0.0376
     36 F1         -0.0206   -2.4153   -7.2507 F         1 <0>        -0.1337
     37 H1          2.3992    1.0261    0.3555 H         1 <0>         0.0545
     38 H2          1.0410    1.3994   -0.7328 H         1 <0>         0.0528
     39 H3          0.8092    1.4546    1.0312 H         1 <0>         0.0561
     40 H4          1.4328   -1.0457   -0.6049 H         1 <0>         0.0594
     41 H5          1.2009   -0.9906    1.1591 H         1 <0>         0.0658
     42 H6         -1.1045   -0.1390    0.8295 H         1 <0>         0.0794
     43 H7         -0.8726   -0.1942   -0.9345 H         1 <0>         0.0716
     44 H8         -0.9174   -2.2675   -2.1177 H         1 <0>         0.1433
     45 H9         -1.9996   -5.8300    0.0196 H         1 <0>         0.1377
     46 H10        -1.7827   -4.6136    2.1426 H         1 <0>         0.1381
     47 H11        -2.3832   -3.2100    3.5613 H         1 <0>         0.0701
     48 H12        -0.6674   -3.6760    3.6448 H         1 <0>         0.0709
     49 H13        -0.1469   -1.5505    4.8110 H         1 <0>         0.0864
     50 H14        -1.8628   -1.0845    4.7275 H         1 <0>         0.0856
     51 H15        -2.4716   -3.0883    6.0553 H         1 <0>         0.0615
     52 H16        -0.7557   -3.5543    6.1388 H         1 <0>         0.0628
     53 H17        -1.9581   -4.3490    7.6422 H         1 <0>         0.1226
     54 H18        -2.3410   -5.3690    9.8386 H         1 <0>         0.1180
     55 H19        -1.0416   -0.6060    9.4855 H         1 <0>         0.1236
     56 H20        -1.2284   -0.7027   12.4980 H         1 <0>         0.1414
     57 H21        -1.8358   -2.6761   14.0858 H         1 <0>         0.1607
     58 H22        -2.8965   -5.0163   13.7960 H         1 <0>         0.0878
     59 H23        -3.1418   -5.6419   12.1477 H         1 <0>         0.0822
     60 H24         0.4428   -3.1285   -2.8307 H         1 <0>         0.1470
     61 H25         1.1302   -2.0614   -4.9356 H         1 <0>         0.1442
     62 H26        -2.0192   -4.0747   -7.0043 H         1 <0>         0.1432
     63 H27        -2.7140   -5.1594   -4.9107 H         1 <0>         0.1424
@<TRIPOS>BOND
     1    1    2 1
     2    1   37 1
     3    1   38 1
     4    1   39 1
     5    2    3 1
     6    2   40 1
     7    2   41 1
     8    3    4 1
     9    3   42 1
    10    3   43 1
    11    4    9 ar
    12    4    5 ar
    13    5    6 ar
    14    5   44 1
    15    6    7 ar
    16    6   28 1
    17    7    8 ar
    18    7   45 1
    19    8    9 ar
    20    8   46 1
    21    9   10 1
    22   10   11 1
    23   11   12 1
    24   11   47 1
    25   11   48 1
    26   12   13 1
    27   12   49 1
    28   12   50 1
    29   13   14 1
    30   13   51 1
    31   13   52 1
    32   14   15 1
    33   15   20 ar
    34   15   16 ar
    35   16   17 ar
    36   16   53 1
    37   17   18 ar
    38   17   54 1
    39   18   23 1
    40   18   19 ar
    41   19   20 ar
    42   19   21 1
    43   20   55 1
    44   21   22 2
    45   21   56 1
    46   22   23 1
    47   22   57 1
    48   23   24 1
    49   24   25 1
    50   24   58 1
    51   24   59 1
    52   25   26 2
    53   25   27 1
    54   28   29 2
    55   28   30 1
    56   30   35 ar
    57   30   31 ar
    58   31   32 ar
    59   31   60 1
    60   32   33 ar
    61   32   61 1
    62   33   34 ar
    63   33   36 1
    64   34   35 ar
    65   34   62 1
    66   35   63 1
@<TRIPOS>MOLECULE
CHEMBL367891
   59    62     0     0     0
SMALL
USER_CHARGES

@<TRIPOS>ATOM
      1 C1         -0.0187    1.5258    0.0104 C.3       1 <0>        -0.1534
      2 C2          0.0021   -0.0041    0.0020 C.3       1 <0>         0.0457
      3 C3         -1.4346   -0.5404    0.0397 C.3       1 <0>        -0.1324
      4 C4         -2.1423    0.0658    1.2540 C.3       1 <0>        -0.0713
      5 C5         -1.2689   -0.0778    2.4748 C.ar      1 <0>        -0.1985
      6 C6         -1.8483    0.0527    3.7266 C.ar      1 <0>        -0.0469
      7 C7         -1.0809   -0.0688    4.8672 C.ar      1 <0>        -0.2541
      8 C8          0.2797   -0.3223    4.7625 C.ar      1 <0>         0.1560
      9 C9          0.8618   -0.4546    3.5133 C.ar      1 <0>        -0.1923
     10 C10         0.0869   -0.3346    2.3649 C.ar      1 <0>         0.1873
     11 O1          0.6920   -0.4821    1.1575 O.3       1 <0>        -0.2743
     12 O2          1.0386   -0.4409    5.8836 O.3       1 <0>        -0.3111
     13 C11         0.3703   -0.2931    7.1381 C.3       1 <0>         0.0675
     14 C12         1.3796   -0.4576    8.2761 C.3       1 <0>        -0.1205
     15 C13         0.6642   -0.2993    9.6192 C.3       1 <0>         0.0640
     16 O3          1.6069   -0.4530   10.6821 O.3       1 <0>        -0.2995
     17 C14         1.1308   -0.3404   11.9502 C.ar      1 <0>         0.1385
     18 C15        -0.2167   -0.0931   12.1671 C.ar      1 <0>        -0.1955
     19 C16        -0.6985    0.0205   13.4569 C.ar      1 <0>        -0.0724
     20 C17         0.1612   -0.1117   14.5319 C.ar      1 <0>        -0.1012
     21 C18         1.5049   -0.3579   14.3194 C.ar      1 <0>        -0.0681
     22 C19         1.9912   -0.4786   13.0308 C.ar      1 <0>        -0.0666
     23 Cl1         3.6772   -0.7948   12.7642 Cl        1 <0>        -0.0549
     24 C20        -0.3675    0.0132   15.9376 C.3       1 <0>        -0.0484
     25 C21         0.3856    1.1310   16.6880 C.3       1 <0>        -0.1194
     26 C22         0.5235    0.5919   18.1335 C.3       1 <0>        -0.1263
     27 C23         0.7910   -0.9175   17.9113 C.3       1 <0>        -0.1264
     28 C24        -0.1097   -1.2893   16.7153 C.3       1 <0>        -0.1198
     29 C25         0.6955   -0.4953   -1.2425 C.2       1 <0>         0.5157
     30 O4          1.6969   -1.1847   -1.1506 O.co2     1 <0>        -0.6697
     31 O5          0.2551   -0.2034   -2.3413 O.co2     1 <0>        -0.6806
     32 H1          1.0039    1.9031    0.0027 H         1 <0>         0.0572
     33 H2         -0.5459    1.8868   -0.8726 H         1 <0>         0.0748
     34 H3         -0.5289    1.8773    0.9072 H         1 <0>         0.0504
     35 H4         -1.9582   -0.2529   -0.8721 H         1 <0>         0.0875
     36 H5         -1.4190   -1.6267    0.1280 H         1 <0>         0.0679
     37 H6         -2.3376    1.1223    1.0700 H         1 <0>         0.0734
     38 H7         -3.0862   -0.4533    1.4203 H         1 <0>         0.0720
     39 H8         -2.9067    0.2504    3.8102 H         1 <0>         0.1215
     40 H9         -1.5386    0.0336    5.8400 H         1 <0>         0.1216
     41 H10         1.9205   -0.6513    3.4305 H         1 <0>         0.1364
     42 H11        -0.0823    0.6969    7.1942 H         1 <0>         0.0643
     43 H12        -0.4058   -1.0531    7.2280 H         1 <0>         0.0645
     44 H13         1.8323   -1.4476    8.2200 H         1 <0>         0.0882
     45 H14         2.1558    0.3024    8.1861 H         1 <0>         0.0880
     46 H15         0.2115    0.6906    9.6753 H         1 <0>         0.0683
     47 H16        -0.1120   -1.0593    9.7092 H         1 <0>         0.0683
     48 H17        -0.8888    0.0111   11.3281 H         1 <0>         0.1374
     49 H18        -1.7476    0.2131   13.6258 H         1 <0>         0.1305
     50 H19         2.1744   -0.4600   15.1606 H         1 <0>         0.1382
     51 H20        -1.4354    0.2304   15.9166 H         1 <0>         0.0814
     52 H21         1.3687    1.2922   16.2455 H         1 <0>         0.0704
     53 H22        -0.1939    2.0541   16.6788 H         1 <0>         0.0674
     54 H23         1.3646    1.0624   18.6426 H         1 <0>         0.0669
     55 H24        -0.4005    0.7423   18.6917 H         1 <0>         0.0671
     56 H25         1.8395   -1.0871   17.6664 H         1 <0>         0.0655
     57 H26         0.5073   -1.4893   18.7948 H         1 <0>         0.0655
     58 H27        -1.0525   -1.7036   17.0726 H         1 <0>         0.0664
     59 H28         0.3978   -2.0117   16.0761 H         1 <0>         0.0681
@<TRIPOS>BOND
     1    1    2 1
     2    1   32 1
     3    1   33 1
     4    1   34 1
     5    2   11 1
     6    2    3 1
     7    2   29 1
     8    3    4 1
     9    3   35 1
    10    3   36 1
    11    4    5 1
    12    4   37 1
    13    4   38 1
    14    5   10 ar
    15    5    6 ar
    16    6    7 ar
    17    6   39 1
    18    7    8 ar
    19    7   40 1
    20    8    9 ar
    21    8   12 1
    22    9   10 ar
    23    9   41 1
    24   10   11 1
    25   12   13 1
    26   13   14 1
    27   13   42 1
    28   13   43 1
    29   14   15 1
    30   14   44 1
    31   14   45 1
    32   15   16 1
    33   15   46 1
    34   15   47 1
    35   16   17 1
    36   17   22 ar
    37   17   18 ar
    38   18   19 ar
    39   18   48 1
    40   19   20 ar
    41   19   49 1
    42   20   21 ar
    43   20   24 1
    44   21   22 ar
    45   21   50 1
    46   22   23 1
    47   24   28 1
    48   24   25 1
    49   24   51 1
    50   25   26 1
    51   25   52 1
    52   25   53 1
    53   26   27 1
    54   26   54 1
    55   26   55 1
    56   27   28 1
    57   27   56 1
    58   27   57 1
    59   28   58 1
    60   28   59 1
    61   29   30 2
    62   29   31 1
@<TRIPOS>MOLECULE
CHEMBL50572
   64    67     0     0     0
SMALL
USER_CHARGES

@<TRIPOS>ATOM
      1 C1         -0.2531    2.0334    0.4925 C.3       1 <0>        -0.1512
      2 C2          0.1287    0.5682    0.2723 C.3       1 <0>        -0.0881
      3 C3          0.8095    0.0240    1.5298 C.3       1 <0>        -0.1473
      4 C4         -1.1315   -0.2489   -0.0195 C.3       1 <0>        -0.0683
      5 C5         -1.7345    0.2063   -1.3235 C.ar      1 <0>        -0.0683
      6 C6         -2.7403    1.1533   -1.3260 C.ar      1 <0>        -0.1040
      7 C7         -3.2953    1.5722   -2.5261 C.ar      1 <0>         0.0918
      8 C8         -2.8402    1.0401   -3.7240 C.ar      1 <0>        -0.1583
      9 C9         -1.8348    0.0934   -3.7212 C.ar      1 <0>        -0.1676
     10 C10        -1.2758   -0.3213   -2.5212 C.ar      1 <0>         0.1014
     11 O1         -0.2817   -1.2490   -2.5190 O.3       1 <0>        -0.3053
     12 C11         0.1415   -1.7495   -3.7888 C.3       1 <0>         0.0641
     13 C12         1.2585   -2.7753   -3.5862 C.3       1 <0>        -0.1197
     14 C13         1.7116   -3.3111   -4.9458 C.3       1 <0>         0.0623
     15 O2          2.7549   -4.2691   -4.7566 O.3       1 <0>        -0.3072
     16 C14         3.2731   -4.8456   -5.8728 C.ar      1 <0>         0.1515
     17 C15         2.7914   -4.4921   -7.1249 C.ar      1 <0>        -0.2070
     18 C16         3.3201   -5.0791   -8.2581 C.ar      1 <0>        -0.0426
     19 C17         4.3283   -6.0186   -8.1452 C.ar      1 <0>        -0.1208
     20 C18         4.8098   -6.3730   -6.8985 C.ar      1 <0>        -0.0525
     21 C19         4.2886   -5.7843   -5.7626 C.ar      1 <0>        -0.1440
     22 C20         4.9029   -6.6578   -9.3830 C.3       1 <0>        -0.0245
     23 C21         4.8956   -8.1763   -9.2767 C.2       1 <0>         0.5317
     24 O3          3.8696   -8.8136   -9.1716 O.2       1 <0>        -0.4502
     25 N1          6.0856   -8.7523   -9.3065 N.am      1 <0>        -0.6901
     26 C22         7.2386   -8.0677   -9.4220 C.2       1 <0>         0.5633
     27 O4          8.3714   -8.5076   -9.4583 O.2       1 <0>        -0.4145
     28 S1          6.7158   -6.3613   -9.5103 S.3       1 <0>        -0.1467
     29 O5         -4.2855    2.5039   -2.5287 O.3       1 <0>        -0.2599
     30 C23        -4.8055    2.8788   -3.7268 C.ar      1 <0>         0.0834
     31 C24        -5.8931    2.1987   -4.2559 C.ar      1 <0>        -0.1267
     32 C25        -6.4198    2.5818   -5.4740 C.ar      1 <0>        -0.1063
     33 C26        -5.8639    3.6418   -6.1663 C.ar      1 <0>        -0.1173
     34 C27        -4.7801    4.3213   -5.6414 C.ar      1 <0>        -0.1064
     35 C28        -4.2534    3.9462   -4.4207 C.ar      1 <0>        -0.1266
     36 H1          0.6447    2.6155    0.7004 H         1 <0>         0.0529
     37 H2         -0.7381    2.4211   -0.4033 H         1 <0>         0.0564
     38 H3         -0.9378    2.1074    1.3373 H         1 <0>         0.0545
     39 H4          0.8135    0.4942   -0.5725 H         1 <0>         0.0717
     40 H5          0.1248    0.0981    2.3746 H         1 <0>         0.0545
     41 H6          1.0815   -1.0198    1.3729 H         1 <0>         0.0553
     42 H7          1.7073    0.6061    1.7377 H         1 <0>         0.0549
     43 H8         -0.8717   -1.3052   -0.0885 H         1 <0>         0.0795
     44 H9         -1.8529   -0.1038    0.7846 H         1 <0>         0.0734
     45 H10        -3.0947    1.5672   -0.3935 H         1 <0>         0.1393
     46 H11        -3.2726    1.3660   -4.6585 H         1 <0>         0.1296
     47 H12        -1.4806   -0.3208   -4.6536 H         1 <0>         0.1304
     48 H13        -0.7012   -2.2244   -4.2913 H         1 <0>         0.0650
     49 H14         0.5111   -0.9256   -4.3992 H         1 <0>         0.0651
     50 H15         2.1011   -2.3003   -3.0837 H         1 <0>         0.0884
     51 H16         0.8889   -3.5992   -2.9758 H         1 <0>         0.0882
     52 H17         0.8689   -3.7860   -5.4483 H         1 <0>         0.0691
     53 H18         2.0812   -2.4872   -5.5562 H         1 <0>         0.0692
     54 H19         2.0034   -3.7588   -7.2136 H         1 <0>         0.1359
     55 H20         2.9455   -4.8043   -9.2330 H         1 <0>         0.1350
     56 H21         5.5971   -7.1073   -6.8129 H         1 <0>         0.1257
     57 H22         4.6681   -6.0581   -4.7892 H         1 <0>         0.1394
     58 H23         4.3819   -6.3196  -10.2787 H         1 <0>         0.1662
     59 H24         6.1298   -9.7191   -9.2414 H         1 <0>         0.4196
     60 H25        -6.3273    1.3702   -3.7159 H         1 <0>         0.1310
     61 H26        -7.2663    2.0528   -5.8863 H         1 <0>         0.1311
     62 H27        -6.2767    3.9394   -7.1189 H         1 <0>         0.1290
     63 H28        -4.3475    5.1487   -6.1843 H         1 <0>         0.1311
     64 H29        -3.4099    4.4803   -4.0088 H         1 <0>         0.1309
@<TRIPOS>BOND
     1    1    2 1
     2    1   36 1
     3    1   37 1
     4    1   38 1
     5    2    3 1
     6    2    4 1
     7    2   39 1
     8    3   40 1
     9    3   41 1
    10    3   42 1
    11    4    5 1
    12    4   43 1
    13    4   44 1
    14    5   10 ar
    15    5    6 ar
    16    6    7 ar
    17    6   45 1
    18    7    8 ar
    19    7   29 1
    20    8    9 ar
    21    8   46 1
    22    9   10 ar
    23    9   47 1
    24   10   11 1
    25   11   12 1
    26   12   13 1
    27   12   48 1
    28   12   49 1
    29   13   14 1
    30   13   50 1
    31   13   51 1
    32   14   15 1
    33   14   52 1
    34   14   53 1
    35   15   16 1
    36   16   21 ar
    37   16   17 ar
    38   17   18 ar
    39   17   54 1
    40   18   19 ar
    41   18   55 1
    42   19   20 ar
    43   19   22 1
    44   20   21 ar
    45   20   56 1
    46   21   57 1
    47   22   28 1
    48   22   23 1
    49   22   58 1
    50   23   24 2
    51   23   25 am
    52   25   26 am
    53   25   59 1
    54   26   27 2
    55   26   28 1
    56   29   30 1
    57   30   35 ar
    58   30   31 ar
    59   31   32 ar
    60   31   60 1
    61   32   33 ar
    62   32   61 1
    63   33   34 ar
    64   33   62 1
    65   34   35 ar
    66   34   63 1
    67   35   64 1
@<TRIPOS>MOLECULE
CHEMBL50572__1
   64    67     0     0     0
SMALL
USER_CHARGES

@<TRIPOS>ATOM
      1 C1         -0.2531    2.0334    0.4925 C.3       1 <0>        -0.1512
      2 C2          0.1287    0.5682    0.2723 C.3       1 <0>        -0.0882
      3 C3          0.8095    0.0240    1.5298 C.3       1 <0>        -0.1473
      4 C4         -1.1315   -0.2489   -0.0195 C.3       1 <0>        -0.0682
      5 C5         -1.7345    0.2063   -1.3235 C.ar      1 <0>        -0.0683
      6 C6         -2.7403    1.1533   -1.3260 C.ar      1 <0>        -0.1040
      7 C7         -3.2953    1.5722   -2.5261 C.ar      1 <0>         0.0918
      8 C8         -2.8402    1.0401   -3.7240 C.ar      1 <0>        -0.1583
      9 C9         -1.8348    0.0934   -3.7212 C.ar      1 <0>        -0.1676
     10 C10        -1.2758   -0.3213   -2.5212 C.ar      1 <0>         0.1014
     11 O1         -0.2817   -1.2490   -2.5190 O.3       1 <0>        -0.3053
     12 C11         0.1415   -1.7495   -3.7888 C.3       1 <0>         0.0641
     13 C12         1.2585   -2.7753   -3.5862 C.3       1 <0>        -0.1197
     14 C13         1.7116   -3.3111   -4.9458 C.3       1 <0>         0.0623
     15 O2          2.7549   -4.2691   -4.7566 O.3       1 <0>        -0.3072
     16 C14         3.2731   -4.8456   -5.8728 C.ar      1 <0>         0.1515
     17 C15         2.7914   -4.4921   -7.1249 C.ar      1 <0>        -0.2070
     18 C16         3.3201   -5.0791   -8.2581 C.ar      1 <0>        -0.0426
     19 C17         4.3283   -6.0186   -8.1452 C.ar      1 <0>        -0.1208
     20 C18         4.8098   -6.3730   -6.8985 C.ar      1 <0>        -0.0525
     21 C19         4.2886   -5.7843   -5.7626 C.ar      1 <0>        -0.1440
     22 C20         4.9029   -6.6578   -9.3830 C.3       1 <0>        -0.0245
     23 C21         6.4215   -6.5544   -9.4058 C.2       1 <0>         0.5317
     24 O3          6.9981   -5.4883   -9.4363 O.2       1 <0>        -0.4502
     25 N1          7.0684   -7.7076   -9.3897 N.am      1 <0>        -0.6902
     26 C22         6.4521   -8.9037   -9.3555 C.2       1 <0>         0.5633
     27 O4          6.9595  -10.0084   -9.3381 O.2       1 <0>        -0.4145
     28 S1          4.7141   -8.4890   -9.3409 S.3       1 <0>        -0.1467
     29 O5         -4.2855    2.5039   -2.5287 O.3       1 <0>        -0.2599
     30 C23        -4.8055    2.8788   -3.7268 C.ar      1 <0>         0.0834
     31 C24        -5.8931    2.1987   -4.2559 C.ar      1 <0>        -0.1267
     32 C25        -6.4198    2.5818   -5.4740 C.ar      1 <0>        -0.1063
     33 C26        -5.8639    3.6418   -6.1663 C.ar      1 <0>        -0.1173
     34 C27        -4.7801    4.3213   -5.6414 C.ar      1 <0>        -0.1064
     35 C28        -4.2534    3.9462   -4.4207 C.ar      1 <0>        -0.1267
     36 H1          0.6447    2.6155    0.7004 H         1 <0>         0.0529
     37 H2         -0.7381    2.4211   -0.4033 H         1 <0>         0.0564
     38 H3         -0.9378    2.1074    1.3373 H         1 <0>         0.0545
     39 H4          0.8135    0.4942   -0.5725 H         1 <0>         0.0717
     40 H5          0.1248    0.0981    2.3746 H         1 <0>         0.0546
     41 H6          1.0815   -1.0198    1.3729 H         1 <0>         0.0553
     42 H7          1.7073    0.6061    1.7377 H         1 <0>         0.0548
     43 H8         -0.8717   -1.3052   -0.0885 H         1 <0>         0.0795
     44 H9         -1.8529   -0.1038    0.7846 H         1 <0>         0.0734
     45 H10        -3.0947    1.5672   -0.3935 H         1 <0>         0.1393
     46 H11        -3.2726    1.3660   -4.6585 H         1 <0>         0.1296
     47 H12        -1.4806   -0.3208   -4.6536 H         1 <0>         0.1304
     48 H13        -0.7012   -2.2244   -4.2913 H         1 <0>         0.0650
     49 H14         0.5111   -0.9256   -4.3992 H         1 <0>         0.0650
     50 H15         2.1011   -2.3003   -3.0837 H         1 <0>         0.0883
     51 H16         0.8889   -3.5992   -2.9758 H         1 <0>         0.0884
     52 H17         0.8689   -3.7860   -5.4483 H         1 <0>         0.0692
     53 H18         2.0812   -2.4872   -5.5562 H         1 <0>         0.0691
     54 H19         2.0034   -3.7588   -7.2136 H         1 <0>         0.1359
     55 H20         2.9455   -4.8043   -9.2330 H         1 <0>         0.1350
     56 H21         5.5971   -7.1073   -6.8129 H         1 <0>         0.1257
     57 H22         4.6681   -6.0581   -4.7892 H         1 <0>         0.1393
     58 H23         4.4622   -6.2343  -10.2855 H         1 <0>         0.1662
     59 H24         8.0382   -7.6907   -9.4035 H         1 <0>         0.4196
     60 H25        -6.3273    1.3702   -3.7159 H         1 <0>         0.1310
     61 H26        -7.2663    2.0528   -5.8863 H         1 <0>         0.1311
     62 H27        -6.2767    3.9394   -7.1189 H         1 <0>         0.1290
     63 H28        -4.3475    5.1487   -6.1843 H         1 <0>         0.1311
     64 H29        -3.4099    4.4803   -4.0088 H         1 <0>         0.1309
@<TRIPOS>BOND
     1    1    2 1
     2    1   36 1
     3    1   37 1
     4    1   38 1
     5    2    3 1
     6    2    4 1
     7    2   39 1
     8    3   40 1
     9    3   41 1
    10    3   42 1
    11    4    5 1
    12    4   43 1
    13    4   44 1
    14    5   10 ar
    15    5    6 ar
    16    6    7 ar
    17    6   45 1
    18    7    8 ar
    19    7   29 1
    20    8    9 ar
    21    8   46 1
    22    9   10 ar
    23    9   47 1
    24   10   11 1
    25   11   12 1
    26   12   13 1
    27   12   48 1
    28   12   49 1
    29   13   14 1
    30   13   50 1
    31   13   51 1
    32   14   15 1
    33   14   52 1
    34   14   53 1
    35   15   16 1
    36   16   21 ar
    37   16   17 ar
    38   17   18 ar
    39   17   54 1
    40   18   19 ar
    41   18   55 1
    42   19   20 ar
    43   19   22 1
    44   20   21 ar
    45   20   56 1
    46   21   57 1
    47   22   28 1
    48   22   23 1
    49   22   58 1
    50   23   24 2
    51   23   25 am
    52   25   26 am
    53   25   59 1
    54   26   27 2
    55   26   28 1
    56   29   30 1
    57   30   35 ar
    58   30   31 ar
    59   31   32 ar
    60   31   60 1
    61   32   33 ar
    62   32   61 1
    63   33   34 ar
    64   33   62 1
    65   34   35 ar
    66   34   63 1
    67   35   64 1
@<TRIPOS>MOLECULE
CHEMBL200138
   61    65     0     0     0
SMALL
USER_CHARGES

@<TRIPOS>ATOM
      1 C1          0.0525    1.4992    0.0805 C.3       1 <0>        -0.1540
      2 C2          0.0074   -0.0286    0.0134 C.3       1 <0>        -0.0950
      3 C3          0.6061   -0.4987   -1.3138 C.3       1 <0>        -0.1420
      4 C4          0.4006   -2.0078   -1.4600 C.3       1 <0>        -0.0212
      5 C5          0.9355   -2.4914   -2.8245 C.3       1 <0>        -0.1253
      6 C6         -0.3200   -2.4142   -3.7189 C.3       1 <0>        -0.0830
      7 C7         -1.4909   -2.5715   -2.7726 C.ar      1 <0>        -0.0568
      8 C8         -1.0769   -2.3378   -1.4738 C.ar      1 <0>        -0.1060
      9 C9         -1.9853   -2.4266   -0.4322 C.ar      1 <0>        -0.0697
     10 C10        -3.3040   -2.7483   -0.6839 C.ar      1 <0>        -0.2107
     11 C11        -3.7216   -2.9833   -1.9855 C.ar      1 <0>         0.1171
     12 C12        -2.8121   -2.8937   -3.0281 C.ar      1 <0>        -0.1425
     13 O1         -5.0186   -3.3011   -2.2382 O.3       1 <0>        -0.3168
     14 C13        -5.8988   -3.3759   -1.1149 C.3       1 <0>         0.0689
     15 C14        -7.3053   -3.7427   -1.5928 C.3       1 <0>        -0.0342
     16 C15        -8.2335   -3.8216   -0.4082 C.2       1 <0>        -0.0066
     17 C16        -8.4814   -4.9171    0.3326 C.2       1 <0>        -0.0287
     18 O2         -9.3628   -4.5627    1.2885 O.3       1 <0>        -0.1917
     19 C17        -9.6435   -3.2586    1.1223 C.2       1 <0>         0.2285
     20 N1         -8.9553   -2.8107    0.0987 N.2       1 <0>        -0.4531
     21 C18       -10.5683   -2.4615    1.9559 C.ar      1 <0>         0.0201
     22 C19       -10.7763   -1.1108    1.6708 C.ar      1 <0>        -0.0951
     23 C20       -11.6384   -0.3724    2.4565 C.ar      1 <0>        -0.0700
     24 C21       -12.2908   -0.9662    3.5166 C.ar      1 <0>        -0.1563
     25 C22       -12.1019   -2.3116    3.8110 C.ar      1 <0>         0.1050
     26 C23       -11.2358   -3.0599    3.0218 C.ar      1 <0>        -0.1108
     27 O3        -12.8569   -2.6930    4.8782 O.3       1 <0>        -0.3023
     28 C24       -13.2468   -1.5268    5.6231 C.3       1 <0>         0.0506
     29 C25       -13.2663   -0.4204    4.5421 C.3       1 <0>        -0.1129
     30 C26        -7.8842   -6.2860    0.1310 C.3       1 <0>        -0.0731
     31 C27         2.0804   -0.1878   -1.3380 C.2       1 <0>         0.4992
     32 O4          2.8330   -0.8552   -2.0271 O.co2     1 <0>        -0.6907
     33 O5          2.5208    0.7311   -0.6686 O.co2     1 <0>        -0.6892
     34 H1          1.0890    1.8294    0.1502 H         1 <0>         0.0957
     35 H2         -0.4019    1.9160   -0.8183 H         1 <0>         0.0340
     36 H3         -0.4973    1.8408    0.9575 H         1 <0>         0.0271
     37 H4          0.5832   -0.4458    0.8396 H         1 <0>         0.0490
     38 H5         -1.0269   -0.3651    0.0849 H         1 <0>         0.0419
     39 H6          0.1125    0.0167   -2.1378 H         1 <0>         0.0612
     40 H7          0.8987   -2.5371   -0.6477 H         1 <0>         0.0666
     41 H8          1.7154   -1.8251   -3.1932 H         1 <0>         0.1284
     42 H9          1.3003   -3.5163   -2.7565 H         1 <0>         0.0548
     43 H10        -0.3672   -1.4484   -4.2219 H         1 <0>         0.0772
     44 H11        -0.3135   -3.2224   -4.4503 H         1 <0>         0.0674
     45 H12        -1.6606   -2.2437    0.5815 H         1 <0>         0.1206
     46 H13        -4.0091   -2.8173    0.1313 H         1 <0>         0.1211
     47 H14        -3.1355   -3.0764   -4.0422 H         1 <0>         0.1232
     48 H15        -5.5402   -4.1375   -0.4225 H         1 <0>         0.0603
     49 H16        -5.9268   -2.4102   -0.6103 H         1 <0>         0.0648
     50 H17        -7.6638   -2.9811   -2.2852 H         1 <0>         0.0949
     51 H18        -7.2773   -4.7084   -2.0974 H         1 <0>         0.0927
     52 H19       -10.2655   -0.6461    0.8404 H         1 <0>         0.1464
     53 H20       -11.8020    0.6731    2.2407 H         1 <0>         0.1367
     54 H21       -11.0767   -4.1058    3.2385 H         1 <0>         0.1366
     55 H22       -14.2376   -1.6596    6.0576 H         1 <0>         0.1091
     56 H23       -12.5126   -1.2988    6.3957 H         1 <0>         0.0798
     57 H24       -12.9141    0.5276    4.9487 H         1 <0>         0.0962
     58 H25       -14.2625   -0.3125    4.1132 H         1 <0>         0.0949
     59 H26        -6.9630   -6.3690    0.7076 H         1 <0>         0.0892
     60 H27        -8.5921   -7.0441    0.4660 H         1 <0>         0.0816
     61 H28        -7.6657   -6.4349   -0.9264 H         1 <0>         0.0969
@<TRIPOS>BOND
     1    1    2 1
     2    1   34 1
     3    1   35 1
     4    1   36 1
     5    2    3 1
     6    2   37 1
     7    2   38 1
     8    3    4 1
     9    3   31 1
    10    3   39 1
    11    4    8 1
    12    4    5 1
    13    4   40 1
    14    5    6 1
    15    5   41 1
    16    5   42 1
    17    6    7 1
    18    6   43 1
    19    6   44 1
    20    7   12 ar
    21    7    8 ar
    22    8    9 ar
    23    9   10 ar
    24    9   45 1
    25   10   11 ar
    26   10   46 1
    27   11   12 ar
    28   11   13 1
    29   12   47 1
    30   13   14 1
    31   14   15 1
    32   14   48 1
    33   14   49 1
    34   15   16 1
    35   15   50 1
    36   15   51 1
    37   16   20 1
    38   16   17 2
    39   17   18 1
    40   17   30 1
    41   18   19 1
    42   19   20 2
    43   19   21 1
    44   21   26 ar
    45   21   22 ar
    46   22   23 ar
    47   22   52 1
    48   23   24 ar
    49   23   53 1
    50   24   29 1
    51   24   25 ar
    52   25   26 ar
    53   25   27 1
    54   26   54 1
    55   27   28 1
    56   28   29 1
    57   28   55 1
    58   28   56 1
    59   29   57 1
    60   29   58 1
    61   30   59 1
    62   30   60 1
    63   30   61 1
    64   31   32 2
    65   31   33 1
@<TRIPOS>MOLECULE
CHEMBL200138__1
   61    65     0     0     0
SMALL
USER_CHARGES

@<TRIPOS>ATOM
      1 C1          0.0125    1.8056   -0.5483 C.3       1 <0>        -0.1445
      2 C2         -0.1995    0.3121   -0.2928 C.3       1 <0>        -0.1004
      3 C3          0.6046   -0.4987   -1.3110 C.3       1 <0>        -0.1487
      4 C4          0.3143   -1.9888   -1.1201 C.3       1 <0>        -0.0292
      5 C5         -1.1945   -2.2662   -1.2891 C.3       1 <0>        -0.1160
      6 C6         -1.2031   -3.6609   -1.9502 C.3       1 <0>        -0.0758
      7 C7          0.1178   -3.7601   -2.6829 C.ar      1 <0>        -0.0718
      8 C8          0.9903   -2.7989   -2.2057 C.ar      1 <0>        -0.1025
      9 C9          2.2671   -2.7015   -2.7334 C.ar      1 <0>        -0.0506
     10 C10         2.6742   -3.5604   -3.7346 C.ar      1 <0>        -0.2067
     11 C11         1.8009   -4.5251   -4.2149 C.ar      1 <0>         0.1168
     12 C12         0.5228   -4.6221   -3.6866 C.ar      1 <0>        -0.1479
     13 O1          2.1969   -5.3723   -5.2009 O.3       1 <0>        -0.3179
     14 C13         3.5275   -5.2133   -5.6973 C.3       1 <0>         0.0670
     15 C14         3.7897   -6.2477   -6.7937 C.3       1 <0>        -0.0327
     16 C15         5.1928   -6.0801   -7.3173 C.2       1 <0>        -0.0071
     17 C16         5.5686   -5.2869   -8.3371 C.2       1 <0>        -0.0270
     18 O2          6.9012   -5.4263   -8.4825 O.3       1 <0>        -0.1915
     19 C17         7.3243   -6.3003   -7.5530 C.2       1 <0>         0.2268
     20 N1          6.2904   -6.6907   -6.8456 N.2       1 <0>        -0.4525
     21 C18         8.7210   -6.7435   -7.3572 C.ar      1 <0>         0.0218
     22 C19         9.0264   -7.6651   -6.3541 C.ar      1 <0>        -0.0953
     23 C20        10.3338   -8.0708   -6.1751 C.ar      1 <0>        -0.0701
     24 C21        11.3321   -7.5689   -6.9833 C.ar      1 <0>        -0.1574
     25 C22        11.0460   -6.6563   -7.9922 C.ar      1 <0>         0.1049
     26 C23         9.7306   -6.2457   -8.1774 C.ar      1 <0>        -0.1107
     27 O3         12.1706   -6.3123   -8.6787 O.3       1 <0>        -0.3024
     28 C24        13.3260   -6.6328   -7.8855 C.3       1 <0>         0.0505
     29 C25        12.8290   -7.8127   -7.0172 C.3       1 <0>        -0.1124
     30 C26         4.6669   -4.4063   -9.1633 C.3       1 <0>        -0.0736
     31 C27         2.0758   -0.2435   -1.1071 C.2       1 <0>         0.5054
     32 O4          2.6291   -0.6408   -0.0959 O.co2     1 <0>        -0.6994
     33 O5          2.7128    0.3602   -1.9534 O.co2     1 <0>        -0.7025
     34 H1          1.0546    2.0624   -0.3581 H         1 <0>         0.0573
     35 H2         -0.2351    2.0357   -1.5846 H         1 <0>         0.0475
     36 H3         -0.6310    2.3828    0.1158 H         1 <0>         0.0407
     37 H4          0.1353    0.0647    0.7146 H         1 <0>         0.0603
     38 H5         -1.2583    0.0731   -0.3927 H         1 <0>         0.0475
     39 H6          0.3203   -0.1995   -2.3198 H         1 <0>         0.0585
     40 H7          0.6529   -2.3166   -0.1373 H         1 <0>         0.0874
     41 H8         -1.6943   -2.2935   -0.3208 H         1 <0>         0.0715
     42 H9         -1.6540   -1.5248   -1.9427 H         1 <0>         0.0700
     43 H10        -1.2736   -4.4392   -1.1904 H         1 <0>         0.0770
     44 H11        -2.0324   -3.7411   -2.6530 H         1 <0>         0.0700
     45 H12         2.9474   -1.9505   -2.3597 H         1 <0>         0.1424
     46 H13         3.6707   -3.4811   -4.1433 H         1 <0>         0.1219
     47 H14        -0.1585   -5.3727   -4.0594 H         1 <0>         0.1212
     48 H15         3.6445   -4.2106   -6.1083 H         1 <0>         0.0620
     49 H16         4.2385   -5.3579   -4.8839 H         1 <0>         0.0655
     50 H17         3.6727   -7.2505   -6.3828 H         1 <0>         0.0939
     51 H18         3.0787   -6.1032   -7.6072 H         1 <0>         0.0921
     52 H19         8.2444   -8.0582   -5.7214 H         1 <0>         0.1464
     53 H20        10.5754   -8.7829   -5.3998 H         1 <0>         0.1363
     54 H21         9.4920   -5.5357   -8.9555 H         1 <0>         0.1369
     55 H22        14.1560   -6.9432   -8.5202 H         1 <0>         0.1087
     56 H23        13.6118   -5.7869   -7.2603 H         1 <0>         0.0798
     57 H24        13.2542   -7.7647   -6.0148 H         1 <0>         0.0959
     58 H25        13.0575   -8.7677   -7.4904 H         1 <0>         0.0943
     59 H26         4.6023   -3.4199   -8.7041 H         1 <0>         0.0909
     60 H27         5.0738   -4.3125  -10.1701 H         1 <0>         0.0812
     61 H28         3.6724   -4.8497   -9.2132 H         1 <0>         0.0967
@<TRIPOS>BOND
     1    1    2 1
     2    1   34 1
     3    1   35 1
     4    1   36 1
     5    2    3 1
     6    2   37 1
     7    2   38 1
     8    3    4 1
     9    3   31 1
    10    3   39 1
    11    4    8 1
    12    4    5 1
    13    4   40 1
    14    5    6 1
    15    5   41 1
    16    5   42 1
    17    6    7 1
    18    6   43 1
    19    6   44 1
    20    7   12 ar
    21    7    8 ar
    22    8    9 ar
    23    9   10 ar
    24    9   45 1
    25   10   11 ar
    26   10   46 1
    27   11   12 ar
    28   11   13 1
    29   12   47 1
    30   13   14 1
    31   14   15 1
    32   14   48 1
    33   14   49 1
    34   15   16 1
    35   15   50 1
    36   15   51 1
    37   16   20 1
    38   16   17 2
    39   17   18 1
    40   17   30 1
    41   18   19 1
    42   19   20 2
    43   19   21 1
    44   21   26 ar
    45   21   22 ar
    46   22   23 ar
    47   22   52 1
    48   23   24 ar
    49   23   53 1
    50   24   29 1
    51   24   25 ar
    52   25   26 ar
    53   25   27 1
    54   26   54 1
    55   27   28 1
    56   28   29 1
    57   28   55 1
    58   28   56 1
    59   29   57 1
    60   29   58 1
    61   30   59 1
    62   30   60 1
    63   30   61 1
    64   31   32 2
    65   31   33 1
@<TRIPOS>MOLECULE
CHEMBL200138__2
   61    65     0     0     0
SMALL
USER_CHARGES

@<TRIPOS>ATOM
      1 C1         -0.0187    1.5258    0.0104 C.3       1 <0>        -0.1449
      2 C2          0.0021   -0.0041    0.0020 C.3       1 <0>        -0.1020
      3 C3          0.7182   -0.4975   -1.2568 C.3       1 <0>        -0.1440
      4 C4          0.8493   -2.0210   -1.2049 C.3       1 <0>        -0.0281
      5 C5          1.7201   -2.4429   -0.0026 C.3       1 <0>        -0.1211
      6 C6          3.1299   -2.5216   -0.6259 C.3       1 <0>        -0.0747
      7 C7          2.8988   -2.8144   -2.0930 C.ar      1 <0>        -0.0673
      8 C8          1.5876   -2.5265   -2.4260 C.ar      1 <0>        -0.0989
      9 C9          1.1461   -2.7193   -3.7246 C.ar      1 <0>        -0.0450
     10 C10         2.0092   -3.1986   -4.6895 C.ar      1 <0>        -0.2055
     11 C11         3.3245   -3.4881   -4.3579 C.ar      1 <0>         0.1180
     12 C12         3.7663   -3.2945   -3.0581 C.ar      1 <0>        -0.1458
     13 O1          4.1776   -3.9608   -5.3042 O.3       1 <0>        -0.3175
     14 C13         3.6526   -4.1360   -6.6217 C.3       1 <0>         0.0674
     15 C14         4.7516   -4.6716   -7.5416 C.3       1 <0>        -0.0334
     16 C15         4.1979   -4.8563   -8.9310 C.2       1 <0>        -0.0053
     17 C16         3.6147   -5.9702   -9.4099 C.2       1 <0>        -0.0299
     18 O2          3.2622   -5.7201  -10.6865 O.3       1 <0>        -0.1921
     19 C17         3.6325   -4.4601  -10.9732 C.2       1 <0>         0.2279
     20 N1          4.1936   -3.9373   -9.9084 N.2       1 <0>        -0.4519
     21 C18         3.4361   -3.7763  -12.2691 C.ar      1 <0>         0.0210
     22 C19         3.8748   -2.4618  -12.4379 C.ar      1 <0>        -0.0945
     23 C20         3.6840   -1.8290  -13.6499 C.ar      1 <0>        -0.0697
     24 C21         3.0639   -2.4921  -14.6880 C.ar      1 <0>        -0.1571
     25 C22         2.6272   -3.8037  -14.5410 C.ar      1 <0>         0.1044
     26 C23         2.8184   -4.4458  -13.3227 C.ar      1 <0>        -0.1108
     27 O3          2.0669   -4.2682  -15.6918 O.3       1 <0>        -0.3026
     28 C24         1.7001   -3.1541  -16.5230 C.3       1 <0>         0.0506
     29 C25         2.7117   -2.0631  -16.0998 C.3       1 <0>        -0.1126
     30 C26         3.3962   -7.2581   -8.6586 C.3       1 <0>        -0.0723
     31 C27        -0.0771   -0.1029   -2.4745 C.2       1 <0>         0.5064
     32 O4          0.4235    0.6153   -3.3231 O.co2     1 <0>        -0.7004
     33 O5         -1.2211   -0.5017   -2.6110 O.co2     1 <0>        -0.7023
     34 H1          1.0039    1.9031    0.0027 H         1 <0>         0.0458
     35 H2         -0.5459    1.8868   -0.8726 H         1 <0>         0.0580
     36 H3         -0.5289    1.8773    0.9072 H         1 <0>         0.0417
     37 H4          0.5293   -0.3651    0.8851 H         1 <0>         0.0479
     38 H5         -1.0205   -0.3814    0.0098 H         1 <0>         0.0626
     39 H6          1.7103   -0.0491   -1.3098 H         1 <0>         0.0578
     40 H7         -0.1360   -2.4827   -1.1407 H         1 <0>         0.0787
     41 H8          1.6858   -1.6893    0.7841 H         1 <0>         0.0786
     42 H9          1.4099   -3.4161    0.3779 H         1 <0>         0.0659
     43 H10         3.6495   -1.5708   -0.5072 H         1 <0>         0.0784
     44 H11         3.7027   -3.3265   -0.1652 H         1 <0>         0.0694
     45 H12         0.1221   -2.4940   -3.9832 H         1 <0>         0.1274
     46 H13         1.6607   -3.3482   -5.7008 H         1 <0>         0.1215
     47 H14         4.7901   -3.5193   -2.7981 H         1 <0>         0.1215
     48 H15         2.8258   -4.8457   -6.5919 H         1 <0>         0.0604
     49 H16         3.2960   -3.1784   -7.0009 H         1 <0>         0.0665
     50 H17         5.5784   -3.9619   -7.5714 H         1 <0>         0.0946
     51 H18         5.1082   -5.6292   -7.1623 H         1 <0>         0.0919
     52 H19         4.3606   -1.9428  -11.6249 H         1 <0>         0.1470
     53 H20         4.0207   -0.8118  -13.7853 H         1 <0>         0.1367
     54 H21         2.4831   -5.4640  -13.1916 H         1 <0>         0.1365
     55 H22         1.8194   -3.4032  -17.5775 H         1 <0>         0.1086
     56 H23         0.6788   -2.8359  -16.3136 H         1 <0>         0.0797
     57 H24         2.2457   -1.0777  -16.1026 H         1 <0>         0.0961
     58 H25         3.5920   -2.0778  -16.7424 H         1 <0>         0.0943
     59 H26         2.4286   -7.2270   -8.1579 H         1 <0>         0.0893
     60 H27         3.4170   -8.0944   -9.3573 H         1 <0>         0.0809
     61 H28         4.1851   -7.3845   -7.9171 H         1 <0>         0.0965
@<TRIPOS>BOND
     1    1    2 1
     2    1   34 1
     3    1   35 1
     4    1   36 1
     5    2    3 1
     6    2   37 1
     7    2   38 1
     8    3    4 1
     9    3   31 1
    10    3   39 1
    11    4    8 1
    12    4    5 1
    13    4   40 1
    14    5    6 1
    15    5   41 1
    16    5   42 1
    17    6    7 1
    18    6   43 1
    19    6   44 1
    20    7   12 ar
    21    7    8 ar
    22    8    9 ar
    23    9   10 ar
    24    9   45 1
    25   10   11 ar
    26   10   46 1
    27   11   12 ar
    28   11   13 1
    29   12   47 1
    30   13   14 1
    31   14   15 1
    32   14   48 1
    33   14   49 1
    34   15   16 1
    35   15   50 1
    36   15   51 1
    37   16   20 1
    38   16   17 2
    39   17   18 1
    40   17   30 1
    41   18   19 1
    42   19   20 2
    43   19   21 1
    44   21   26 ar
    45   21   22 ar
    46   22   23 ar
    47   22   52 1
    48   23   24 ar
    49   23   53 1
    50   24   29 1
    51   24   25 ar
    52   25   26 ar
    53   25   27 1
    54   26   54 1
    55   27   28 1
    56   28   29 1
    57   28   55 1
    58   28   56 1
    59   29   57 1
    60   29   58 1
    61   30   59 1
    62   30   60 1
    63   30   61 1
    64   31   32 2
    65   31   33 1
@<TRIPOS>MOLECULE
CHEMBL200138__3
   61    65     0     0     0
SMALL
USER_CHARGES

@<TRIPOS>ATOM
      1 C1         -0.0413    0.7206   -3.3017 C.3       1 <0>        -0.1439
      2 C2          0.1503   -0.6589   -2.6683 C.3       1 <0>        -0.0981
      3 C3          0.7182   -0.4975   -1.2568 C.3       1 <0>        -0.1524
      4 C4          0.7680   -1.8627   -0.5679 C.3       1 <0>        -0.0265
      5 C5          1.7514   -2.7979   -1.3030 C.3       1 <0>        -0.1290
      6 C6          2.3519   -3.6234   -0.1454 C.3       1 <0>        -0.0773
      7 C7          2.2355   -2.7364    1.0757 C.ar      1 <0>        -0.0611
      8 C8          1.3248   -1.7242    0.8330 C.ar      1 <0>        -0.0952
      9 C9          1.0556   -0.7864    1.8160 C.ar      1 <0>        -0.0381
     10 C10         1.6923   -0.8570    3.0388 C.ar      1 <0>        -0.2065
     11 C11         2.6061   -1.8711    3.2845 C.ar      1 <0>         0.1180
     12 C12         2.8756   -2.8096    2.3003 C.ar      1 <0>        -0.1447
     13 O1          3.2360   -1.9444    4.4865 O.3       1 <0>        -0.3179
     14 C13         2.9091   -0.9431    5.4523 C.3       1 <0>         0.0685
     15 C14         3.7109   -1.1879    6.7322 C.3       1 <0>        -0.0337
     16 C15         3.3662   -0.1320    7.7506 C.2       1 <0>        -0.0072
     17 C16         3.9823    1.0546    7.9013 C.2       1 <0>        -0.0247
     18 O2          3.3716    1.6965    8.9169 O.3       1 <0>        -0.1918
     19 C17         2.3919    0.8979    9.3746 C.2       1 <0>         0.2239
     20 N1          2.3868   -0.2055    8.6644 N.2       1 <0>        -0.4523
     21 C18         1.4715    1.2121   10.4880 C.ar      1 <0>         0.0230
     22 C19         0.4971    0.2881   10.8697 C.ar      1 <0>        -0.0962
     23 C20        -0.3612    0.5908   11.9076 C.ar      1 <0>        -0.0702
     24 C21        -0.2559    1.7990   12.5641 C.ar      1 <0>        -0.1582
     25 C22         0.7129    2.7284   12.2031 C.ar      1 <0>         0.1052
     26 C23         1.5806    2.4275   11.1593 C.ar      1 <0>        -0.1111
     27 O3          0.6521    3.8356   12.9936 O.3       1 <0>        -0.3022
     28 C24        -0.6365    3.8939   13.6282 C.3       1 <0>         0.0506
     29 C25        -1.0468    2.4046   13.7083 C.3       1 <0>        -0.1123
     30 C26         5.1401    1.5702    7.0859 C.3       1 <0>        -0.0749
     31 C27         2.1097    0.0754   -1.3376 C.2       1 <0>         0.5076
     32 O4          2.5237    0.7990   -0.4480 O.co2     1 <0>        -0.6958
     33 O5          2.8216   -0.1847   -2.2927 O.co2     1 <0>        -0.6975
     34 H1         -0.7336    1.3055   -2.6962 H         1 <0>         0.0399
     35 H2          0.9192    1.2335   -3.3529 H         1 <0>         0.0616
     36 H3         -0.4458    0.6056   -4.3073 H         1 <0>         0.0402
     37 H4         -0.8101   -1.1717   -2.6171 H         1 <0>         0.0376
     38 H5          0.8427   -1.2437   -3.2738 H         1 <0>         0.0686
     39 H6          0.0809    0.1757   -0.6835 H         1 <0>         0.0551
     40 H7         -0.2271   -2.3066   -0.5372 H         1 <0>         0.0673
     41 H8          1.2219   -3.4426   -2.0046 H         1 <0>         0.0635
     42 H9          2.5256   -2.2234   -1.8116 H         1 <0>         0.1090
     43 H10         1.7832   -4.5421   -0.0012 H         1 <0>         0.0718
     44 H11         3.3980   -3.8531   -0.3477 H         1 <0>         0.0705
     45 H12         0.3442    0.0035    1.6251 H         1 <0>         0.1167
     46 H13         1.4796   -0.1237    3.8026 H         1 <0>         0.1195
     47 H14         3.5868   -3.6000    2.4899 H         1 <0>         0.1208
     48 H15         3.1543    0.0410    5.0526 H         1 <0>         0.0619
     49 H16         1.8435   -0.9889    5.6767 H         1 <0>         0.0632
     50 H17         3.4658   -2.1719    7.1318 H         1 <0>         0.0936
     51 H18         4.7766   -1.1421    6.5077 H         1 <0>         0.0929
     52 H19         0.4151   -0.6582   10.3555 H         1 <0>         0.1462
     53 H20        -1.1173   -0.1203   12.2061 H         1 <0>         0.1360
     54 H21         2.3375    3.1396   10.8653 H         1 <0>         0.1370
     55 H22        -0.5565    4.3265   14.6255 H         1 <0>         0.1087
     56 H23        -1.3425    4.4567   13.0175 H         1 <0>         0.0795
     57 H24        -2.1183    2.2865   13.5464 H         1 <0>         0.0956
     58 H25        -0.7481    1.9690   14.6617 H         1 <0>         0.0943
     59 H26         4.7614    2.1205    6.2246 H         1 <0>         0.0919
     60 H27         5.7508    2.2320    7.7001 H         1 <0>         0.0814
     61 H28         5.7455    0.7310    6.7434 H         1 <0>         0.0978
@<TRIPOS>BOND
     1    1    2 1
     2    1   34 1
     3    1   35 1
     4    1   36 1
     5    2    3 1
     6    2   37 1
     7    2   38 1
     8    3    4 1
     9    3   31 1
    10    3   39 1
    11    4    8 1
    12    4    5 1
    13    4   40 1
    14    5    6 1
    15    5   41 1
    16    5   42 1
    17    6    7 1
    18    6   43 1
    19    6   44 1
    20    7   12 ar
    21    7    8 ar
    22    8    9 ar
    23    9   10 ar
    24    9   45 1
    25   10   11 ar
    26   10   46 1
    27   11   12 ar
    28   11   13 1
    29   12   47 1
    30   13   14 1
    31   14   15 1
    32   14   48 1
    33   14   49 1
    34   15   16 1
    35   15   50 1
    36   15   51 1
    37   16   20 1
    38   16   17 2
    39   17   18 1
    40   17   30 1
    41   18   19 1
    42   19   20 2
    43   19   21 1
    44   21   26 ar
    45   21   22 ar
    46   22   23 ar
    47   22   52 1
    48   23   24 ar
    49   23   53 1
    50   24   29 1
    51   24   25 ar
    52   25   26 ar
    53   25   27 1
    54   26   54 1
    55   27   28 1
    56   28   29 1
    57   28   55 1
    58   28   56 1
    59   29   57 1
    60   29   58 1
    61   30   59 1
    62   30   60 1
    63   30   61 1
    64   31   32 2
    65   31   33 1
@<TRIPOS>MOLECULE
CHEMBL578860
   42    44     0     0     0
SMALL
USER_CHARGES

@<TRIPOS>ATOM
      1 C1          7.2361   -5.5322    1.7486 C.ar      1 <0>        -0.1333
      2 C2          6.0797   -6.2752    1.6013 C.ar      1 <0>        -0.1230
      3 C3          4.9241   -5.6715    1.1418 C.ar      1 <0>        -0.1198
      4 C4          4.9248   -4.3248    0.8300 C.ar      1 <0>        -0.0694
      5 C5          6.0809   -3.5816    0.9781 C.ar      1 <0>        -0.1033
      6 C6          7.2368   -4.1855    1.4363 C.ar      1 <0>        -0.1229
      7 C7          3.6652   -3.6670    0.3281 C.3       1 <0>        -0.0630
      8 C8          2.8625   -3.1301    1.5149 C.3       1 <0>         0.0229
      9 C9          1.5470   -2.5822    1.0248 C.2       1 <0>         0.4805
     10 O1          0.7233   -3.3297    0.5255 O.co2     1 <0>        -0.6900
     11 O2          1.3063   -1.3914    1.1277 O.co2     1 <0>        -0.6704
     12 O3          3.6016   -2.0901    2.1584 O.3       1 <0>        -0.2907
     13 C10         3.2904   -1.8229    3.4548 C.ar      1 <0>         0.1481
     14 C11         3.9243   -0.7839    4.1202 C.ar      1 <0>        -0.1288
     15 C12         3.6082   -0.5124    5.4370 C.ar      1 <0>        -0.1519
     16 C13         2.6568   -1.2788    6.0942 C.ar      1 <0>         0.0585
     17 C14         2.0228   -2.3179    5.4286 C.ar      1 <0>        -0.0975
     18 C15         2.3350   -2.5856    4.1100 C.ar      1 <0>        -0.1698
     19 O4          2.3459   -1.0119    7.3906 O.3       1 <0>        -0.2641
     20 C16         2.9113    0.0790    7.9706 C.ar      1 <0>         0.0986
     21 C17         2.5191    1.3530    7.5850 C.ar      1 <0>        -0.1387
     22 C18         3.0952    2.4604    8.1766 C.ar      1 <0>        -0.1045
     23 C19         4.0623    2.3002    9.1518 C.ar      1 <0>        -0.1285
     24 C20         4.4553    1.0319    9.5375 C.ar      1 <0>        -0.1065
     25 C21         3.8779   -0.0789    8.9536 C.ar      1 <0>        -0.1276
     26 H1          8.1377   -6.0028    2.1118 H         1 <0>         0.1150
     27 H2          6.0792   -7.3273    1.8449 H         1 <0>         0.1170
     28 H3          4.0209   -6.2522    1.0260 H         1 <0>         0.1214
     29 H4          6.0815   -2.5295    0.7342 H         1 <0>         0.1226
     30 H5          8.1402   -3.6050    1.5517 H         1 <0>         0.1168
     31 H6          3.9256   -2.8434   -0.3368 H         1 <0>         0.0783
     32 H7          3.0657   -4.3972   -0.2155 H         1 <0>         0.0961
     33 H8          2.6785   -3.9372    2.2239 H         1 <0>         0.0661
     34 H9          4.6653   -0.1875    3.6087 H         1 <0>         0.1288
     35 H10         4.1021    0.2963    5.9552 H         1 <0>         0.1269
     36 H11         1.2823   -2.9148    5.9402 H         1 <0>         0.1288
     37 H12         1.8380   -3.3915    3.5904 H         1 <0>         0.1352
     38 H13         1.7643    1.4786    6.8229 H         1 <0>         0.1316
     39 H14         2.7903    3.4521    7.8769 H         1 <0>         0.1277
     40 H15         4.5117    3.1674    9.6128 H         1 <0>         0.1247
     41 H16         5.2114    0.9096   10.2990 H         1 <0>         0.1278
     42 H17         4.1818   -1.0693    9.2586 H         1 <0>         0.1303
@<TRIPOS>BOND
     1    1    6 ar
     2    1    2 ar
     3    1   26 1
     4    2    3 ar
     5    2   27 1
     6    3    4 ar
     7    3   28 1
     8    4    5 ar
     9    4    7 1
    10    5    6 ar
    11    5   29 1
    12    6   30 1
    13    7    8 1
    14    7   31 1
    15    7   32 1
    16    8    9 1
    17    8   12 1
    18    8   33 1
    19    9   10 2
    20    9   11 1
    21   12   13 1
    22   13   18 ar
    23   13   14 ar
    24   14   15 ar
    25   14   34 1
    26   15   16 ar
    27   15   35 1
    28   16   17 ar
    29   16   19 1
    30   17   18 ar
    31   17   36 1
    32   18   37 1
    33   19   20 1
    34   20   25 ar
    35   20   21 ar
    36   21   22 ar
    37   21   38 1
    38   22   23 ar
    39   22   39 1
    40   23   24 ar
    41   23   40 1
    42   24   25 ar
    43   24   41 1
    44   25   42 1
@<TRIPOS>MOLECULE
CHEMBL578860__1
   42    44     0     0     0
SMALL
USER_CHARGES

@<TRIPOS>ATOM
      1 C1          7.5717   -1.3881   -0.1482 C.ar      1 <0>        -0.1334
      2 C2          6.2820   -1.8818   -0.0858 C.ar      1 <0>        -0.1229
      3 C3          5.2089   -1.0107   -0.0603 C.ar      1 <0>        -0.1034
      4 C4          5.4256    0.3541   -0.0969 C.ar      1 <0>        -0.0693
      5 C5          6.7153    0.8478   -0.1585 C.ar      1 <0>        -0.1197
      6 C6          7.7883   -0.0233   -0.1853 C.ar      1 <0>        -0.1231
      7 C7          4.2558    1.3038   -0.0702 C.3       1 <0>        -0.0637
      8 C8          3.9168    1.6547    1.3800 C.3       1 <0>         0.0234
      9 C9          2.8289    2.6973    1.4034 C.2       1 <0>         0.4805
     10 O1          1.7360    2.4275    1.8715 O.co2     1 <0>        -0.6700
     11 O2          3.0417    3.8106    0.9542 O.co2     1 <0>        -0.6902
     12 O3          3.4673    0.4818    2.0613 O.3       1 <0>        -0.2899
     13 C10         3.6164    0.4576    3.4127 C.ar      1 <0>         0.1454
     14 C11         3.2940   -0.6878    4.1255 C.ar      1 <0>        -0.1304
     15 C12         3.4454   -0.7125    5.4982 C.ar      1 <0>        -0.1519
     16 C13         3.9199    0.4083    6.1639 C.ar      1 <0>         0.0600
     17 C14         4.2423    1.5538    5.4509 C.ar      1 <0>        -0.0983
     18 C15         4.0961    1.5764    4.0776 C.ar      1 <0>        -0.1669
     19 O4          4.0685    0.3842    7.5152 O.3       1 <0>        -0.2655
     20 C16         3.8437   -0.7901    8.1608 C.ar      1 <0>         0.0972
     21 C17         4.7995   -1.7955    8.1277 C.ar      1 <0>        -0.1354
     22 C18         4.5686   -2.9882    8.7853 C.ar      1 <0>        -0.1071
     23 C19         3.3863   -3.1807    9.4758 C.ar      1 <0>        -0.1266
     24 C20         2.4320   -2.1806    9.5101 C.ar      1 <0>        -0.1064
     25 C21         2.6605   -0.9837    8.8593 C.ar      1 <0>        -0.1262
     26 H1          8.4102   -2.0686   -0.1636 H         1 <0>         0.1150
     27 H2          6.1127   -2.9480   -0.0572 H         1 <0>         0.1168
     28 H3          4.2013   -1.3964   -0.0122 H         1 <0>         0.1226
     29 H4          6.8846    1.9141   -0.1874 H         1 <0>         0.1214
     30 H5          8.7959    0.3624   -0.2338 H         1 <0>         0.1170
     31 H6          4.5134    2.2130   -0.6133 H         1 <0>         0.0960
     32 H7          3.3935    0.8314   -0.5407 H         1 <0>         0.0784
     33 H8          4.8051    2.0453    1.8764 H         1 <0>         0.0660
     34 H9          2.9243   -1.5602    3.6072 H         1 <0>         0.1285
     35 H10         3.1941   -1.6042    6.0532 H         1 <0>         0.1261
     36 H11         4.6113    2.4265    5.9691 H         1 <0>         0.1290
     37 H12         4.3516    2.4665    3.5220 H         1 <0>         0.1356
     38 H13         5.7229   -1.6459    7.5879 H         1 <0>         0.1294
     39 H14         5.3122   -3.7710    8.7598 H         1 <0>         0.1270
     40 H15         3.2076   -4.1140    9.9891 H         1 <0>         0.1248
     41 H16         1.5091   -2.3338   10.0496 H         1 <0>         0.1284
     42 H17         1.9169   -0.2011    8.8904 H         1 <0>         0.1316
@<TRIPOS>BOND
     1    1    6 ar
     2    1    2 ar
     3    1   26 1
     4    2    3 ar
     5    2   27 1
     6    3    4 ar
     7    3   28 1
     8    4    5 ar
     9    4    7 1
    10    5    6 ar
    11    5   29 1
    12    6   30 1
    13    7    8 1
    14    7   31 1
    15    7   32 1
    16    8    9 1
    17    8   12 1
    18    8   33 1
    19    9   10 2
    20    9   11 1
    21   12   13 1
    22   13   18 ar
    23   13   14 ar
    24   14   15 ar
    25   14   34 1
    26   15   16 ar
    27   15   35 1
    28   16   17 ar
    29   16   19 1
    30   17   18 ar
    31   17   36 1
    32   18   37 1
    33   19   20 1
    34   20   25 ar
    35   20   21 ar
    36   21   22 ar
    37   21   38 1
    38   22   23 ar
    39   22   39 1
    40   23   24 ar
    41   23   40 1
    42   24   25 ar
    43   24   41 1
    44   25   42 1
@<TRIPOS>MOLECULE
CHEMBL237710
   69    72     0     0     0
SMALL
USER_CHARGES

@<TRIPOS>ATOM
      1 C1          4.5131   -3.0224   -1.4590 C.3       1 <0>        -0.0966
      2 C2          3.2584   -2.2104   -1.6528 C.ar      1 <0>        -0.1050
      3 C3          2.0476   -2.8460   -1.8480 C.ar      1 <0>        -0.1677
      4 C4          0.8928   -2.0986   -2.0263 C.ar      1 <0>         0.0658
      5 C5          0.9540   -0.7126   -2.0086 C.ar      1 <0>        -0.1189
      6 C6          2.1646   -0.0774   -1.8134 C.ar      1 <0>        -0.1192
      7 C7          3.3186   -0.8251   -1.6294 C.ar      1 <0>         0.1460
      8 O1          4.5096   -0.1995   -1.4312 O.3       1 <0>        -0.2986
      9 C8          4.4802    1.2222   -1.2906 C.3       1 <0>         0.0293
     10 C9          3.6005    1.5985   -0.0967 C.3       1 <0>        -0.1714
     11 C10         5.9009    1.7415   -1.0610 C.3       1 <0>        -0.1132
     12 C11         3.9163    1.8394   -2.5444 C.2       1 <0>         0.4806
     13 O2          3.5715    1.1278   -3.4724 O.co2     1 <0>        -0.6690
     14 O3          3.8048    3.0505   -2.6308 O.co2     1 <0>        -0.6852
     15 O4         -0.2989   -2.7241   -2.2190 O.3       1 <0>        -0.2652
     16 C12        -0.2988   -4.0789   -2.3228 C.ar      1 <0>         0.1020
     17 C13        -0.1632   -4.8632   -1.1859 C.ar      1 <0>        -0.1256
     18 C14        -0.1634   -6.2400   -1.2942 C.ar      1 <0>        -0.1073
     19 C15        -0.2981   -6.8373   -2.5342 C.ar      1 <0>        -0.1061
     20 C16        -0.4334   -6.0584   -3.6683 C.ar      1 <0>        -0.1002
     21 C17        -0.4401   -4.6807   -3.5649 C.ar      1 <0>        -0.1054
     22 C18        -0.5795   -6.7127   -5.0180 C.3       1 <0>         0.1647
     23 N1         -1.9993   -6.9376   -5.3005 N.am      1 <0>        -0.7214
     24 C19        -2.3725   -7.5152   -6.4596 C.2       1 <0>         0.5566
     25 O5         -1.5308   -7.8497   -7.2709 O.2       1 <0>        -0.5075
     26 C20        -3.8023   -7.7417   -6.7441 C.ar      1 <0>        -0.1325
     27 C21        -4.7731   -7.3538   -5.8174 C.ar      1 <0>        -0.0487
     28 C22        -6.1069   -7.5677   -6.0893 C.ar      1 <0>        -0.1139
     29 C23        -6.4907   -8.1667   -7.2783 C.ar      1 <0>        -0.1201
     30 C24        -5.5420   -8.5550   -8.2029 C.ar      1 <0>        -0.1565
     31 C25        -4.1949   -8.3421   -7.9483 C.ar      1 <0>         0.1824
     32 O6         -3.2619   -8.7180   -8.8582 O.3       1 <0>        -0.2154
     33 C26        -3.6937   -9.1928  -10.0559 C.ar      1 <0>         0.0699
     34 C27        -4.1768   -8.3168  -11.0175 C.ar      1 <0>        -0.1306
     35 C28        -4.6152   -8.8020  -12.2342 C.ar      1 <0>        -0.1043
     36 C29        -4.5731  -10.1594  -12.4943 C.ar      1 <0>        -0.1153
     37 C30        -4.0926  -11.0345  -11.5377 C.ar      1 <0>        -0.1054
     38 C31        -3.6472  -10.5539  -10.3216 C.ar      1 <0>        -0.1173
     39 C32        -7.9526   -8.3962   -7.5636 C.3       1 <0>         0.5079
     40 F1         -8.7167   -7.9251   -6.4906 F         1 <0>        -0.1721
     41 F2         -8.3133   -7.7115   -8.7291 F         1 <0>        -0.1723
     42 F3         -8.1848   -9.7649   -7.7360 F         1 <0>        -0.1730
     43 H1          4.6524   -3.2283   -0.3977 H         1 <0>         0.0609
     44 H2          4.4248   -3.9629   -2.0030 H         1 <0>         0.0566
     45 H3          5.3695   -2.4635   -1.8362 H         1 <0>         0.0703
     46 H4          2.0001   -3.9249   -1.8622 H         1 <0>         0.1238
     47 H5          0.0550   -0.1305   -2.1478 H         1 <0>         0.1247
     48 H6          2.2123    1.0015   -1.7996 H         1 <0>         0.1500
     49 H7          3.9617    1.0880    0.7960 H         1 <0>         0.0515
     50 H8          3.6416    2.6765    0.0594 H         1 <0>         0.0725
     51 H9          2.5713    1.2992   -0.2951 H         1 <0>         0.0663
     52 H10         6.5050    1.5515   -1.9482 H         1 <0>         0.0560
     53 H11         5.8689    2.8134   -0.8660 H         1 <0>         0.0762
     54 H12         6.3410    1.2295   -0.2053 H         1 <0>         0.0511
     55 H13        -0.0572   -4.3972   -0.2173 H         1 <0>         0.1322
     56 H14        -0.0579   -6.8508   -0.4098 H         1 <0>         0.1302
     57 H15        -0.2973   -7.9141   -2.6168 H         1 <0>         0.1273
     58 H16        -0.5502   -4.0727   -4.4506 H         1 <0>         0.1339
     59 H17        -0.1550   -6.0640   -5.7842 H         1 <0>         0.0825
     60 H18        -0.0534   -7.6673   -5.0178 H         1 <0>         0.0823
     61 H19        -2.6708   -6.6708   -4.6533 H         1 <0>         0.4007
     62 H20        -4.4786   -6.8872   -4.8890 H         1 <0>         0.1488
     63 H21        -6.8565   -7.2674   -5.3722 H         1 <0>         0.1502
     64 H22        -5.8490   -9.0213   -9.1274 H         1 <0>         0.1466
     65 H23        -4.2103   -7.2565  -10.8146 H         1 <0>         0.1322
     66 H24        -4.9916   -8.1206  -12.9828 H         1 <0>         0.1323
     67 H25        -4.9163  -10.5367  -13.4463 H         1 <0>         0.1298
     68 H26        -4.0611  -12.0943  -11.7432 H         1 <0>         0.1329
     69 H27        -3.2672  -11.2373   -9.5767 H         1 <0>         0.1341
@<TRIPOS>BOND
     1    1    2 1
     2    1   43 1
     3    1   44 1
     4    1   45 1
     5    2    7 ar
     6    2    3 ar
     7    3    4 ar
     8    3   46 1
     9    4    5 ar
    10    4   15 1
    11    5    6 ar
    12    5   47 1
    13    6    7 ar
    14    6   48 1
    15    7    8 1
    16    8    9 1
    17    9   10 1
    18    9   11 1
    19    9   12 1
    20   10   49 1
    21   10   50 1
    22   10   51 1
    23   11   52 1
    24   11   53 1
    25   11   54 1
    26   12   13 2
    27   12   14 1
    28   15   16 1
    29   16   21 ar
    30   16   17 ar
    31   17   18 ar
    32   17   55 1
    33   18   19 ar
    34   18   56 1
    35   19   20 ar
    36   19   57 1
    37   20   21 ar
    38   20   22 1
    39   21   58 1
    40   22   23 1
    41   22   59 1
    42   22   60 1
    43   23   24 am
    44   23   61 1
    45   24   25 2
    46   24   26 1
    47   26   31 ar
    48   26   27 ar
    49   27   28 ar
    50   27   62 1
    51   28   29 ar
    52   28   63 1
    53   29   30 ar
    54   29   39 1
    55   30   31 ar
    56   30   64 1
    57   31   32 1
    58   32   33 1
    59   33   38 ar
    60   33   34 ar
    61   34   35 ar
    62   34   65 1
    63   35   36 ar
    64   35   66 1
    65   36   37 ar
    66   36   67 1
    67   37   38 ar
    68   37   68 1
    69   38   69 1
    70   39   40 1
    71   39   41 1
    72   39   42 1
@<TRIPOS>MOLECULE
CHEMBL223128
   71    74     0     0     0
SMALL
USER_CHARGES

@<TRIPOS>ATOM
      1 C1         -0.0184    1.5028    0.0103 C.3       1 <0>        -0.0734
      2 C2          0.0021   -0.0041    0.0020 C.2       1 <0>        -0.0271
      3 C3         -1.0710   -0.8168    0.0025 C.2       1 <0>        -0.0081
      4 N1         -0.6278   -2.0824   -0.0064 N.2       1 <0>        -0.4538
      5 C4          0.6847   -2.0676   -0.0123 C.2       1 <0>         0.2240
      6 O1          1.0978   -0.7881   -0.0131 O.3       1 <0>        -0.1909
      7 C5          1.5608   -3.2570   -0.0220 C.ar      1 <0>         0.0068
      8 C6          1.0014   -4.5370   -0.0315 C.ar      1 <0>        -0.0805
      9 C7          1.8186   -5.6449   -0.0411 C.ar      1 <0>        -0.0695
     10 C8          3.2052   -5.4895   -0.0413 C.ar      1 <0>        -0.0349
     11 C9          3.7648   -4.2115   -0.0314 C.ar      1 <0>        -0.0699
     12 C10         2.9491   -3.1024   -0.0276 C.ar      1 <0>        -0.1001
     13 C11         4.0842   -6.6829   -0.0516 C.ar      1 <0>         0.3583
     14 N2          3.5361   -7.8907   -0.0660 N.ar      1 <0>        -0.5104
     15 C12         4.2916   -8.9752   -0.0759 C.ar      1 <0>         0.1542
     16 C13         5.6719   -8.8385   -0.0711 C.ar      1 <0>        -0.2329
     17 C14         6.2119   -7.5610   -0.0559 C.ar      1 <0>         0.1534
     18 N3          5.4002   -6.5178   -0.0516 N.ar      1 <0>        -0.5117
     19 C15        -2.5138   -0.3818    0.0119 C.3       1 <0>        -0.0339
     20 C16        -3.0089   -0.2263   -1.4274 C.3       1 <0>         0.0679
     21 O2         -4.3771    0.1862   -1.4185 O.3       1 <0>        -0.3151
     22 C17        -4.9735    0.3713   -2.6255 C.ar      1 <0>         0.1105
     23 C18        -4.2584    0.1546   -3.7946 C.ar      1 <0>        -0.1917
     24 C19        -4.8670    0.3429   -5.0201 C.ar      1 <0>        -0.0830
     25 C20        -6.1880    0.7470   -5.0825 C.ar      1 <0>        -0.0759
     26 C21        -6.9026    0.9641   -3.9192 C.ar      1 <0>        -0.0770
     27 C22        -6.3000    0.7716   -2.6908 C.ar      1 <0>        -0.1238
     28 C23        -8.3419    1.4050   -3.9909 C.3       1 <0>         0.1775
     29 N4         -9.1956    0.2442   -4.2557 N.am      1 <0>        -0.6993
     30 C24       -10.5302    0.3994   -4.3618 C.2       1 <0>         0.6487
     31 O3        -11.0253    1.5021   -4.2378 O.2       1 <0>        -0.5697
     32 O4        -11.3147   -0.6673   -4.6052 O.3       1 <0>        -0.3615
     33 C25       -12.7202   -0.4296   -4.7053 C.3       1 <0>         0.0978
     34 C26       -13.0833   -0.1230   -6.1597 C.3       1 <0>        -0.1747
     35 C27       -13.4821   -1.6723   -4.2406 C.3       1 <0>        -0.1479
     36 C28        -6.8496    0.9517   -6.4210 C.3       1 <0>        -0.0624
     37 C29        -6.7600    2.4277   -6.8138 C.3       1 <0>        -0.1754
     38 C30        -7.4216    2.6324   -8.1522 C.2       1 <0>         0.4900
     39 O5         -7.9187    1.6855   -8.7377 O.co2     1 <0>        -0.6973
     40 O6         -7.4597    3.7449   -8.6496 O.co2     1 <0>        -0.7053
     41 H1          1.0042    1.8801    0.0026 H         1 <0>         0.0814
     42 H2         -0.5455    1.8639   -0.8728 H         1 <0>         0.0934
     43 H3         -0.5286    1.8543    0.9071 H         1 <0>         0.0939
     44 H4         -0.0719   -4.6574   -0.0310 H         1 <0>         0.1457
     45 H5          1.3863   -6.6346   -0.0481 H         1 <0>         0.1468
     46 H6          4.8382   -4.0921   -0.0312 H         1 <0>         0.1450
     47 H7          3.3824   -2.1131   -0.0244 H         1 <0>         0.1371
     48 H8          3.8396   -9.9560   -0.0873 H         1 <0>         0.1726
     49 H9          6.3124   -9.7081   -0.0786 H         1 <0>         0.1505
     50 H10         7.2827   -7.4203   -0.0517 H         1 <0>         0.1721
     51 H11        -3.1161   -1.1319    0.5243 H         1 <0>         0.0949
     52 H12        -2.6022    0.5723    0.5316 H         1 <0>         0.0931
     53 H13        -2.4066    0.5238   -1.9398 H         1 <0>         0.0613
     54 H14        -2.9205   -1.1803   -1.9471 H         1 <0>         0.0656
     55 H15        -3.2265   -0.1608   -3.7464 H         1 <0>         0.1239
     56 H16        -4.3107    0.1746   -5.9304 H         1 <0>         0.1274
     57 H17        -6.8600    0.9369   -1.7823 H         1 <0>         0.1308
     58 H18        -8.6303    1.8594   -3.0430 H         1 <0>         0.0781
     59 H19        -8.4593    2.1330   -4.7935 H         1 <0>         0.0922
     60 H20        -8.8003   -0.6360   -4.3547 H         1 <0>         0.4073
     61 H21       -12.9909    0.4188   -4.0767 H         1 <0>         0.0844
     62 H22       -12.5405    0.7624   -6.4908 H         1 <0>         0.0677
     63 H23       -12.8126   -0.9713   -6.7883 H         1 <0>         0.0652
     64 H24       -14.1554    0.0584   -6.2361 H         1 <0>         0.0714
     65 H25       -13.2235   -1.8908   -3.2045 H         1 <0>         0.0620
     66 H26       -14.5542   -1.4910   -4.3170 H         1 <0>         0.0771
     67 H27       -13.2114   -2.5207   -4.8693 H         1 <0>         0.0665
     68 H28        -6.3449    0.3445   -7.1724 H         1 <0>         0.0709
     69 H29        -7.8967    0.6555   -6.3578 H         1 <0>         0.0750
     70 H30        -7.2647    3.0350   -6.0624 H         1 <0>         0.0576
     71 H31        -5.7129    2.7240   -6.8770 H         1 <0>         0.0569
@<TRIPOS>BOND
     1    1    2 1
     2    1   41 1
     3    1   42 1
     4    1   43 1
     5    2    6 1
     6    2    3 2
     7    3    4 1
     8    3   19 1
     9    4    5 2
    10    5    6 1
    11    5    7 1
    12    7   12 ar
    13    7    8 ar
    14    8    9 ar
    15    8   44 1
    16    9   10 ar
    17    9   45 1
    18   10   11 ar
    19   10   13 1
    20   11   12 ar
    21   11   46 1
    22   12   47 1
    23   13   18 ar
    24   13   14 ar
    25   14   15 ar
    26   15   16 ar
    27   15   48 1
    28   16   17 ar
    29   16   49 1
    30   17   18 ar
    31   17   50 1
    32   19   20 1
    33   19   51 1
    34   19   52 1
    35   20   21 1
    36   20   53 1
    37   20   54 1
    38   21   22 1
    39   22   27 ar
    40   22   23 ar
    41   23   24 ar
    42   23   55 1
    43   24   25 ar
    44   24   56 1
    45   25   26 ar
    46   25   36 1
    47   26   27 ar
    48   26   28 1
    49   27   57 1
    50   28   29 1
    51   28   58 1
    52   28   59 1
    53   29   30 am
    54   29   60 1
    55   30   31 2
    56   30   32 1
    57   32   33 1
    58   33   34 1
    59   33   35 1
    60   33   61 1
    61   34   62 1
    62   34   63 1
    63   34   64 1
    64   35   65 1
    65   35   66 1
    66   35   67 1
    67   36   37 1
    68   36   68 1
    69   36   69 1
    70   37   38 1
    71   37   70 1
    72   37   71 1
    73   38   39 2
    74   38   40 1
@<TRIPOS>MOLECULE
CHEMBL80979
   58    60     0     0     0
SMALL
USER_CHARGES

@<TRIPOS>ATOM
      1 C1         -0.0187    1.5258    0.0104 C.3       1 <0>        -0.1437
      2 C2          0.0021   -0.0041    0.0020 C.3       1 <0>         0.0902
      3 C3          0.7421   -0.5109    1.2415 C.3       1 <0>        -0.1663
      4 O1         -1.3386   -0.4987    0.0122 O.3       1 <0>        -0.3605
      5 C4         -1.4988   -1.7570   -0.6458 C.3       1 <0>         0.0330
      6 C5         -2.9073   -1.8480   -1.2364 C.3       1 <0>        -0.0626
      7 C6         -3.0669   -0.8098   -2.3171 C.ar      1 <0>        -0.0924
      8 C7         -3.5267    0.4543   -1.9972 C.ar      1 <0>        -0.0620
      9 C8         -3.6743    1.4076   -2.9861 C.ar      1 <0>        -0.1479
     10 C9         -3.3603    1.0958   -4.3009 C.ar      1 <0>         0.1101
     11 C10        -2.8987   -0.1732   -4.6192 C.ar      1 <0>        -0.2065
     12 C11        -2.7479   -1.1213   -3.6259 C.ar      1 <0>        -0.0824
     13 O2         -3.5050    2.0317   -5.2756 O.3       1 <0>        -0.3139
     14 C12        -3.1627    1.6405   -6.6067 C.3       1 <0>         0.0691
     15 C13        -3.3890    2.8171   -7.5582 C.3       1 <0>        -0.0374
     16 C14        -3.0280    2.4045   -8.9619 C.2       1 <0>         0.2650
     17 N1         -1.8188    2.5185   -9.5154 N.2       1 <0>        -0.5201
     18 C15        -1.8450    2.0664  -10.7490 C.2       1 <0>         0.3326
     19 O3         -3.0951    1.6472  -11.0114 O.3       1 <0>        -0.0932
     20 N2         -3.8450    1.8743   -9.8274 N.2       1 <0>        -0.3182
     21 C16        -0.7010    2.0264  -11.6842 C.ar      1 <0>        -0.0412
     22 C17         0.5513    2.4918  -11.2801 C.ar      1 <0>         0.0225
     23 C18         1.6150    2.4512  -12.1577 C.ar      1 <0>        -0.1879
     24 C19         1.4423    1.9511  -13.4361 C.ar      1 <0>         0.0131
     25 C20         0.2035    1.4887  -13.8432 C.ar      1 <0>        -0.1876
     26 C21        -0.8670    1.5178  -12.9734 C.ar      1 <0>         0.0081
     27 C22         0.0246    0.9462  -15.2377 C.3       1 <0>         0.5155
     28 F1          0.2787   -0.4296  -15.2390 F         1 <0>        -0.1674
     29 F2         -1.2876    1.1784  -15.6637 F         1 <0>        -0.1690
     30 F3          0.9165    1.5860  -16.1050 F         1 <0>        -0.1696
     31 C23         2.9678    2.9532  -11.7231 C.3       1 <0>         0.5154
     32 F4          2.8947    3.4062  -10.4015 F         1 <0>        -0.1669
     33 F5          3.9005    1.9140  -11.8089 F         1 <0>        -0.1680
     34 F6          3.3642    4.0055  -12.5554 F         1 <0>        -0.1690
     35 C24        -1.2975   -2.8725    0.3473 C.2       1 <0>         0.4773
     36 O4         -1.1313   -2.6153    1.5275 O.co2     1 <0>        -0.6720
     37 O5         -1.3010   -4.0320   -0.0293 O.co2     1 <0>        -0.7022
     38 H1          1.0039    1.9031    0.0027 H         1 <0>         0.0585
     39 H2         -0.5459    1.8868   -0.8726 H         1 <0>         0.0533
     40 H3         -0.5289    1.8773    0.9072 H         1 <0>         0.0593
     41 H4          0.5123   -0.3556   -0.8948 H         1 <0>         0.0419
     42 H5          0.7568   -1.6008    1.2356 H         1 <0>         0.0775
     43 H6          1.7647   -0.1336    1.2338 H         1 <0>         0.0380
     44 H7          0.2319   -0.1594    2.1383 H         1 <0>         0.0578
     45 H8         -0.7632   -1.8453   -1.4453 H         1 <0>         0.0472
     46 H9         -3.0600   -2.8404   -1.6606 H         1 <0>         0.0859
     47 H10        -3.6426   -1.6713   -0.4514 H         1 <0>         0.0744
     48 H11        -3.7710    0.6965   -0.9735 H         1 <0>         0.1323
     49 H12        -4.0342    2.3946   -2.7358 H         1 <0>         0.1268
     50 H13        -2.6536   -0.4183   -5.6421 H         1 <0>         0.1197
     51 H14        -2.3844   -2.1080   -3.8724 H         1 <0>         0.1241
     52 H15        -2.1146    1.3430   -6.6397 H         1 <0>         0.0706
     53 H16        -3.7884    0.8015   -6.9110 H         1 <0>         0.0663
     54 H17        -4.4371    3.1147   -7.5251 H         1 <0>         0.1112
     55 H18        -2.7634    3.6561   -7.2538 H         1 <0>         0.1176
     56 H19         0.6873    2.8830  -10.2826 H         1 <0>         0.1713
     57 H20         2.2782    1.9219  -14.1194 H         1 <0>         0.1598
     58 H21        -1.8324    1.1525  -13.2909 H         1 <0>         0.1627
@<TRIPOS>BOND
     1    1    2 1
     2    1   38 1
     3    1   39 1
     4    1   40 1
     5    2    3 1
     6    2    4 1
     7    2   41 1
     8    3   42 1
     9    3   43 1
    10    3   44 1
    11    4    5 1
    12    5    6 1
    13    5   35 1
    14    5   45 1
    15    6    7 1
    16    6   46 1
    17    6   47 1
    18    7   12 ar
    19    7    8 ar
    20    8    9 ar
    21    8   48 1
    22    9   10 ar
    23    9   49 1
    24   10   11 ar
    25   10   13 1
    26   11   12 ar
    27   11   50 1
    28   12   51 1
    29   13   14 1
    30   14   15 1
    31   14   52 1
    32   14   53 1
    33   15   16 1
    34   15   54 1
    35   15   55 1
    36   16   20 2
    37   16   17 1
    38   17   18 2
    39   18   19 1
    40   18   21 1
    41   19   20 1
    42   21   26 ar
    43   21   22 ar
    44   22   23 ar
    45   22   56 1
    46   23   24 ar
    47   23   31 1
    48   24   25 ar
    49   24   57 1
    50   25   26 ar
    51   25   27 1
    52   26   58 1
    53   27   28 1
    54   27   29 1
    55   27   30 1
    56   31   32 1
    57   31   33 1
    58   31   34 1
    59   35   36 2
    60   35   37 1
@<TRIPOS>MOLECULE
CHEMBL80979__1
   58    60     0     0     0
SMALL
USER_CHARGES

@<TRIPOS>ATOM
      1 C1         -0.0187    1.5258    0.0104 C.3       1 <0>        -0.1417
      2 C2          0.0021   -0.0041    0.0020 C.3       1 <0>         0.0906
      3 C3          0.7421   -0.5109    1.2415 C.3       1 <0>        -0.1684
      4 O1         -1.3386   -0.4987    0.0122 O.3       1 <0>        -0.3599
      5 C4         -1.4988   -1.7570   -0.6458 C.3       1 <0>         0.0337
      6 C5         -2.6458   -2.5313    0.0067 C.3       1 <0>        -0.0620
      7 C6         -2.2788   -2.8690    1.4288 C.ar      1 <0>        -0.0913
      8 C7         -1.6203   -4.0519    1.7094 C.ar      1 <0>        -0.0826
      9 C8         -1.2832   -4.3639    3.0123 C.ar      1 <0>        -0.1481
     10 C9         -1.6056   -3.4890    4.0395 C.ar      1 <0>         0.1102
     11 C10        -2.2660   -2.3025    3.7553 C.ar      1 <0>        -0.2059
     12 C11        -2.5963   -1.9927    2.4501 C.ar      1 <0>        -0.0610
     13 O2         -1.2755   -3.7939    5.3220 O.3       1 <0>        -0.3143
     14 C12        -1.6387   -2.8464    6.3282 C.3       1 <0>         0.0693
     15 C13        -1.1883   -3.3587    7.6977 C.3       1 <0>        -0.0374
     16 C14        -1.5714   -2.3595    8.7587 C.2       1 <0>         0.2650
     17 N1         -0.8138   -1.3416    9.1730 N.2       1 <0>        -0.5200
     18 C15        -1.4434   -0.6641   10.1066 C.2       1 <0>         0.3325
     19 O3         -2.6373   -1.2477   10.3098 O.3       1 <0>        -0.0932
     20 N2         -2.6973   -2.3478    9.4144 N.2       1 <0>        -0.3183
     21 C16        -0.9287    0.5296   10.8103 C.ar      1 <0>        -0.0411
     22 C17         0.3330    1.0380   10.4975 C.ar      1 <0>         0.0226
     23 C18         0.8071    2.1527   11.1578 C.ar      1 <0>        -0.1879
     24 C19         0.0352    2.7661   12.1283 C.ar      1 <0>         0.0131
     25 C20        -1.2161    2.2670   12.4435 C.ar      1 <0>        -0.1876
     26 C21        -1.7047    1.1566   11.7864 C.ar      1 <0>         0.0080
     27 C22        -2.0498    2.9414   13.5024 C.3       1 <0>         0.5156
     28 F1         -2.8487    3.9255   12.9104 F         1 <0>        -0.1674
     29 F2         -2.8656    1.9926   14.1281 F         1 <0>        -0.1691
     30 F3         -1.2090    3.5321   14.4517 F         1 <0>        -0.1697
     31 C23         2.1691    2.7030   10.8214 C.3       1 <0>         0.5153
     32 F4          2.7537    1.9209    9.8195 F         1 <0>        -0.1669
     33 F5          2.0410    4.0207   10.3692 F         1 <0>        -0.1680
     34 F6          2.9771    2.6783   11.9632 F         1 <0>        -0.1691
     35 C24        -1.8128   -1.5263   -2.1016 C.2       1 <0>         0.4768
     36 O4         -1.8919   -0.3896   -2.5354 O.co2     1 <0>        -0.6796
     37 O5         -1.9876   -2.4763   -2.8455 O.co2     1 <0>        -0.7003
     38 H1          1.0039    1.9031    0.0027 H         1 <0>         0.0554
     39 H2         -0.5459    1.8868   -0.8726 H         1 <0>         0.0678
     40 H3         -0.5289    1.8773    0.9072 H         1 <0>         0.0524
     41 H4          0.5123   -0.3556   -0.8948 H         1 <0>         0.0529
     42 H5          0.7568   -1.6008    1.2356 H         1 <0>         0.0507
     43 H6          1.7647   -0.1336    1.2338 H         1 <0>         0.0541
     44 H7          0.2319   -0.1594    2.1383 H         1 <0>         0.0551
     45 H8         -0.5769   -2.3321   -0.5597 H         1 <0>         0.0488
     46 H9         -3.5477   -1.9193   -0.0003 H         1 <0>         0.0725
     47 H10        -2.8264   -3.4509   -0.5500 H         1 <0>         0.0880
     48 H11        -1.3695   -4.7327    0.9094 H         1 <0>         0.1293
     49 H12        -0.7694   -5.2884    3.2310 H         1 <0>         0.1263
     50 H13        -2.5181   -1.6197    4.5532 H         1 <0>         0.1193
     51 H14        -3.1064   -1.0671    2.2278 H         1 <0>         0.1260
     52 H15        -1.1549   -1.8920    6.1202 H         1 <0>         0.0709
     53 H16        -2.7206   -2.7129    6.3280 H         1 <0>         0.0663
     54 H17        -1.6721   -4.3131    7.9057 H         1 <0>         0.1110
     55 H18        -0.1065   -3.4922    7.6978 H         1 <0>         0.1174
     56 H19         0.9368    0.5596    9.7406 H         1 <0>         0.1713
     57 H20         0.4112    3.6383   12.6425 H         1 <0>         0.1598
     58 H21        -2.6835    0.7706   12.0302 H         1 <0>         0.1627
@<TRIPOS>BOND
     1    1    2 1
     2    1   38 1
     3    1   39 1
     4    1   40 1
     5    2    3 1
     6    2    4 1
     7    2   41 1
     8    3   42 1
     9    3   43 1
    10    3   44 1
    11    4    5 1
    12    5    6 1
    13    5   35 1
    14    5   45 1
    15    6    7 1
    16    6   46 1
    17    6   47 1
    18    7   12 ar
    19    7    8 ar
    20    8    9 ar
    21    8   48 1
    22    9   10 ar
    23    9   49 1
    24   10   11 ar
    25   10   13 1
    26   11   12 ar
    27   11   50 1
    28   12   51 1
    29   13   14 1
    30   14   15 1
    31   14   52 1
    32   14   53 1
    33   15   16 1
    34   15   54 1
    35   15   55 1
    36   16   20 2
    37   16   17 1
    38   17   18 2
    39   18   19 1
    40   18   21 1
    41   19   20 1
    42   21   26 ar
    43   21   22 ar
    44   22   23 ar
    45   22   56 1
    46   23   24 ar
    47   23   31 1
    48   24   25 ar
    49   24   57 1
    50   25   26 ar
    51   25   27 1
    52   26   58 1
    53   27   28 1
    54   27   29 1
    55   27   30 1
    56   31   32 1
    57   31   33 1
    58   31   34 1
    59   35   36 2
    60   35   37 1
@<TRIPOS>MOLECULE
CHEMBL377508
   59    61     0     0     0
SMALL
USER_CHARGES

@<TRIPOS>ATOM
      1 C1         -1.3079    0.2443   -0.9312 C.3       1 <0>        -0.1147
      2 C2          0.1719    0.4846   -0.6257 C.3       1 <0>         0.0295
      3 C3          0.5013    1.9645   -0.8310 C.3       1 <0>        -0.1738
      4 C4          0.4588    0.0995    0.8028 C.2       1 <0>         0.4808
      5 O1          1.2748   -0.7729    1.0468 O.co2     1 <0>        -0.6692
      6 O2         -0.1250    0.6604    1.7144 O.co2     1 <0>        -0.6858
      7 O3          0.9742   -0.3082   -1.5031 O.3       1 <0>        -0.3037
      8 C5          2.3234   -0.2026   -1.3701 C.ar      1 <0>         0.1369
      9 C6          2.8616    0.5568   -0.3418 C.ar      1 <0>        -0.1176
     10 C7          4.2321    0.6640   -0.2067 C.ar      1 <0>        -0.1228
     11 C8          5.0701    0.0119   -1.0991 C.ar      1 <0>         0.0732
     12 C9          4.5319   -0.7483   -2.1268 C.ar      1 <0>        -0.1807
     13 C10         3.1614   -0.8590   -2.2593 C.ar      1 <0>        -0.1356
     14 O4          6.4192    0.1182   -0.9666 O.3       1 <0>        -0.3208
     15 C11         7.2218   -0.5799   -1.9209 C.3       1 <0>         0.0631
     16 C12         8.7017   -0.3435   -1.6130 C.3       1 <0>        -0.1150
     17 C13         9.5610   -1.0908   -2.6347 C.3       1 <0>        -0.1154
     18 C14        11.0409   -0.8544   -2.3268 C.3       1 <0>         0.0590
     19 O5         11.8434   -1.5525   -3.2811 O.3       1 <0>        -0.3007
     20 C15        13.1928   -1.4462   -3.1486 C.ar      1 <0>         0.1177
     21 C16        13.7310   -0.6903   -2.1180 C.ar      1 <0>        -0.1593
     22 C17        15.1014   -0.5818   -1.9834 C.ar      1 <0>        -0.1467
     23 C18        15.9402   -1.2288   -2.8794 C.ar      1 <0>         0.0930
     24 C19        15.4027   -1.9850   -3.9105 C.ar      1 <0>        -0.0975
     25 C20        14.0313   -2.0988   -4.0416 C.ar      1 <0>        -0.0354
     26 Cl1        13.3580   -3.0513   -5.3273 Cl        1 <0>        -0.0417
     27 O6         17.2890   -1.1213   -2.7469 O.3       1 <0>        -0.2517
     28 C21        17.7729   -0.4547   -1.6656 C.ar      1 <0>         0.0728
     29 C22        17.7913   -1.0694   -0.4220 C.ar      1 <0>        -0.1022
     30 C23        18.2834   -0.3907    0.6759 C.ar      1 <0>        -0.1387
     31 C24        18.7580    0.9025    0.5357 C.ar      1 <0>         0.1027
     32 C25        18.7398    1.5174   -0.7047 C.ar      1 <0>        -0.1390
     33 C26        18.2541    0.8390   -1.8057 C.ar      1 <0>        -0.0916
     34 F1         19.2389    1.5651    1.6104 F         1 <0>        -0.1337
     35 H1         -1.5340    0.6011   -1.9360 H         1 <0>         0.0502
     36 H2         -1.5236   -0.8222   -0.8673 H         1 <0>         0.0566
     37 H3         -1.9203    0.7829   -0.2080 H         1 <0>         0.0780
     38 H4          0.0477    2.5519   -0.0326 H         1 <0>         0.0751
     39 H5          1.5825    2.1019   -0.8138 H         1 <0>         0.0666
     40 H6          0.1084    2.2942   -1.7927 H         1 <0>         0.0510
     41 H7          2.2092    1.0646    0.3530 H         1 <0>         0.1456
     42 H8          4.6512    1.2560    0.5935 H         1 <0>         0.1230
     43 H9          5.1843   -1.2558   -2.8218 H         1 <0>         0.1225
     44 H10         2.7423   -1.4540   -3.0573 H         1 <0>         0.1229
     45 H11         7.0053   -1.6468   -1.8666 H         1 <0>         0.0600
     46 H12         6.9961   -0.2139   -2.9225 H         1 <0>         0.0590
     47 H13         8.9182    0.7235   -1.6673 H         1 <0>         0.0761
     48 H14         8.9274   -0.7095   -0.6114 H         1 <0>         0.0769
     49 H15         9.3445   -2.1578   -2.5804 H         1 <0>         0.0798
     50 H16         9.3353   -0.7248   -3.6363 H         1 <0>         0.0792
     51 H17        11.2574    0.2125   -2.3811 H         1 <0>         0.0666
     52 H18        11.2666   -1.2204   -1.3252 H         1 <0>         0.0669
     53 H19        13.0785   -0.1862   -1.4205 H         1 <0>         0.1436
     54 H20        15.5201    0.0073   -1.1809 H         1 <0>         0.1365
     55 H21        16.0556   -2.4882   -4.6084 H         1 <0>         0.1505
     56 H22        17.4209   -2.0779   -0.3123 H         1 <0>         0.1428
     57 H23        18.2975   -0.8688    1.6442 H         1 <0>         0.1450
     58 H24        19.1097    2.5264   -0.8124 H         1 <0>         0.1457
     59 H25        18.2445    1.3171   -2.7740 H         1 <0>         0.1445
@<TRIPOS>BOND
     1    1    2 1
     2    1   35 1
     3    1   36 1
     4    1   37 1
     5    2    3 1
     6    2    4 1
     7    2    7 1
     8    3   38 1
     9    3   39 1
    10    3   40 1
    11    4    5 2
    12    4    6 1
    13    7    8 1
    14    8   13 ar
    15    8    9 ar
    16    9   10 ar
    17    9   41 1
    18   10   11 ar
    19   10   42 1
    20   11   12 ar
    21   11   14 1
    22   12   13 ar
    23   12   43 1
    24   13   44 1
    25   14   15 1
    26   15   16 1
    27   15   45 1
    28   15   46 1
    29   16   17 1
    30   16   47 1
    31   16   48 1
    32   17   18 1
    33   17   49 1
    34   17   50 1
    35   18   19 1
    36   18   51 1
    37   18   52 1
    38   19   20 1
    39   20   25 ar
    40   20   21 ar
    41   21   22 ar
    42   21   53 1
    43   22   23 ar
    44   22   54 1
    45   23   24 ar
    46   23   27 1
    47   24   25 ar
    48   24   55 1
    49   25   26 1
    50   27   28 1
    51   28   33 ar
    52   28   29 ar
    53   29   30 ar
    54   29   56 1
    55   30   31 ar
    56   30   57 1
    57   31   32 ar
    58   31   34 1
    59   32   33 ar
    60   32   58 1
    61   33   59 1
@<TRIPOS>MOLECULE
CHEMBL391457
   43    46     0     0     0
SMALL
USER_CHARGES

@<TRIPOS>ATOM
      1 C1         -0.0169    1.3914    0.0097 C.ar      1 <0>        -0.0884
      2 C2          1.1702    2.0944    0.0021 C.ar      1 <0>        -0.0696
      3 C3          2.3776    1.4189   -0.0130 C.ar      1 <0>        -0.1689
      4 C4          2.4033    0.0357   -0.0212 C.ar      1 <0>        -0.0678
      5 C5          1.2234   -0.6793   -0.0142 C.ar      1 <0>        -0.0840
      6 C6          0.0021   -0.0041    0.0020 C.ar      1 <0>        -0.0036
      7 C7         -1.2662   -0.7638    0.0105 C.2       1 <0>         0.0988
      8 C8         -1.3901   -2.1189    0.0100 C.2       1 <0>        -0.2330
      9 C9         -2.7579   -2.4288    0.0197 C.2       1 <0>         0.1107
     10 N1         -3.4305   -1.3118    0.0259 N.2       1 <0>        -0.2991
     11 O1         -2.5059   -0.2393    0.0261 O.3       1 <0>        -0.0657
     12 C10        -3.3489   -3.8151    0.0218 C.3       1 <0>         0.1312
     13 O2         -2.2964   -4.7817    0.0122 O.3       1 <0>        -0.3062
     14 C11        -2.6611   -6.0913    0.0127 C.ar      1 <0>         0.1370
     15 C12        -4.0083   -6.4458    0.0164 C.ar      1 <0>        -0.2077
     16 C13        -4.3993   -7.7471    0.0169 C.ar      1 <0>        -0.0207
     17 C14        -3.4440   -8.7913    0.0133 C.ar      1 <0>        -0.0891
     18 C15        -2.0856   -8.4078    0.0092 C.ar      1 <0>        -0.0787
     19 C16        -1.6967   -7.0854    0.0038 C.ar      1 <0>        -0.1103
     20 S1         -1.2155   -9.9540    0.0061 S.3       1 <0>         0.0048
     21 C17        -2.6145  -11.0587    0.0103 C.2       1 <0>        -0.1776
     22 C18        -3.6680  -10.2303    0.0137 C.2       1 <0>        -0.0339
     23 C19        -5.0702  -10.7823    0.0175 C.3       1 <0>        -0.1470
     24 C20        -5.5869  -10.8509   -1.3965 C.2       1 <0>         0.4970
     25 O3         -4.8818  -10.4854   -2.3216 O.co2     1 <0>        -0.6837
     26 O4         -6.7100  -11.2718   -1.6155 O.co2     1 <0>        -0.7008
     27 C21         3.6704    2.1934   -0.0212 C.3       1 <0>         0.5083
     28 F1          4.0830    2.4259    1.2952 F         1 <0>        -0.1742
     29 F2          4.6510    1.4566   -0.6941 F         1 <0>        -0.1744
     30 F3          3.4772    3.4164   -0.6723 F         1 <0>        -0.1751
     31 H1         -0.9586    1.9198    0.0260 H         1 <0>         0.1465
     32 H2          1.1570    3.1743    0.0077 H         1 <0>         0.1447
     33 H3          3.3491   -0.4856   -0.0333 H         1 <0>         0.1469
     34 H4          1.2448   -1.7590   -0.0213 H         1 <0>         0.1478
     35 H5         -0.5779   -2.8307    0.0029 H         1 <0>         0.1711
     36 H6         -3.9574   -3.9494    0.9161 H         1 <0>         0.0983
     37 H7         -3.9708   -3.9463   -0.8638 H         1 <0>         0.0993
     38 H8         -4.7587   -5.6691    0.0192 H         1 <0>         0.1290
     39 H9         -5.4522   -7.9876    0.0205 H         1 <0>         0.1294
     40 H10        -0.6482   -6.8264   -0.0033 H         1 <0>         0.1356
     41 H11        -2.6134  -12.1387    0.0098 H         1 <0>         0.1817
     42 H12        -5.0660  -11.7821    0.4516 H         1 <0>         0.0728
     43 H13        -5.7151  -10.1321    0.6088 H         1 <0>         0.0691
@<TRIPOS>BOND
     1    1    6 ar
     2    1    2 ar
     3    1   31 1
     4    2    3 ar
     5    2   32 1
     6    3    4 ar
     7    3   27 1
     8    4    5 ar
     9    4   33 1
    10    5    6 ar
    11    5   34 1
    12    6    7 1
    13    7   11 1
    14    7    8 2
    15    8    9 1
    16    8   35 1
    17    9   10 2
    18    9   12 1
    19   10   11 1
    20   12   13 1
    21   12   36 1
    22   12   37 1
    23   13   14 1
    24   14   19 ar
    25   14   15 ar
    26   15   16 ar
    27   15   38 1
    28   16   17 ar
    29   16   39 1
    30   17   22 1
    31   17   18 ar
    32   18   19 ar
    33   18   20 1
    34   19   40 1
    35   20   21 1
    36   21   22 2
    37   21   41 1
    38   22   23 1
    39   23   24 1
    40   23   42 1
    41   23   43 1
    42   24   25 2
    43   24   26 1
    44   27   28 1
    45   27   29 1
    46   27   30 1
@<TRIPOS>MOLECULE
CHEMBL230706
   63    66     0     0     0
SMALL
USER_CHARGES

@<TRIPOS>ATOM
      1 C1         -0.0184    1.5028    0.0103 C.3       1 <0>        -0.0708
      2 C2          0.0021   -0.0041    0.0020 C.2       1 <0>        -0.0345
      3 C3         -1.0705   -0.8164    0.0025 C.2       1 <0>        -0.0033
      4 N1         -0.6270   -2.0826   -0.0064 N.2       1 <0>        -0.4574
      5 C4          0.6851   -2.0676   -0.0123 C.2       1 <0>         0.2266
      6 O1          1.0981   -0.7883   -0.0131 O.3       1 <0>        -0.1942
      7 C5          1.5619   -3.2577   -0.0227 C.ar      1 <0>        -0.0156
      8 C6          1.0059   -4.5378   -0.0330 C.ar      1 <0>        -0.0706
      9 C7          1.8298   -5.6443   -0.0432 C.ar      1 <0>        -0.1202
     10 C8          3.2044   -5.4871   -0.0433 C.ar      1 <0>        -0.1021
     11 C9          3.7620   -4.2209   -0.0327 C.ar      1 <0>        -0.1218
     12 C10         2.9493   -3.1060   -0.0282 C.ar      1 <0>        -0.0913
     13 C11        -2.5133   -0.3814    0.0119 C.3       1 <0>        -0.0355
     14 C12        -3.0085   -0.2260   -1.4274 C.3       1 <0>         0.0707
     15 O2         -4.3766    0.1865   -1.4185 O.3       1 <0>        -0.3192
     16 C13        -4.9731    0.3716   -2.6255 C.ar      1 <0>         0.1196
     17 C14        -4.2580    0.1549   -3.7944 C.ar      1 <0>        -0.2338
     18 C15        -4.8667    0.3432   -5.0201 C.ar      1 <0>        -0.0849
     19 C16        -6.1874    0.7477   -5.0825 C.ar      1 <0>        -0.1066
     20 C17        -6.9021    0.9648   -3.9190 C.ar      1 <0>         0.0231
     21 C18        -6.2998    0.7719   -2.6908 C.ar      1 <0>        -0.1745
     22 C19        -6.8489    0.9529   -6.4210 C.3       1 <0>        -0.0409
     23 C20        -7.4951   -0.3570   -6.8767 C.3       1 <0>        -0.1049
     24 C21        -8.0496   -0.1864   -8.2675 C.2       1 <0>         0.1252
     25 N2         -9.3114   -0.2595   -8.4666 N.2       1 <0>        -0.2636
     26 O3         -9.8325   -0.0991   -9.7734 O.3       1 <0>        -0.2734
     27 C22       -11.2556   -0.2048   -9.8487 C.3       1 <0>         0.1151
     28 C23       -11.7049   -0.0162  -11.2991 C.3       1 <0>        -0.1493
     29 C24       -12.5854    1.1947  -11.6141 C.3       1 <0>        -0.1796
     30 C25       -13.1905   -0.2105  -11.6093 C.3       1 <0>        -0.1727
     31 C26        -7.1180    0.0704   -9.4239 C.3       1 <0>        -0.1451
     32 C27        -8.6112   -0.7217   -5.9321 C.2       1 <0>         0.4997
     33 O4         -9.5737   -1.3496   -6.3393 O.co2     1 <0>        -0.6657
     34 O5         -8.5517   -0.3889   -4.7607 O.co2     1 <0>        -0.6828
     35 H1          1.0042    1.8801    0.0026 H         1 <0>         0.0794
     36 H2         -0.5455    1.8639   -0.8728 H         1 <0>         0.0926
     37 H3         -0.5286    1.8543    0.9071 H         1 <0>         0.0928
     38 H4         -0.0670   -4.6619   -0.0326 H         1 <0>         0.1397
     39 H5          1.4008   -6.6354   -0.0508 H         1 <0>         0.1327
     40 H6          3.8450   -6.3565   -0.0513 H         1 <0>         0.1280
     41 H7          4.8357   -4.1050   -0.0321 H         1 <0>         0.1300
     42 H8          3.3858   -2.1181   -0.0249 H         1 <0>         0.1297
     43 H9         -3.1156   -1.1316    0.5243 H         1 <0>         0.0942
     44 H10        -2.6018    0.5726    0.5316 H         1 <0>         0.0918
     45 H11        -2.4061    0.5242   -1.9398 H         1 <0>         0.0571
     46 H12        -2.9200   -1.1800   -1.9471 H         1 <0>         0.0623
     47 H13        -3.2262   -0.1604   -3.7462 H         1 <0>         0.1123
     48 H14        -4.3105    0.1747   -5.9304 H         1 <0>         0.1119
     49 H15        -7.9335    1.2810   -3.9704 H         1 <0>         0.1460
     50 H16        -6.8598    0.9373   -1.7823 H         1 <0>         0.1197
     51 H17        -7.6139    1.7243   -6.3338 H         1 <0>         0.0651
     52 H18        -6.1019    1.2629   -7.1517 H         1 <0>         0.0556
     53 H19        -6.7470   -1.1498   -6.8785 H         1 <0>         0.0840
     54 H20       -11.5660   -1.1887   -9.4972 H         1 <0>         0.0589
     55 H21       -11.7106    0.5643   -9.2245 H         1 <0>         0.0518
     56 H22       -10.9873   -0.3281  -12.0579 H         1 <0>         0.1093
     57 H23       -12.8446    1.8571  -10.7881 H         1 <0>         0.0955
     58 H24       -12.4471    1.6799  -12.5803 H         1 <0>         0.0927
     59 H25       -13.4502   -0.6499  -12.5724 H         1 <0>         0.0956
     60 H26       -13.8477   -0.4727  -10.7802 H         1 <0>         0.0967
     61 H27        -6.8099   -0.8798   -9.8601 H         1 <0>         0.0703
     62 H28        -7.6309    0.6671  -10.1781 H         1 <0>         0.0685
     63 H29        -6.2393    0.6095   -9.0698 H         1 <0>         0.0702
@<TRIPOS>BOND
     1    1    2 1
     2    1   35 1
     3    1   36 1
     4    1   37 1
     5    2    6 1
     6    2    3 2
     7    3    4 1
     8    3   13 1
     9    4    5 2
    10    5    6 1
    11    5    7 1
    12    7   12 ar
    13    7    8 ar
    14    8    9 ar
    15    8   38 1
    16    9   10 ar
    17    9   39 1
    18   10   11 ar
    19   10   40 1
    20   11   12 ar
    21   11   41 1
    22   12   42 1
    23   13   14 1
    24   13   43 1
    25   13   44 1
    26   14   15 1
    27   14   45 1
    28   14   46 1
    29   15   16 1
    30   16   21 ar
    31   16   17 ar
    32   17   18 ar
    33   17   47 1
    34   18   19 ar
    35   18   48 1
    36   19   20 ar
    37   19   22 1
    38   20   21 ar
    39   20   49 1
    40   21   50 1
    41   22   23 1
    42   22   51 1
    43   22   52 1
    44   23   24 1
    45   23   32 1
    46   23   53 1
    47   24   25 2
    48   24   31 1
    49   25   26 1
    50   26   27 1
    51   27   28 1
    52   27   54 1
    53   27   55 1
    54   28   30 1
    55   28   29 1
    56   28   56 1
    57   29   30 1
    58   29   57 1
    59   29   58 1
    60   30   59 1
    61   30   60 1
    62   31   61 1
    63   31   62 1
    64   31   63 1
    65   32   33 2
    66   32   34 1
@<TRIPOS>MOLECULE
CHEMBL230706__1
   63    66     0     0     0
SMALL
USER_CHARGES

@<TRIPOS>ATOM
      1 C1         -0.0184    1.5028    0.0103 C.3       1 <0>        -0.0706
      2 C2          0.0021   -0.0041    0.0020 C.2       1 <0>        -0.0346
      3 C3         -1.0705   -0.8164    0.0025 C.2       1 <0>        -0.0048
      4 N1         -0.6270   -2.0826   -0.0064 N.2       1 <0>        -0.4573
      5 C4          0.6851   -2.0676   -0.0123 C.2       1 <0>         0.2288
      6 O1          1.0981   -0.7883   -0.0131 O.3       1 <0>        -0.1938
      7 C5          1.5619   -3.2577   -0.0227 C.ar      1 <0>        -0.0165
      8 C6          1.0059   -4.5378   -0.0330 C.ar      1 <0>        -0.0698
      9 C7          1.8298   -5.6443   -0.0432 C.ar      1 <0>        -0.1201
     10 C8          3.2044   -5.4871   -0.0433 C.ar      1 <0>        -0.1017
     11 C9          3.7620   -4.2209   -0.0327 C.ar      1 <0>        -0.1220
     12 C10         2.9493   -3.1060   -0.0282 C.ar      1 <0>        -0.0910
     13 C11        -2.5133   -0.3814    0.0119 C.3       1 <0>        -0.0333
     14 C12        -3.0085   -0.2260   -1.4274 C.3       1 <0>         0.0671
     15 O2         -4.3766    0.1865   -1.4185 O.3       1 <0>        -0.3179
     16 C13        -4.9731    0.3716   -2.6255 C.ar      1 <0>         0.1160
     17 C14        -4.2580    0.1549   -3.7944 C.ar      1 <0>        -0.2029
     18 C15        -4.8667    0.3432   -5.0201 C.ar      1 <0>        -0.0513
     19 C16        -6.1874    0.7477   -5.0825 C.ar      1 <0>        -0.0984
     20 C17        -6.9021    0.9648   -3.9190 C.ar      1 <0>        -0.0806
     21 C18        -6.2998    0.7719   -2.6908 C.ar      1 <0>        -0.1548
     22 C19        -6.8489    0.9529   -6.4210 C.3       1 <0>        -0.0490
     23 C20        -7.4951   -0.3570   -6.8767 C.3       1 <0>        -0.1057
     24 C21        -8.2600   -0.1222   -8.1537 C.2       1 <0>         0.1400
     25 N2         -7.8882   -0.6937   -9.2364 N.2       1 <0>        -0.2926
     26 O3         -8.6070   -0.4731  -10.4363 O.3       1 <0>        -0.2649
     27 C22        -8.0815   -1.1733  -11.5658 C.3       1 <0>         0.1119
     28 C23        -8.9316   -0.8625  -12.7993 C.3       1 <0>        -0.1494
     29 C24        -9.6870   -2.0243  -13.4477 C.3       1 <0>        -0.1793
     30 C25        -8.4615   -1.4264  -14.1416 C.3       1 <0>        -0.1721
     31 C26        -9.4627    0.7858   -8.1555 C.3       1 <0>        -0.1451
     32 C27        -6.4234   -1.3893   -7.1156 C.2       1 <0>         0.5140
     33 O4         -6.4254   -2.4287   -6.4784 O.co2     1 <0>        -0.6985
     34 O5         -5.5545   -1.1850   -7.9461 O.co2     1 <0>        -0.6787
     35 H1          1.0042    1.8801    0.0026 H         1 <0>         0.0797
     36 H2         -0.5455    1.8639   -0.8728 H         1 <0>         0.0923
     37 H3         -0.5286    1.8543    0.9071 H         1 <0>         0.0922
     38 H4         -0.0670   -4.6619   -0.0326 H         1 <0>         0.1399
     39 H5          1.4008   -6.6354   -0.0508 H         1 <0>         0.1330
     40 H6          3.8450   -6.3565   -0.0513 H         1 <0>         0.1280
     41 H7          4.8357   -4.1050   -0.0321 H         1 <0>         0.1300
     42 H8          3.3858   -2.1181   -0.0249 H         1 <0>         0.1296
     43 H9         -3.1156   -1.1316    0.5243 H         1 <0>         0.0943
     44 H10        -2.6018    0.5726    0.5316 H         1 <0>         0.0914
     45 H11        -2.4061    0.5242   -1.9398 H         1 <0>         0.0597
     46 H12        -2.9200   -1.1800   -1.9471 H         1 <0>         0.0669
     47 H13        -3.2262   -0.1604   -3.7462 H         1 <0>         0.1204
     48 H14        -4.3105    0.1747   -5.9304 H         1 <0>         0.1304
     49 H15        -7.9335    1.2810   -3.9704 H         1 <0>         0.1252
     50 H16        -6.8598    0.9373   -1.7823 H         1 <0>         0.1246
     51 H17        -7.6139    1.7243   -6.3338 H         1 <0>         0.0615
     52 H18        -6.1019    1.2629   -7.1517 H         1 <0>         0.0764
     53 H19        -8.1772   -0.7134   -6.1048 H         1 <0>         0.0847
     54 H20        -7.0538   -0.8567  -11.7436 H         1 <0>         0.0588
     55 H21        -8.1028   -2.2455  -11.3706 H         1 <0>         0.0533
     56 H22        -9.4117    0.1161  -12.8049 H         1 <0>         0.1100
     57 H23        -9.5784   -3.0101  -12.9955 H         1 <0>         0.0959
     58 H24       -10.6645   -1.8102  -13.8799 H         1 <0>         0.0934
     59 H25        -8.6327   -0.8191  -15.0304 H         1 <0>         0.0961
     60 H26        -7.5466   -2.0189  -14.1459 H         1 <0>         0.0967
     61 H27        -9.1471    1.8066   -8.3712 H         1 <0>         0.0739
     62 H28       -10.1671    0.4544   -8.9185 H         1 <0>         0.0694
     63 H29        -9.9440    0.7533   -7.1780 H         1 <0>         0.0710
@<TRIPOS>BOND
     1    1    2 1
     2    1   35 1
     3    1   36 1
     4    1   37 1
     5    2    6 1
     6    2    3 2
     7    3    4 1
     8    3   13 1
     9    4    5 2
    10    5    6 1
    11    5    7 1
    12    7   12 ar
    13    7    8 ar
    14    8    9 ar
    15    8   38 1
    16    9   10 ar
    17    9   39 1
    18   10   11 ar
    19   10   40 1
    20   11   12 ar
    21   11   41 1
    22   12   42 1
    23   13   14 1
    24   13   43 1
    25   13   44 1
    26   14   15 1
    27   14   45 1
    28   14   46 1
    29   15   16 1
    30   16   21 ar
    31   16   17 ar
    32   17   18 ar
    33   17   47 1
    34   18   19 ar
    35   18   48 1
    36   19   20 ar
    37   19   22 1
    38   20   21 ar
    39   20   49 1
    40   21   50 1
    41   22   23 1
    42   22   51 1
    43   22   52 1
    44   23   24 1
    45   23   32 1
    46   23   53 1
    47   24   25 2
    48   24   31 1
    49   25   26 1
    50   26   27 1
    51   27   28 1
    52   27   54 1
    53   27   55 1
    54   28   30 1
    55   28   29 1
    56   28   56 1
    57   29   30 1
    58   29   57 1
    59   29   58 1
    60   30   59 1
    61   30   60 1
    62   31   61 1
    63   31   62 1
    64   31   63 1
    65   32   33 2
    66   32   34 1
@<TRIPOS>MOLECULE
CHEMBL206134
   65    67     0     0     0
SMALL
USER_CHARGES

@<TRIPOS>ATOM
      1 C1         -0.0187    1.5258    0.0104 C.3       1 <0>        -0.1592
      2 C2          0.0021   -0.0041    0.0020 C.3       1 <0>        -0.0843
      3 C3          0.7182   -0.4975   -1.2568 C.3       1 <0>        -0.1318
      4 C4          2.1536    0.0321   -1.2676 C.3       1 <0>        -0.1212
      5 C5          0.7390   -2.0273   -1.2652 C.3       1 <0>        -0.0520
      6 C6          1.4443   -2.5133   -2.5051 C.ar      1 <0>        -0.0843
      7 C7          0.7251   -2.7414   -3.6637 C.ar      1 <0>        -0.0007
      8 C8          1.3693   -3.1874   -4.8015 C.ar      1 <0>        -0.1541
      9 C9          2.7391   -3.4059   -4.7810 C.ar      1 <0>         0.1124
     10 C10         3.4586   -3.1759   -3.6174 C.ar      1 <0>        -0.2230
     11 C11         2.8105   -2.7250   -2.4837 C.ar      1 <0>        -0.0834
     12 O1          3.3751   -3.8450   -5.8989 O.3       1 <0>        -0.3174
     13 C12         4.7864   -4.0484   -5.8048 C.3       1 <0>         0.0677
     14 C13         5.3218   -4.5395   -7.1513 C.3       1 <0>        -0.1191
     15 C14         6.8329   -4.7571   -7.0506 C.3       1 <0>         0.0590
     16 O2          7.3329   -5.2158   -8.3082 O.3       1 <0>        -0.2894
     17 C15         8.6673   -5.4592   -8.3898 C.ar      1 <0>         0.1919
     18 C16         9.4736   -5.2641   -7.2764 C.ar      1 <0>        -0.2230
     19 C17        10.8296   -5.5118   -7.3593 C.ar      1 <0>         0.1905
     20 C18        11.3842   -5.9590   -8.5680 C.ar      1 <0>        -0.1530
     21 C19        10.5720   -6.1523   -9.6802 C.ar      1 <0>        -0.0237
     22 C20         9.2157   -5.9073   -9.5858 C.ar      1 <0>        -0.0937
     23 Cl1         8.1940   -6.1530  -10.9676 Cl        1 <0>        -0.0436
     24 C21        12.8395   -6.2146   -8.6218 C.2       1 <0>        -0.1446
     25 C22        13.4976   -6.3341   -7.4704 C.2       1 <0>        -0.1081
     26 C23        12.7572   -6.2225   -6.1639 C.3       1 <0>         0.1480
     27 O3         11.6474   -5.3322   -6.2904 O.3       1 <0>        -0.2949
     28 C24        12.2503   -7.6060   -5.7515 C.3       1 <0>        -0.1760
     29 C25        13.7083   -5.6934   -5.0885 C.3       1 <0>        -0.1399
     30 C26        13.5571   -6.3367   -9.9414 C.3       1 <0>         0.5115
     31 F1         14.9163   -6.5762   -9.7126 F         1 <0>        -0.1747
     32 F2         13.0129   -7.3987  -10.6716 F         1 <0>        -0.1714
     33 F3         13.4082   -5.1486  -10.6649 F         1 <0>        -0.1694
     34 C27        -0.0107    0.0017   -2.4777 C.2       1 <0>         0.5023
     35 O4         -1.0102    0.6885   -2.3526 O.co2     1 <0>        -0.6941
     36 O5          0.3993   -0.2812   -3.5905 O.co2     1 <0>        -0.6797
     37 H1          1.0039    1.9031    0.0027 H         1 <0>         0.0360
     38 H2         -0.5459    1.8868   -0.8726 H         1 <0>         0.0954
     39 H3         -0.5289    1.8773    0.9072 H         1 <0>         0.0294
     40 H4          0.5293   -0.3651    0.8851 H         1 <0>         0.0329
     41 H5         -1.0205   -0.3814    0.0098 H         1 <0>         0.0535
     42 H6          2.6808   -0.3290   -0.3846 H         1 <0>         0.0329
     43 H7          2.6638   -0.3194   -2.1644 H         1 <0>         0.0588
     44 H8          2.1388    1.1220   -1.2617 H         1 <0>         0.0451
     45 H9          1.2661   -2.3884   -0.3821 H         1 <0>         0.0542
     46 H10        -0.2836   -2.4046   -1.2575 H         1 <0>         0.0595
     47 H11        -0.3413   -2.5711   -3.6791 H         1 <0>         0.1214
     48 H12         0.8069   -3.3660   -5.7060 H         1 <0>         0.1194
     49 H13         4.5251   -3.3453   -3.5989 H         1 <0>         0.1138
     50 H14         3.3708   -2.5416   -1.5789 H         1 <0>         0.1125
     51 H15         5.2721   -3.1087   -5.5415 H         1 <0>         0.0625
     52 H16         4.9958   -4.7932   -5.0370 H         1 <0>         0.0610
     53 H17         4.8361   -5.4791   -7.4146 H         1 <0>         0.0872
     54 H18         5.1124   -3.7946   -7.9191 H         1 <0>         0.0885
     55 H19         7.3186   -3.8175   -6.7873 H         1 <0>         0.0735
     56 H20         7.0423   -5.5020   -6.2828 H         1 <0>         0.0724
     57 H21         9.0417   -4.9193   -6.3486 H         1 <0>         0.1543
     58 H22        10.9984   -6.4962  -10.6110 H         1 <0>         0.1476
     59 H23        14.5629   -6.5114   -7.4736 H         1 <0>         0.1522
     60 H24        13.0965   -8.2832   -5.6352 H         1 <0>         0.0807
     61 H25        11.7136   -7.5293   -4.8059 H         1 <0>         0.0796
     62 H26        11.5797   -7.9910   -6.5197 H         1 <0>         0.0654
     63 H27        14.0796   -4.7118   -5.3829 H         1 <0>         0.0723
     64 H28        13.1758   -5.6113   -4.1410 H         1 <0>         0.0788
     65 H29        14.5471   -6.3803   -4.9756 H         1 <0>         0.0859
@<TRIPOS>BOND
     1    1    2 1
     2    1   37 1
     3    1   38 1
     4    1   39 1
     5    2    3 1
     6    2   40 1
     7    2   41 1
     8    3    4 1
     9    3    5 1
    10    3   34 1
    11    4   42 1
    12    4   43 1
    13    4   44 1
    14    5    6 1
    15    5   45 1
    16    5   46 1
    17    6   11 ar
    18    6    7 ar
    19    7    8 ar
    20    7   47 1
    21    8    9 ar
    22    8   48 1
    23    9   10 ar
    24    9   12 1
    25   10   11 ar
    26   10   49 1
    27   11   50 1
    28   12   13 1
    29   13   14 1
    30   13   51 1
    31   13   52 1
    32   14   15 1
    33   14   53 1
    34   14   54 1
    35   15   16 1
    36   15   55 1
    37   15   56 1
    38   16   17 1
    39   17   22 ar
    40   17   18 ar
    41   18   19 ar
    42   18   57 1
    43   19   27 1
    44   19   20 ar
    45   20   21 ar
    46   20   24 1
    47   21   22 ar
    48   21   58 1
    49   22   23 1
    50   24   25 2
    51   24   30 1
    52   25   26 1
    53   25   59 1
    54   26   27 1
    55   26   28 1
    56   26   29 1
    57   28   60 1
    58   28   61 1
    59   28   62 1
    60   29   63 1
    61   29   64 1
    62   29   65 1
    63   30   31 1
    64   30   32 1
    65   30   33 1
    66   34   35 2
    67   34   36 1
@<TRIPOS>MOLECULE
CHEMBL199509
   70    74     0     0     0
SMALL
USER_CHARGES

@<TRIPOS>ATOM
      1 C1         -0.0187    1.5258    0.0104 C.3       1 <0>        -0.1438
      2 C2          0.0021   -0.0041    0.0020 C.3       1 <0>        -0.1048
      3 C3          0.7182   -0.4975   -1.2568 C.3       1 <0>        -0.1390
      4 C4          0.6303   -2.0233   -1.3286 C.3       1 <0>        -0.0266
      5 C5          1.2540   -2.5342   -2.6445 C.3       1 <0>        -0.1155
      6 C6          0.0340   -2.5967   -3.5876 C.3       1 <0>        -0.0809
      7 C7         -1.1605   -2.7944   -2.6782 C.ar      1 <0>        -0.0525
      8 C8         -0.8173   -2.4643   -1.3784 C.ar      1 <0>        -0.1011
      9 C9         -1.7547   -2.5672   -0.3670 C.ar      1 <0>        -0.0561
     10 C10        -3.0458   -3.0026   -0.6509 C.ar      1 <0>        -0.0815
     11 C11        -3.3895   -3.3354   -1.9645 C.ar      1 <0>         0.1325
     12 C12        -2.4429   -3.2289   -2.9689 C.ar      1 <0>        -0.1961
     13 O1         -4.6466   -3.7618   -2.2538 O.3       1 <0>        -0.3065
     14 C13        -4.9245   -4.0837   -3.6181 C.3       1 <0>         0.0666
     15 C14        -6.3788   -4.5411   -3.7481 C.3       1 <0>        -0.0328
     16 C15        -6.6719   -4.8806   -5.1868 C.2       1 <0>        -0.0064
     17 C16        -7.1280   -4.0304   -6.1245 C.2       1 <0>        -0.0318
     18 O2         -7.2555   -4.7289   -7.2700 O.3       1 <0>        -0.1933
     19 C17        -6.8771   -5.9946   -7.0210 C.2       1 <0>         0.2292
     20 N1         -6.5189   -6.0831   -5.7617 N.2       1 <0>        -0.4585
     21 C18        -6.8617   -7.0999   -8.0025 C.ar      1 <0>        -0.0171
     22 C19        -6.4510   -8.3761   -7.6146 C.ar      1 <0>        -0.0707
     23 C20        -6.4394   -9.4033   -8.5354 C.ar      1 <0>        -0.1206
     24 C21        -6.8338   -9.1706   -9.8410 C.ar      1 <0>        -0.1011
     25 C22        -7.2421   -7.9078  -10.2321 C.ar      1 <0>        -0.1211
     26 C23        -7.2634   -6.8731   -9.3198 C.ar      1 <0>        -0.0906
     27 C24        -7.4390   -2.5687   -5.9299 C.3       1 <0>        -0.0726
     28 C25        -4.0510   -3.1135    0.4340 C.ar      1 <0>        -0.0584
     29 C26        -3.7350   -3.7870    1.6128 C.ar      1 <0>        -0.0688
     30 C27        -4.6718   -3.8884    2.6198 C.ar      1 <0>        -0.1509
     31 C28        -5.9285   -3.3205    2.4604 C.ar      1 <0>         0.1198
     32 C29        -6.2464   -2.6494    1.2874 C.ar      1 <0>        -0.2082
     33 C30        -5.3117   -2.5393    0.2793 C.ar      1 <0>        -0.0526
     34 O3         -6.8495   -3.4221    3.4544 O.3       1 <0>        -0.3202
     35 C31        -8.1223   -2.8147    3.2240 C.3       1 <0>         0.0283
     36 C32         2.1652   -0.0794   -1.2080 C.2       1 <0>         0.5044
     37 O4          2.8790   -0.4588   -0.2952 O.co2     1 <0>        -0.6979
     38 O5          2.6222    0.6383   -2.0813 O.co2     1 <0>        -0.7033
     39 H1          1.0039    1.9031    0.0027 H         1 <0>         0.0576
     40 H2         -0.5459    1.8868   -0.8726 H         1 <0>         0.0445
     41 H3         -0.5289    1.8773    0.9072 H         1 <0>         0.0411
     42 H4          0.5293   -0.3651    0.8851 H         1 <0>         0.0616
     43 H5         -1.0205   -0.3814    0.0098 H         1 <0>         0.0502
     44 H6          0.2444   -0.0644   -2.1377 H         1 <0>         0.0573
     45 H7          1.1328   -2.4712   -0.4713 H         1 <0>         0.0817
     46 H8          1.9977   -1.8310   -3.0194 H         1 <0>         0.0869
     47 H9          1.6893   -3.5241   -2.5082 H         1 <0>         0.0650
     48 H10        -0.0634   -1.6635   -4.1424 H         1 <0>         0.0817
     49 H11         0.1296   -3.4377   -4.2744 H         1 <0>         0.0693
     50 H12        -1.4841   -2.3093    0.6462 H         1 <0>         0.1293
     51 H13        -2.7061   -3.4850   -3.9846 H         1 <0>         0.1212
     52 H14        -4.7638   -3.2026   -4.2393 H         1 <0>         0.0610
     53 H15        -4.2612   -4.8845   -3.9448 H         1 <0>         0.0646
     54 H16        -6.5394   -5.4222   -3.1268 H         1 <0>         0.0939
     55 H17        -7.0421   -3.7403   -3.4213 H         1 <0>         0.0915
     56 H18        -6.1425   -8.5590   -6.5958 H         1 <0>         0.1389
     57 H19        -6.1214  -10.3912   -8.2366 H         1 <0>         0.1327
     58 H20        -6.8226   -9.9781  -10.5580 H         1 <0>         0.1284
     59 H21        -7.5484   -7.7326  -11.2528 H         1 <0>         0.1307
     60 H22        -7.5865   -5.8888   -9.6253 H         1 <0>         0.1301
     61 H23        -6.5473   -1.9769   -6.1361 H         1 <0>         0.0891
     62 H24        -8.2369   -2.2732   -6.6113 H         1 <0>         0.0810
     63 H25        -7.7580   -2.3989   -4.9015 H         1 <0>         0.0960
     64 H26        -2.7576   -4.2294    1.7372 H         1 <0>         0.1309
     65 H27        -4.4277   -4.4105    3.5331 H         1 <0>         0.1294
     66 H28        -7.2251   -2.2093    1.1661 H         1 <0>         0.1251
     67 H29        -5.5579   -2.0127   -0.6309 H         1 <0>         0.1245
     68 H30        -7.9898   -1.7460    3.0556 H         1 <0>         0.0545
     69 H31        -8.5868   -3.2659    2.3471 H         1 <0>         0.0538
     70 H32        -8.7613   -2.9691    4.0935 H         1 <0>         0.0970
@<TRIPOS>BOND
     1    1    2 1
     2    1   39 1
     3    1   40 1
     4    1   41 1
     5    2    3 1
     6    2   42 1
     7    2   43 1
     8    3    4 1
     9    3   36 1
    10    3   44 1
    11    4    8 1
    12    4    5 1
    13    4   45 1
    14    5    6 1
    15    5   46 1
    16    5   47 1
    17    6    7 1
    18    6   48 1
    19    6   49 1
    20    7   12 ar
    21    7    8 ar
    22    8    9 ar
    23    9   10 ar
    24    9   50 1
    25   10   11 ar
    26   10   28 1
    27   11   12 ar
    28   11   13 1
    29   12   51 1
    30   13   14 1
    31   14   15 1
    32   14   52 1
    33   14   53 1
    34   15   16 1
    35   15   54 1
    36   15   55 1
    37   16   20 1
    38   16   17 2
    39   17   18 1
    40   17   27 1
    41   18   19 1
    42   19   20 2
    43   19   21 1
    44   21   26 ar
    45   21   22 ar
    46   22   23 ar
    47   22   56 1
    48   23   24 ar
    49   23   57 1
    50   24   25 ar
    51   24   58 1
    52   25   26 ar
    53   25   59 1
    54   26   60 1
    55   27   61 1
    56   27   62 1
    57   27   63 1
    58   28   33 ar
    59   28   29 ar
    60   29   30 ar
    61   29   64 1
    62   30   31 ar
    63   30   65 1
    64   31   32 ar
    65   31   34 1
    66   32   33 ar
    67   32   66 1
    68   33   67 1
    69   34   35 1
    70   35   68 1
    71   35   69 1
    72   35   70 1
    73   36   37 2
    74   36   38 1
@<TRIPOS>MOLECULE
CHEMBL199509__1
   70    74     0     0     0
SMALL
USER_CHARGES

@<TRIPOS>ATOM
      1 C1         -0.0187    1.5258    0.0104 C.3       1 <0>        -0.1448
      2 C2          0.0021   -0.0041    0.0020 C.3       1 <0>        -0.1003
      3 C3          0.7182   -0.4975   -1.2568 C.3       1 <0>        -0.1501
      4 C4          0.6303   -2.0233   -1.3286 C.3       1 <0>        -0.0270
      5 C5         -0.8390   -2.4682   -1.4863 C.3       1 <0>        -0.1156
      6 C6         -0.7134   -3.7146   -2.3877 C.3       1 <0>        -0.0779
      7 C7          0.5609   -3.5053   -3.1784 C.ar      1 <0>        -0.0680
      8 C8          1.3340   -2.5322   -2.5689 C.ar      1 <0>        -0.1036
      9 C9          2.5514   -2.1710   -3.1165 C.ar      1 <0>        -0.0384
     10 C10         3.0041   -2.7833   -4.2814 C.ar      1 <0>        -0.0802
     11 C11         2.2212   -3.7657   -4.8948 C.ar      1 <0>         0.1310
     12 C12         1.0041   -4.1191   -4.3380 C.ar      1 <0>        -0.2043
     13 O1          2.6526   -4.3704   -6.0324 O.3       1 <0>        -0.3056
     14 C13         1.7990   -5.3647   -6.6024 C.3       1 <0>         0.0676
     15 C14         2.4474   -5.9287   -7.8682 C.3       1 <0>        -0.0343
     16 C15         1.5472   -6.9772   -8.4693 C.2       1 <0>        -0.0037
     17 C16         1.5647   -8.2927   -8.1873 C.2       1 <0>        -0.0336
     18 O2          0.6065   -8.8750   -8.9351 O.3       1 <0>        -0.1940
     19 C17         0.0156   -7.9123   -9.6639 C.2       1 <0>         0.2273
     20 N1          0.5821   -6.7641   -9.3764 N.2       1 <0>        -0.4575
     21 C18        -1.0906   -8.1127  -10.6238 C.ar      1 <0>        -0.0160
     22 C19        -1.6148   -7.0263  -11.3258 C.ar      1 <0>        -0.0707
     23 C20        -2.6469   -7.2202  -12.2206 C.ar      1 <0>        -0.1204
     24 C21        -3.1622   -8.4882  -12.4227 C.ar      1 <0>        -0.1018
     25 C22        -2.6471   -9.5694  -11.7299 C.ar      1 <0>        -0.1215
     26 C23        -1.6115   -9.3900  -10.8363 C.ar      1 <0>        -0.0911
     27 C24         2.4850   -8.9862   -7.2161 C.3       1 <0>        -0.0718
     28 C25         4.3096   -2.3955   -4.8690 C.ar      1 <0>        -0.0593
     29 C26         4.6115   -1.0501   -5.0731 C.ar      1 <0>        -0.0550
     30 C27         5.8262   -0.6926   -5.6197 C.ar      1 <0>        -0.1493
     31 C28         6.7479   -1.6712   -5.9664 C.ar      1 <0>         0.1173
     32 C29         6.4500   -3.0120   -5.7648 C.ar      1 <0>        -0.2135
     33 C30         5.2394   -3.3754   -5.2129 C.ar      1 <0>        -0.0559
     34 O3          7.9439   -1.3158   -6.5047 O.3       1 <0>        -0.3206
     35 C31         8.8451   -2.3735   -6.8383 C.3       1 <0>         0.0295
     36 C32         2.1652   -0.0794   -1.2080 C.2       1 <0>         0.5061
     37 O4          2.8790   -0.4588   -0.2952 O.co2     1 <0>        -0.6985
     38 O5          2.6222    0.6383   -2.0813 O.co2     1 <0>        -0.6983
     39 H1          1.0039    1.9031    0.0027 H         1 <0>         0.0585
     40 H2         -0.5459    1.8868   -0.8726 H         1 <0>         0.0456
     41 H3         -0.5289    1.8773    0.9072 H         1 <0>         0.0410
     42 H4          0.5293   -0.3651    0.8851 H         1 <0>         0.0621
     43 H5         -1.0205   -0.3814    0.0098 H         1 <0>         0.0451
     44 H6          0.2444   -0.0644   -2.1377 H         1 <0>         0.0588
     45 H7          1.0682   -2.4691   -0.4355 H         1 <0>         0.0848
     46 H8         -1.2701   -2.7306   -0.5202 H         1 <0>         0.0711
     47 H9         -1.4279   -1.6931   -1.9769 H         1 <0>         0.0702
     48 H10        -0.6370   -4.6154   -1.7788 H         1 <0>         0.0757
     49 H11        -1.5687   -3.7829   -3.0599 H         1 <0>         0.0681
     50 H12         3.1524   -1.4113   -2.6390 H         1 <0>         0.1582
     51 H13         0.3975   -4.8780   -4.8098 H         1 <0>         0.1180
     52 H14         1.6470   -6.1690   -5.8826 H         1 <0>         0.0588
     53 H15         0.8379   -4.9169   -6.8551 H         1 <0>         0.0630
     54 H16         2.5993   -5.1243   -8.5879 H         1 <0>         0.0944
     55 H17         3.4085   -6.3765   -7.6155 H         1 <0>         0.0918
     56 H18        -1.2137   -6.0359  -11.1687 H         1 <0>         0.1393
     57 H19        -3.0537   -6.3804  -12.7642 H         1 <0>         0.1327
     58 H20        -3.9704   -8.6346  -13.1240 H         1 <0>         0.1282
     59 H21        -3.0541  -10.5566  -11.8920 H         1 <0>         0.1303
     60 H22        -1.2073  -10.2355  -10.2994 H         1 <0>         0.1298
     61 H23         2.0258   -9.0007   -6.2276 H         1 <0>         0.0883
     62 H24         2.6615  -10.0087   -7.5498 H         1 <0>         0.0804
     63 H25         3.4332   -8.4507   -7.1684 H         1 <0>         0.0965
     64 H26         3.8948   -0.2884   -4.8039 H         1 <0>         0.1396
     65 H27         6.0606    0.3496   -5.7784 H         1 <0>         0.1294
     66 H28         7.1687   -3.7710   -6.0362 H         1 <0>         0.1226
     67 H29         5.0103   -4.4184   -5.0514 H         1 <0>         0.1217
     68 H30         9.0856   -2.9427   -5.9404 H         1 <0>         0.0530
     69 H31         8.3779   -3.0313   -7.5712 H         1 <0>         0.0520
     70 H32         9.7591   -1.9533   -7.2578 H         1 <0>         0.0947
@<TRIPOS>BOND
     1    1    2 1
     2    1   39 1
     3    1   40 1
     4    1   41 1
     5    2    3 1
     6    2   42 1
     7    2   43 1
     8    3    4 1
     9    3   36 1
    10    3   44 1
    11    4    8 1
    12    4    5 1
    13    4   45 1
    14    5    6 1
    15    5   46 1
    16    5   47 1
    17    6    7 1
    18    6   48 1
    19    6   49 1
    20    7   12 ar
    21    7    8 ar
    22    8    9 ar
    23    9   10 ar
    24    9   50 1
    25   10   11 ar
    26   10   28 1
    27   11   12 ar
    28   11   13 1
    29   12   51 1
    30   13   14 1
    31   14   15 1
    32   14   52 1
    33   14   53 1
    34   15   16 1
    35   15   54 1
    36   15   55 1
    37   16   20 1
    38   16   17 2
    39   17   18 1
    40   17   27 1
    41   18   19 1
    42   19   20 2
    43   19   21 1
    44   21   26 ar
    45   21   22 ar
    46   22   23 ar
    47   22   56 1
    48   23   24 ar
    49   23   57 1
    50   24   25 ar
    51   24   58 1
    52   25   26 ar
    53   25   59 1
    54   26   60 1
    55   27   61 1
    56   27   62 1
    57   27   63 1
    58   28   33 ar
    59   28   29 ar
    60   29   30 ar
    61   29   64 1
    62   30   31 ar
    63   30   65 1
    64   31   32 ar
    65   31   34 1
    66   32   33 ar
    67   32   66 1
    68   33   67 1
    69   34   35 1
    70   35   68 1
    71   35   69 1
    72   35   70 1
    73   36   37 2
    74   36   38 1
@<TRIPOS>MOLECULE
CHEMBL199509__2
   70    74     0     0     0
SMALL
USER_CHARGES

@<TRIPOS>ATOM
      1 C1         -0.0187    1.5258    0.0104 C.3       1 <0>        -0.1506
      2 C2          0.0021   -0.0041    0.0020 C.3       1 <0>        -0.0923
      3 C3          0.7182   -0.4975   -1.2568 C.3       1 <0>        -0.1452
      4 C4          0.8493   -2.0210   -1.2049 C.3       1 <0>        -0.0253
      5 C5          1.7498   -2.4411   -0.0242 C.3       1 <0>        -0.1202
      6 C6          3.1436   -2.5210   -0.6819 C.3       1 <0>        -0.0760
      7 C7          2.8764   -2.8177   -2.1425 C.ar      1 <0>        -0.0654
      8 C8          1.5563   -2.5299   -2.4434 C.ar      1 <0>        -0.0966
      9 C9          1.0801   -2.7240   -3.7271 C.ar      1 <0>         0.0251
     10 C10         1.9249   -3.2091   -4.7211 C.ar      1 <0>        -0.0961
     11 C11         3.2577   -3.4990   -4.4143 C.ar      1 <0>         0.1340
     12 C12         3.7233   -3.3011   -3.1258 C.ar      1 <0>        -0.2131
     13 O1          4.0918   -3.9732   -5.3762 O.3       1 <0>        -0.3078
     14 C13         5.4397   -4.2468   -4.9887 C.3       1 <0>         0.0686
     15 C14         6.2215   -4.7687   -6.1959 C.3       1 <0>        -0.0341
     16 C15         7.6430   -5.0573   -5.7872 C.2       1 <0>        -0.0041
     17 C16         8.6703   -4.1892   -5.8256 C.2       1 <0>        -0.0320
     18 O2          9.7619   -4.8410   -5.3784 O.3       1 <0>        -0.1941
     19 C17         9.3914   -6.0965   -5.0725 C.2       1 <0>         0.2258
     20 N1          8.1081   -6.2238   -5.3150 N.2       1 <0>        -0.4575
     21 C18        10.2794   -7.1545   -4.5460 C.ar      1 <0>        -0.0151
     22 C19         9.7705   -8.4252   -4.2731 C.ar      1 <0>        -0.0711
     23 C20        10.6048   -9.4082   -3.7823 C.ar      1 <0>        -0.1206
     24 C21        11.9432   -9.1367   -3.5605 C.ar      1 <0>        -0.1023
     25 C22        12.4540   -7.8793   -3.8288 C.ar      1 <0>        -0.1213
     26 C23        11.6317   -6.8888   -4.3249 C.ar      1 <0>        -0.0912
     27 C24         8.6113   -2.7548   -6.2839 C.3       1 <0>        -0.0725
     28 C25         1.4140   -3.4177   -6.0978 C.ar      1 <0>        -0.0422
     29 C26         0.2320   -4.1272   -6.3041 C.ar      1 <0>        -0.0707
     30 C27        -0.2404   -4.3196   -7.5854 C.ar      1 <0>        -0.1507
     31 C28         0.4599   -3.8075   -8.6691 C.ar      1 <0>         0.1130
     32 C29         1.6376   -3.1008   -8.4670 C.ar      1 <0>        -0.2076
     33 C30         2.1119   -2.8998   -7.1877 C.ar      1 <0>        -0.0527
     34 O3         -0.0081   -3.9987   -9.9305 O.3       1 <0>        -0.3219
     35 C31         0.7621   -3.4448  -10.9992 C.3       1 <0>         0.0293
     36 C32        -0.0771   -0.1029   -2.4745 C.2       1 <0>         0.4952
     37 O4         -1.1200    0.5157   -2.3473 O.co2     1 <0>        -0.6945
     38 O5          0.3224   -0.4021   -3.5868 O.co2     1 <0>        -0.6836
     39 H1          1.0039    1.9031    0.0027 H         1 <0>         0.0327
     40 H2         -0.5459    1.8868   -0.8726 H         1 <0>         0.0845
     41 H3         -0.5289    1.8773    0.9072 H         1 <0>         0.0338
     42 H4          0.5293   -0.3651    0.8851 H         1 <0>         0.0377
     43 H5         -1.0205   -0.3814    0.0098 H         1 <0>         0.0576
     44 H6          1.7103   -0.0491   -1.3098 H         1 <0>         0.0582
     45 H7         -0.1345   -2.4817   -1.1148 H         1 <0>         0.0680
     46 H8          1.7352   -1.6861    0.7619 H         1 <0>         0.0770
     47 H9          1.4490   -3.4136    0.3656 H         1 <0>         0.0650
     48 H10         3.6657   -1.5698   -0.5786 H         1 <0>         0.0745
     49 H11         3.7278   -3.3246   -0.2335 H         1 <0>         0.0655
     50 H12         0.0496   -2.4988   -3.9589 H         1 <0>         0.1354
     51 H13         4.7526   -3.5240   -2.8864 H         1 <0>         0.1144
     52 H14         5.9053   -3.3319   -4.6223 H         1 <0>         0.0585
     53 H15         5.4454   -4.9986   -4.1995 H         1 <0>         0.0620
     54 H16         5.7559   -5.6837   -6.5623 H         1 <0>         0.0936
     55 H17         6.2158   -4.0169   -6.9851 H         1 <0>         0.0917
     56 H18         8.7259   -8.6382   -4.4455 H         1 <0>         0.1391
     57 H19        10.2122  -10.3918   -3.5704 H         1 <0>         0.1324
     58 H20        12.5920   -9.9097   -3.1758 H         1 <0>         0.1280
     59 H21        13.4996   -7.6737   -3.6532 H         1 <0>         0.1302
     60 H22        12.0326   -5.9089   -4.5382 H         1 <0>         0.1299
     61 H23         8.3814   -2.1113   -5.4348 H         1 <0>         0.0891
     62 H24         9.5744   -2.4685   -6.7065 H         1 <0>         0.0803
     63 H25         7.8355   -2.6472   -7.0420 H         1 <0>         0.0969
     64 H26        -0.3130   -4.5262   -5.4614 H         1 <0>         0.1281
     65 H27        -1.1560   -4.8695   -7.7459 H         1 <0>         0.1268
     66 H28         2.1806   -2.7042   -9.3122 H         1 <0>         0.1228
     67 H29         3.0255   -2.3455   -7.0307 H         1 <0>         0.1228
     68 H30         0.8332   -2.3644  -10.8738 H         1 <0>         0.0538
     69 H31         1.7621   -3.8784  -10.9890 H         1 <0>         0.0522
     70 H32         0.2784   -3.6692  -11.9499 H         1 <0>         0.0946
@<TRIPOS>BOND
     1    1    2 1
     2    1   39 1
     3    1   40 1
     4    1   41 1
     5    2    3 1
     6    2   42 1
     7    2   43 1
     8    3    4 1
     9    3   36 1
    10    3   44 1
    11    4    8 1
    12    4    5 1
    13    4   45 1
    14    5    6 1
    15    5   46 1
    16    5   47 1
    17    6    7 1
    18    6   48 1
    19    6   49 1
    20    7   12 ar
    21    7    8 ar
    22    8    9 ar
    23    9   10 ar
    24    9   50 1
    25   10   11 ar
    26   10   28 1
    27   11   12 ar
    28   11   13 1
    29   12   51 1
    30   13   14 1
    31   14   15 1
    32   14   52 1
    33   14   53 1
    34   15   16 1
    35   15   54 1
    36   15   55 1
    37   16   20 1
    38   16   17 2
    39   17   18 1
    40   17   27 1
    41   18   19 1
    42   19   20 2
    43   19   21 1
    44   21   26 ar
    45   21   22 ar
    46   22   23 ar
    47   22   56 1
    48   23   24 ar
    49   23   57 1
    50   24   25 ar
    51   24   58 1
    52   25   26 ar
    53   25   59 1
    54   26   60 1
    55   27   61 1
    56   27   62 1
    57   27   63 1
    58   28   33 ar
    59   28   29 ar
    60   29   30 ar
    61   29   64 1
    62   30   31 ar
    63   30   65 1
    64   31   32 ar
    65   31   34 1
    66   32   33 ar
    67   32   66 1
    68   33   67 1
    69   34   35 1
    70   35   68 1
    71   35   69 1
    72   35   70 1
    73   36   37 2
    74   36   38 1
@<TRIPOS>MOLECULE
CHEMBL199509__3
   70    74     0     0     0
SMALL
USER_CHARGES

@<TRIPOS>ATOM
      1 C1         -0.2605    1.4125   -2.5361 C.3       1 <0>        -0.1492
      2 C2         -0.0901   -0.1075   -2.4959 C.3       1 <0>        -0.0911
      3 C3          0.7182   -0.4975   -1.2568 C.3       1 <0>        -0.1539
      4 C4          0.7500   -2.0217   -1.1276 C.3       1 <0>        -0.0263
      5 C5          1.6041   -2.6370   -2.2561 C.3       1 <0>        -0.1149
      6 C6          2.2576   -3.8469   -1.5556 C.3       1 <0>        -0.0785
      7 C7          2.3085   -3.4758   -0.0884 C.ar      1 <0>        -0.0546
      8 C8          1.4409   -2.4257    0.1578 C.ar      1 <0>        -0.0693
      9 C9          1.3180   -1.9138    1.4365 C.ar      1 <0>        -0.0328
     10 C10         2.0651   -2.4515    2.4804 C.ar      1 <0>        -0.0796
     11 C11         2.9406   -3.5120    2.2289 C.ar      1 <0>         0.1297
     12 C12         3.0557   -4.0161    0.9448 C.ar      1 <0>        -0.1951
     13 O1          3.6752   -4.0450    3.2398 O.3       1 <0>        -0.3081
     14 C13         4.5482   -5.1263    2.9071 C.3       1 <0>         0.0678
     15 C14         5.2862   -5.5912    4.1642 C.3       1 <0>        -0.0338
     16 C15         6.2068   -6.7316    3.8133 C.2       1 <0>        -0.0026
     17 C16         5.8906   -8.0393    3.8306 C.2       1 <0>        -0.0357
     18 O2          6.9897   -8.7218    3.4530 O.3       1 <0>        -0.1943
     19 C17         7.9628   -7.8268    3.2098 C.2       1 <0>         0.2280
     20 N1          7.4856   -6.6231    3.4227 N.2       1 <0>        -0.4568
     21 C18         9.3380   -8.1450    2.7706 C.ar      1 <0>        -0.0161
     22 C19        10.2605   -7.1196    2.5573 C.ar      1 <0>        -0.0701
     23 C20        11.5425   -7.4233    2.1480 C.ar      1 <0>        -0.1200
     24 C21        11.9144   -8.7410    1.9489 C.ar      1 <0>        -0.1018
     25 C22        11.0048   -9.7622    2.1585 C.ar      1 <0>        -0.1219
     26 C23         9.7212   -9.4724    2.5731 C.ar      1 <0>        -0.0913
     27 C24         4.5556   -8.6309    4.2035 C.3       1 <0>        -0.0706
     28 C25         1.9336   -1.9021    3.8519 C.ar      1 <0>        -0.0530
     29 C26         2.0233   -0.5275    4.0652 C.ar      1 <0>        -0.0650
     30 C27         1.9007   -0.0198    5.3416 C.ar      1 <0>        -0.1508
     31 C28         1.6881   -0.8761    6.4133 C.ar      1 <0>         0.1155
     32 C29         1.5987   -2.2456    6.2042 C.ar      1 <0>        -0.2109
     33 C30         1.7144   -2.7589    4.9293 C.ar      1 <0>        -0.0567
     34 O3          1.5677   -0.3728    7.6698 O.3       1 <0>        -0.3211
     35 C31         1.3502   -1.3103    8.7261 C.3       1 <0>         0.0293
     36 C32         2.1255    0.0248   -1.3902 C.2       1 <0>         0.5015
     37 O4          2.4517    0.6510   -2.3842 O.co2     1 <0>        -0.6994
     38 O5          2.9379   -0.1788   -0.5041 O.co2     1 <0>        -0.6860
     39 H1         -0.7863    1.7430   -1.6403 H         1 <0>         0.0336
     40 H2          0.7200    1.8870   -2.5777 H         1 <0>         0.0820
     41 H3         -0.8363    1.6904   -3.4188 H         1 <0>         0.0341
     42 H4         -1.0706   -0.5820   -2.4543 H         1 <0>         0.0330
     43 H5          0.4357   -0.4379   -3.3916 H         1 <0>         0.0598
     44 H6          0.2536   -0.0673   -0.3696 H         1 <0>         0.0576
     45 H7         -0.2626   -2.4242   -1.1553 H         1 <0>         0.0682
     46 H8          0.9750   -2.9624   -3.0846 H         1 <0>         0.0652
     47 H9          2.3616   -1.9314   -2.5974 H         1 <0>         0.0869
     48 H10         1.6500   -4.7405   -1.6988 H         1 <0>         0.0715
     49 H11         3.2648   -4.0079   -1.9400 H         1 <0>         0.0685
     50 H12         0.6405   -1.0943    1.6256 H         1 <0>         0.1194
     51 H13         3.7311   -4.8356    0.7479 H         1 <0>         0.1163
     52 H14         3.9646   -5.9529    2.5018 H         1 <0>         0.0582
     53 H15         5.2719   -4.7934    2.1631 H         1 <0>         0.0643
     54 H16         5.8698   -4.7646    4.5695 H         1 <0>         0.0943
     55 H17         4.5625   -5.9242    4.9081 H         1 <0>         0.0907
     56 H18         9.9713   -6.0906    2.7120 H         1 <0>         0.1398
     57 H19        12.2572   -6.6308    1.9822 H         1 <0>         0.1330
     58 H20        12.9191   -8.9734    1.6281 H         1 <0>         0.1280
     59 H21        11.3013  -10.7887    2.0010 H         1 <0>         0.1300
     60 H22         9.0134  -10.2707    2.7407 H         1 <0>         0.1296
     61 H23         3.9334   -8.7139    3.3124 H         1 <0>         0.0879
     62 H24         4.7047   -9.6203    4.6359 H         1 <0>         0.0798
     63 H25         4.0633   -7.9865    4.9317 H         1 <0>         0.0958
     64 H26         2.1890    0.1391    3.2318 H         1 <0>         0.1361
     65 H27         1.9705    1.0451    5.5075 H         1 <0>         0.1285
     66 H28         1.4340   -2.9093    7.0401 H         1 <0>         0.1230
     67 H29         1.6396   -3.8239    4.7666 H         1 <0>         0.1232
     68 H30         0.4267   -1.8589    8.5406 H         1 <0>         0.0528
     69 H31         2.1855   -2.0092    8.7694 H         1 <0>         0.0530
     70 H32         1.2723   -0.7780    9.6741 H         1 <0>         0.0953
@<TRIPOS>BOND
     1    1    2 1
     2    1   39 1
     3    1   40 1
     4    1   41 1
     5    2    3 1
     6    2   42 1
     7    2   43 1
     8    3    4 1
     9    3   36 1
    10    3   44 1
    11    4    8 1
    12    4    5 1
    13    4   45 1
    14    5    6 1
    15    5   46 1
    16    5   47 1
    17    6    7 1
    18    6   48 1
    19    6   49 1
    20    7   12 ar
    21    7    8 ar
    22    8    9 ar
    23    9   10 ar
    24    9   50 1
    25   10   11 ar
    26   10   28 1
    27   11   12 ar
    28   11   13 1
    29   12   51 1
    30   13   14 1
    31   14   15 1
    32   14   52 1
    33   14   53 1
    34   15   16 1
    35   15   54 1
    36   15   55 1
    37   16   20 1
    38   16   17 2
    39   17   18 1
    40   17   27 1
    41   18   19 1
    42   19   20 2
    43   19   21 1
    44   21   26 ar
    45   21   22 ar
    46   22   23 ar
    47   22   56 1
    48   23   24 ar
    49   23   57 1
    50   24   25 ar
    51   24   58 1
    52   25   26 ar
    53   25   59 1
    54   26   60 1
    55   27   61 1
    56   27   62 1
    57   27   63 1
    58   28   33 ar
    59   28   29 ar
    60   29   30 ar
    61   29   64 1
    62   30   31 ar
    63   30   65 1
    64   31   32 ar
    65   31   34 1
    66   32   33 ar
    67   32   66 1
    68   33   67 1
    69   34   35 1
    70   35   68 1
    71   35   69 1
    72   35   70 1
    73   36   37 2
    74   36   38 1
@<TRIPOS>MOLECULE
CHEMBL573252
   45    47     0     0     0
SMALL
USER_CHARGES

@<TRIPOS>ATOM
      1 C1          7.3629   -4.6623    1.4084 C.ar      1 <0>        -0.1329
      2 C2          6.3356   -5.5849    1.3430 C.ar      1 <0>        -0.1231
      3 C3          5.0697   -5.1838    0.9590 C.ar      1 <0>        -0.1200
      4 C4          4.8311   -3.8599    0.6407 C.ar      1 <0>        -0.0701
      5 C5          5.8582   -2.9371    0.7069 C.ar      1 <0>        -0.1033
      6 C6          7.1244   -3.3385    1.0896 C.ar      1 <0>        -0.1224
      7 C7          3.4513   -3.4228    0.2211 C.3       1 <0>        -0.0636
      8 C8          2.6514   -3.0038    1.4562 C.3       1 <0>         0.0232
      9 C9          1.2350   -2.6840    1.0527 C.2       1 <0>         0.4805
     10 O1          0.5130   -3.5629    0.6138 O.co2     1 <0>        -0.6896
     11 O2          0.8112   -1.5463    1.1652 O.co2     1 <0>        -0.6696
     12 O3          3.2521   -1.8476    2.0431 O.3       1 <0>        -0.2883
     13 C10         3.0274   -1.6404    3.3683 C.ar      1 <0>         0.1708
     14 C11         3.6670   -0.5995    4.0253 C.ar      1 <0>        -0.1482
     15 C12         3.4400   -0.3885    5.3709 C.ar      1 <0>        -0.0592
     16 C13         2.5703   -1.2189    6.0667 C.ar      1 <0>        -0.1428
     17 C14         1.9300   -2.2607    5.4076 C.ar      1 <0>        -0.0870
     18 C15         2.1545   -2.4667    4.0607 C.ar      1 <0>        -0.1832
     19 S1          2.2802   -0.9512    7.7839 S.3       1 <0>        -0.1233
     20 C16         1.1028   -2.2542    8.2383 C.3       1 <0>        -0.0671
     21 C17         0.7655   -2.1381    9.7025 C.ar      1 <0>        -0.0699
     22 C18         1.5250   -2.8099   10.6421 C.ar      1 <0>        -0.1012
     23 C19         1.2156   -2.7034   11.9852 C.ar      1 <0>        -0.1213
     24 C20         0.1471   -1.9247   12.3887 C.ar      1 <0>        -0.1176
     25 C21        -0.6118   -1.2522   11.4492 C.ar      1 <0>        -0.1205
     26 C22        -0.2998   -1.3553   10.1064 C.ar      1 <0>        -0.1004
     27 H1          8.3509   -4.9749    1.7128 H         1 <0>         0.1153
     28 H2          6.5221   -6.6192    1.5917 H         1 <0>         0.1170
     29 H3          4.2673   -5.9047    0.9073 H         1 <0>         0.1210
     30 H4          5.6718   -1.9029    0.4579 H         1 <0>         0.1229
     31 H5          7.9269   -2.6176    1.1410 H         1 <0>         0.1173
     32 H6          3.5302   -2.5788   -0.4642 H         1 <0>         0.0789
     33 H7          2.9442   -4.2491   -0.2771 H         1 <0>         0.0962
     34 H8          2.6477   -3.8185    2.1803 H         1 <0>         0.0659
     35 H9          4.3430    0.0459    3.4842 H         1 <0>         0.1309
     36 H10         3.9386    0.4216    5.8824 H         1 <0>         0.1270
     37 H11         1.2537   -2.9069    5.9475 H         1 <0>         0.1177
     38 H12         1.6537   -3.2741    3.5473 H         1 <0>         0.1303
     39 H13         0.1940   -2.1453    7.6464 H         1 <0>         0.0962
     40 H14         1.5480   -3.2300    8.0443 H         1 <0>         0.0948
     41 H15         2.3598   -3.4182   10.3268 H         1 <0>         0.1247
     42 H16         1.8085   -3.2288   12.7192 H         1 <0>         0.1231
     43 H17        -0.0951   -1.8421   13.4380 H         1 <0>         0.1214
     44 H18        -1.4469   -0.6442   11.7644 H         1 <0>         0.1236
     45 H19        -0.8905   -0.8269    9.3727 H         1 <0>         0.1259
@<TRIPOS>BOND
     1    1    6 ar
     2    1    2 ar
     3    1   27 1
     4    2    3 ar
     5    2   28 1
     6    3    4 ar
     7    3   29 1
     8    4    5 ar
     9    4    7 1
    10    5    6 ar
    11    5   30 1
    12    6   31 1
    13    7    8 1
    14    7   32 1
    15    7   33 1
    16    8    9 1
    17    8   12 1
    18    8   34 1
    19    9   10 2
    20    9   11 1
    21   12   13 1
    22   13   18 ar
    23   13   14 ar
    24   14   15 ar
    25   14   35 1
    26   15   16 ar
    27   15   36 1
    28   16   17 ar
    29   16   19 1
    30   17   18 ar
    31   17   37 1
    32   18   38 1
    33   19   20 1
    34   20   21 1
    35   20   39 1
    36   20   40 1
    37   21   26 ar
    38   21   22 ar
    39   22   23 ar
    40   22   41 1
    41   23   24 ar
    42   23   42 1
    43   24   25 ar
    44   24   43 1
    45   25   26 ar
    46   25   44 1
    47   26   45 1
@<TRIPOS>MOLECULE
CHEMBL573252__1
   45    47     0     0     0
SMALL
USER_CHARGES

@<TRIPOS>ATOM
      1 C1          9.0054   -1.2815    0.6374 C.ar      1 <0>        -0.1328
      2 C2          7.7682   -1.8823    0.4988 C.ar      1 <0>        -0.1224
      3 C3          6.6405   -1.1060    0.3071 C.ar      1 <0>        -0.1033
      4 C4          6.7500    0.2710    0.2545 C.ar      1 <0>        -0.0701
      5 C5          7.9872    0.8717    0.3940 C.ar      1 <0>        -0.1200
      6 C6          9.1150    0.0954    0.5843 C.ar      1 <0>        -0.1231
      7 C7          5.5208    1.1171    0.0445 C.3       1 <0>        -0.0635
      8 C8          4.9093    1.4736    1.4009 C.3       1 <0>         0.0232
      9 C9          3.7536    2.4193    1.1979 C.2       1 <0>         0.4805
     10 O1          2.6214    2.0684    1.4834 O.co2     1 <0>        -0.6696
     11 O2          3.9509    3.5353    0.7482 O.co2     1 <0>        -0.6896
     12 O3          4.4442    0.2837    2.0412 O.3       1 <0>        -0.2883
     13 C10         4.3512    0.3086    3.3978 C.ar      1 <0>         0.1711
     14 C11         4.0202   -0.8464    4.0911 C.ar      1 <0>        -0.1486
     15 C12         3.9251   -0.8222    5.4685 C.ar      1 <0>        -0.0590
     16 C13         4.1614    0.3594    6.1599 C.ar      1 <0>        -0.1429
     17 C14         4.4933    1.5153    5.4646 C.ar      1 <0>        -0.0867
     18 C15         4.5930    1.4876    4.0876 C.ar      1 <0>        -0.1833
     19 S1          4.0398    0.3918    7.9174 S.3       1 <0>        -0.1234
     20 C16         4.4256    2.1102    8.3523 C.3       1 <0>        -0.0671
     21 C17         4.3561    2.2774    9.8484 C.ar      1 <0>        -0.0699
     22 C18         3.1625    2.6308   10.4496 C.ar      1 <0>        -0.1004
     23 C19         3.0987    2.7843   11.8219 C.ar      1 <0>        -0.1205
     24 C20         4.2283    2.5839   12.5931 C.ar      1 <0>        -0.1176
     25 C21         5.4216    2.2296   11.9920 C.ar      1 <0>        -0.1213
     26 C22         5.4844    2.0720   10.6201 C.ar      1 <0>        -0.1013
     27 H1          9.8858   -1.8878    0.7917 H         1 <0>         0.1153
     28 H2          7.6826   -2.9581    0.5399 H         1 <0>         0.1173
     29 H3          5.6740   -1.5754    0.1981 H         1 <0>         0.1229
     30 H4          8.0728    1.9475    0.3526 H         1 <0>         0.1210
     31 H5         10.0816    0.5648    0.6930 H         1 <0>         0.1170
     32 H6          5.7947    2.0314   -0.4821 H         1 <0>         0.0962
     33 H7          4.7936    0.5610   -0.5471 H         1 <0>         0.0789
     34 H8          5.6641    1.9511    2.0256 H         1 <0>         0.0659
     35 H9          3.8365   -1.7648    3.5534 H         1 <0>         0.1308
     36 H10         3.6666   -1.7213    6.0080 H         1 <0>         0.1270
     37 H11         4.6773    2.4344    6.0011 H         1 <0>         0.1177
     38 H12         4.8550    2.3851    3.5471 H         1 <0>         0.1303
     39 H13         5.4293    2.3562    8.0055 H         1 <0>         0.0947
     40 H14         3.7042    2.7757    7.8784 H         1 <0>         0.0963
     41 H15         2.2800    2.7874    9.8471 H         1 <0>         0.1259
     42 H16         2.1663    3.0610   12.2915 H         1 <0>         0.1236
     43 H17         4.1786    2.7045   13.6652 H         1 <0>         0.1214
     44 H18         6.3043    2.0734   12.5944 H         1 <0>         0.1231
     45 H19         6.4159    1.7916   10.1508 H         1 <0>         0.1247
@<TRIPOS>BOND
     1    1    6 ar
     2    1    2 ar
     3    1   27 1
     4    2    3 ar
     5    2   28 1
     6    3    4 ar
     7    3   29 1
     8    4    5 ar
     9    4    7 1
    10    5    6 ar
    11    5   30 1
    12    6   31 1
    13    7    8 1
    14    7   32 1
    15    7   33 1
    16    8    9 1
    17    8   12 1
    18    8   34 1
    19    9   10 2
    20    9   11 1
    21   12   13 1
    22   13   18 ar
    23   13   14 ar
    24   14   15 ar
    25   14   35 1
    26   15   16 ar
    27   15   36 1
    28   16   17 ar
    29   16   19 1
    30   17   18 ar
    31   17   37 1
    32   18   38 1
    33   19   20 1
    34   20   21 1
    35   20   39 1
    36   20   40 1
    37   21   26 ar
    38   21   22 ar
    39   22   23 ar
    40   22   41 1
    41   23   24 ar
    42   23   42 1
    43   24   25 ar
    44   24   43 1
    45   25   26 ar
    46   25   44 1
    47   26   45 1
@<TRIPOS>MOLECULE
CHEMBL119496
   68    71     0     0     0
SMALL
USER_CHARGES

@<TRIPOS>ATOM
      1 C1         -0.0187    1.5258    0.0104 C.3       1 <0>        -0.1527
      2 C2          0.0021   -0.0041    0.0020 C.3       1 <0>        -0.1170
      3 C3          0.7421   -0.5109    1.2415 C.3       1 <0>        -0.0726
      4 C4          0.7625   -2.0177    1.2333 C.ar      1 <0>        -0.1242
      5 C5         -0.2013   -2.7230    1.9177 C.ar      1 <0>        -0.0192
      6 C6         -0.1776   -4.1232    1.9061 C.ar      1 <0>        -0.2064
      7 C7          0.8262   -4.7958    1.1984 C.ar      1 <0>        -0.0345
      8 C8          1.7779   -4.0866    0.5225 C.ar      1 <0>        -0.2198
      9 C9          1.7518   -2.6960    0.5293 C.ar      1 <0>         0.1665
     10 O1          2.6976   -1.9989   -0.1488 O.3       1 <0>        -0.3008
     11 C10         3.6843   -2.7577   -0.8506 C.3       1 <0>         0.0611
     12 C11         4.6577   -1.8063   -1.5493 C.3       1 <0>        -0.1205
     13 C12         5.7142   -2.6187   -2.3007 C.3       1 <0>         0.0636
     14 O2          6.6233   -1.7301   -2.9533 O.3       1 <0>        -0.3079
     15 C13         7.6303   -2.2947   -3.6703 C.ar      1 <0>         0.1356
     16 C14         7.7378   -3.6758   -3.7490 C.ar      1 <0>        -0.1913
     17 C15         8.7618   -4.2472   -4.4788 C.ar      1 <0>        -0.0707
     18 C16         9.6796   -3.4440   -5.1306 C.ar      1 <0>        -0.1319
     19 C17         9.5749   -2.0676   -5.0534 C.ar      1 <0>        -0.0406
     20 C18         8.5490   -1.4912   -4.3294 C.ar      1 <0>        -0.1184
     21 C19        10.5771   -1.1953   -5.7647 C.3       1 <0>        -0.0340
     22 C20        10.7111   -1.5868   -7.2296 C.2       1 <0>         0.5343
     23 O3          9.7839   -1.5138   -8.0073 O.2       1 <0>        -0.4481
     24 N1         11.9085   -2.0123   -7.5953 N.am      1 <0>        -0.6896
     25 C21        12.9534   -2.1029   -6.7517 C.2       1 <0>         0.5629
     26 O4         14.0833   -2.4796   -6.9953 O.2       1 <0>        -0.4133
     27 S1         12.2922   -1.5397   -5.1900 S.3       1 <0>        -0.1362
     28 C22        -1.2018   -4.8834    2.6341 C.2       1 <0>         0.4039
     29 O5         -2.0701   -4.2987    3.2467 O.2       1 <0>        -0.4525
     30 C23        -1.1739   -6.3901    2.6199 C.3       1 <0>        -0.1298
     31 C24        -1.8922   -6.9017    1.3696 C.3       1 <0>        -0.1072
     32 C25        -1.8639   -8.4314    1.3552 C.3       1 <0>        -0.1173
     33 C26        -2.5689   -8.9663    2.6033 C.3       1 <0>        -0.1231
     34 C27        -1.8505   -8.4547    3.8535 C.3       1 <0>        -0.1192
     35 C28        -1.8788   -6.9250    3.8680 C.3       1 <0>        -0.1077
     36 H1          1.0039    1.9031    0.0027 H         1 <0>         0.0551
     37 H2         -0.5459    1.8868   -0.8726 H         1 <0>         0.0548
     38 H3         -0.5289    1.8773    0.9072 H         1 <0>         0.0544
     39 H4         -1.0205   -0.3814    0.0098 H         1 <0>         0.0606
     40 H5          0.5123   -0.3556   -0.8948 H         1 <0>         0.0633
     41 H6          1.7647   -0.1336    1.2338 H         1 <0>         0.0779
     42 H7          0.2319   -0.1594    2.1383 H         1 <0>         0.0730
     43 H8         -0.9727   -2.1985    2.4620 H         1 <0>         0.1404
     44 H9          0.8481   -5.8756    1.1873 H         1 <0>         0.1347
     45 H10         2.5513   -4.6075   -0.0223 H         1 <0>         0.1341
     46 H11         4.2312   -3.3833   -0.1451 H         1 <0>         0.0695
     47 H12         3.1967   -3.3888   -1.5936 H         1 <0>         0.0695
     48 H13         4.1109   -1.1806   -2.2547 H         1 <0>         0.0893
     49 H14         5.1453   -1.1752   -0.8062 H         1 <0>         0.0892
     50 H15         6.2610   -3.2444   -1.5952 H         1 <0>         0.0689
     51 H16         5.2266   -3.2498   -3.0437 H         1 <0>         0.0687
     52 H17         7.0215   -4.3035   -3.2397 H         1 <0>         0.1337
     53 H18         8.8461   -5.3221   -4.5400 H         1 <0>         0.1339
     54 H19        10.4796   -3.8926   -5.7008 H         1 <0>         0.1210
     55 H20         8.4651   -0.4159   -4.2731 H         1 <0>         0.1407
     56 H21        10.3269   -0.1399   -5.6566 H         1 <0>         0.1697
     57 H22        12.0408   -2.2732   -8.5201 H         1 <0>         0.4204
     58 H23        -0.1397   -6.7343    2.6111 H         1 <0>         0.0955
     59 H24        -2.9264   -6.5576    1.3784 H         1 <0>         0.0689
     60 H25        -1.3900   -6.5206    0.4805 H         1 <0>         0.0681
     61 H26        -2.3757   -8.7959    0.4645 H         1 <0>         0.0667
     62 H27        -0.8297   -8.7756    1.3464 H         1 <0>         0.0641
     63 H28        -3.6031   -8.6222    2.6121 H         1 <0>         0.0634
     64 H29        -2.5487  -10.0561    2.5930 H         1 <0>         0.0636
     65 H30        -2.3527   -8.8358    4.7427 H         1 <0>         0.0657
     66 H31        -0.8163   -8.7989    3.8448 H         1 <0>         0.0625
     67 H32        -1.3670   -6.5606    4.7586 H         1 <0>         0.0643
     68 H33        -2.9130   -6.5809    3.8767 H         1 <0>         0.0732
@<TRIPOS>BOND
     1    1    2 1
     2    1   36 1
     3    1   37 1
     4    1   38 1
     5    2    3 1
     6    2   39 1
     7    2   40 1
     8    3    4 1
     9    3   41 1
    10    3   42 1
    11    4    9 ar
    12    4    5 ar
    13    5    6 ar
    14    5   43 1
    15    6    7 ar
    16    6   28 1
    17    7    8 ar
    18    7   44 1
    19    8    9 ar
    20    8   45 1
    21    9   10 1
    22   10   11 1
    23   11   12 1
    24   11   46 1
    25   11   47 1
    26   12   13 1
    27   12   48 1
    28   12   49 1
    29   13   14 1
    30   13   50 1
    31   13   51 1
    32   14   15 1
    33   15   20 ar
    34   15   16 ar
    35   16   17 ar
    36   16   52 1
    37   17   18 ar
    38   17   53 1
    39   18   19 ar
    40   18   54 1
    41   19   20 ar
    42   19   21 1
    43   20   55 1
    44   21   27 1
    45   21   22 1
    46   21   56 1
    47   22   23 2
    48   22   24 am
    49   24   25 am
    50   24   57 1
    51   25   26 2
    52   25   27 1
    53   28   29 2
    54   28   30 1
    55   30   35 1
    56   30   31 1
    57   30   58 1
    58   31   32 1
    59   31   59 1
    60   31   60 1
    61   32   33 1
    62   32   61 1
    63   32   62 1
    64   33   34 1
    65   33   63 1
    66   33   64 1
    67   34   35 1
    68   34   65 1
    69   34   66 1
    70   35   67 1
    71   35   68 1
@<TRIPOS>MOLECULE
CHEMBL119496__1
   68    71     0     0     0
SMALL
USER_CHARGES

@<TRIPOS>ATOM
      1 C1         -0.0187    1.5258    0.0104 C.3       1 <0>        -0.1527
      2 C2          0.0021   -0.0041    0.0020 C.3       1 <0>        -0.1169
      3 C3          0.7421   -0.5109    1.2415 C.3       1 <0>        -0.0726
      4 C4          0.7625   -2.0177    1.2333 C.ar      1 <0>        -0.1242
      5 C5         -0.2013   -2.7230    1.9177 C.ar      1 <0>        -0.0192
      6 C6         -0.1776   -4.1232    1.9061 C.ar      1 <0>        -0.2064
      7 C7          0.8262   -4.7958    1.1984 C.ar      1 <0>        -0.0345
      8 C8          1.7779   -4.0866    0.5225 C.ar      1 <0>        -0.2198
      9 C9          1.7518   -2.6960    0.5293 C.ar      1 <0>         0.1665
     10 O1          2.6976   -1.9989   -0.1488 O.3       1 <0>        -0.3008
     11 C10         3.6843   -2.7577   -0.8506 C.3       1 <0>         0.0611
     12 C11         4.6577   -1.8063   -1.5493 C.3       1 <0>        -0.1205
     13 C12         5.7142   -2.6187   -2.3007 C.3       1 <0>         0.0636
     14 O2          6.6233   -1.7301   -2.9533 O.3       1 <0>        -0.3079
     15 C13         7.6303   -2.2947   -3.6703 C.ar      1 <0>         0.1356
     16 C14         7.7378   -3.6758   -3.7490 C.ar      1 <0>        -0.1913
     17 C15         8.7618   -4.2472   -4.4788 C.ar      1 <0>        -0.0707
     18 C16         9.6796   -3.4440   -5.1306 C.ar      1 <0>        -0.1319
     19 C17         9.5749   -2.0676   -5.0534 C.ar      1 <0>        -0.0405
     20 C18         8.5490   -1.4912   -4.3294 C.ar      1 <0>        -0.1184
     21 C19        10.5771   -1.1953   -5.7647 C.3       1 <0>        -0.0340
     22 C20        12.0043   -1.5904   -5.4121 C.2       1 <0>         0.5343
     23 O3         12.4351   -1.5213   -4.2810 O.2       1 <0>        -0.4481
     24 N1         12.7415   -2.0147   -6.4246 N.am      1 <0>        -0.6896
     25 C21        12.2868   -2.1010   -7.6885 C.2       1 <0>         0.5628
     26 O4         12.8866   -2.4768   -8.6770 O.2       1 <0>        -0.4134
     27 S1         10.5959   -1.5349   -7.5743 S.3       1 <0>        -0.1361
     28 C22        -1.2018   -4.8834    2.6341 C.2       1 <0>         0.4039
     29 O5         -2.0701   -4.2987    3.2467 O.2       1 <0>        -0.4525
     30 C23        -1.1739   -6.3901    2.6199 C.3       1 <0>        -0.1299
     31 C24        -1.8922   -6.9017    1.3696 C.3       1 <0>        -0.1072
     32 C25        -1.8639   -8.4314    1.3552 C.3       1 <0>        -0.1173
     33 C26        -2.5689   -8.9663    2.6033 C.3       1 <0>        -0.1231
     34 C27        -1.8505   -8.4547    3.8535 C.3       1 <0>        -0.1192
     35 C28        -1.8788   -6.9250    3.8680 C.3       1 <0>        -0.1077
     36 H1          1.0039    1.9031    0.0027 H         1 <0>         0.0551
     37 H2         -0.5459    1.8868   -0.8726 H         1 <0>         0.0548
     38 H3         -0.5289    1.8773    0.9072 H         1 <0>         0.0544
     39 H4         -1.0205   -0.3814    0.0098 H         1 <0>         0.0606
     40 H5          0.5123   -0.3556   -0.8948 H         1 <0>         0.0633
     41 H6          1.7647   -0.1336    1.2338 H         1 <0>         0.0779
     42 H7          0.2319   -0.1594    2.1383 H         1 <0>         0.0730
     43 H8         -0.9727   -2.1985    2.4620 H         1 <0>         0.1404
     44 H9          0.8481   -5.8756    1.1873 H         1 <0>         0.1347
     45 H10         2.5513   -4.6075   -0.0223 H         1 <0>         0.1341
     46 H11         4.2312   -3.3833   -0.1451 H         1 <0>         0.0694
     47 H12         3.1967   -3.3888   -1.5936 H         1 <0>         0.0696
     48 H13         4.1109   -1.1806   -2.2547 H         1 <0>         0.0893
     49 H14         5.1453   -1.1752   -0.8062 H         1 <0>         0.0892
     50 H15         6.2610   -3.2444   -1.5952 H         1 <0>         0.0687
     51 H16         5.2266   -3.2498   -3.0437 H         1 <0>         0.0689
     52 H17         7.0215   -4.3035   -3.2397 H         1 <0>         0.1337
     53 H18         8.8461   -5.3221   -4.5400 H         1 <0>         0.1339
     54 H19        10.4796   -3.8926   -5.7008 H         1 <0>         0.1210
     55 H20         8.4651   -0.4159   -4.2731 H         1 <0>         0.1407
     56 H21        10.3950   -0.1401   -5.5609 H         1 <0>         0.1697
     57 H22        13.6583   -2.2771   -6.2471 H         1 <0>         0.4204
     58 H23        -0.1397   -6.7343    2.6111 H         1 <0>         0.0955
     59 H24        -2.9264   -6.5576    1.3784 H         1 <0>         0.0690
     60 H25        -1.3900   -6.5206    0.4805 H         1 <0>         0.0681
     61 H26        -2.3757   -8.7959    0.4645 H         1 <0>         0.0667
     62 H27        -0.8297   -8.7756    1.3464 H         1 <0>         0.0641
     63 H28        -3.6031   -8.6222    2.6121 H         1 <0>         0.0634
     64 H29        -2.5487  -10.0561    2.5930 H         1 <0>         0.0636
     65 H30        -2.3527   -8.8358    4.7427 H         1 <0>         0.0657
     66 H31        -0.8163   -8.7989    3.8448 H         1 <0>         0.0625
     67 H32        -1.3670   -6.5606    4.7586 H         1 <0>         0.0643
     68 H33        -2.9130   -6.5809    3.8767 H         1 <0>         0.0732
@<TRIPOS>BOND
     1    1    2 1
     2    1   36 1
     3    1   37 1
     4    1   38 1
     5    2    3 1
     6    2   39 1
     7    2   40 1
     8    3    4 1
     9    3   41 1
    10    3   42 1
    11    4    9 ar
    12    4    5 ar
    13    5    6 ar
    14    5   43 1
    15    6    7 ar
    16    6   28 1
    17    7    8 ar
    18    7   44 1
    19    8    9 ar
    20    8   45 1
    21    9   10 1
    22   10   11 1
    23   11   12 1
    24   11   46 1
    25   11   47 1
    26   12   13 1
    27   12   48 1
    28   12   49 1
    29   13   14 1
    30   13   50 1
    31   13   51 1
    32   14   15 1
    33   15   20 ar
    34   15   16 ar
    35   16   17 ar
    36   16   52 1
    37   17   18 ar
    38   17   53 1
    39   18   19 ar
    40   18   54 1
    41   19   20 ar
    42   19   21 1
    43   20   55 1
    44   21   27 1
    45   21   22 1
    46   21   56 1
    47   22   23 2
    48   22   24 am
    49   24   25 am
    50   24   57 1
    51   25   26 2
    52   25   27 1
    53   28   29 2
    54   28   30 1
    55   30   35 1
    56   30   31 1
    57   30   58 1
    58   31   32 1
    59   31   59 1
    60   31   60 1
    61   32   33 1
    62   32   61 1
    63   32   62 1
    64   33   34 1
    65   33   63 1
    66   33   64 1
    67   34   35 1
    68   34   65 1
    69   34   66 1
    70   35   67 1
    71   35   68 1
@<TRIPOS>MOLECULE
CHEMBL118329
   50    51     0     0     0
SMALL
USER_CHARGES

@<TRIPOS>ATOM
      1 C1         -1.5770    0.1791   -1.3908 C.3       1 <0>        -0.1496
      2 C2         -0.1213    0.6352   -1.2729 C.3       1 <0>        -0.1022
      3 C3          0.7300   -0.5124   -0.7259 C.3       1 <0>        -0.1511
      4 C4          0.2661   -0.8617    0.6896 C.3       1 <0>        -0.0574
      5 C5          1.0204   -2.0700    1.1816 C.ar      1 <0>        -0.0933
      6 C6          0.5207   -3.3381    0.9478 C.ar      1 <0>        -0.0774
      7 C7          1.2099   -4.4471    1.3981 C.ar      1 <0>        -0.2100
      8 C8          2.4049   -4.2882    2.0851 C.ar      1 <0>         0.1309
      9 C9          2.9043   -3.0152    2.3179 C.ar      1 <0>        -0.1041
     10 C10         2.2137   -1.9092    1.8609 C.ar      1 <0>        -0.0421
     11 C11         4.2018   -2.8389    3.0638 C.3       1 <0>        -0.0859
     12 C12         3.9521   -2.9706    4.5442 C.2       1 <0>         0.5230
     13 O1          2.8309   -3.1863    4.9532 O.2       1 <0>        -0.5018
     14 N1          4.9748   -2.8486    5.4135 N.am      1 <0>        -0.6818
     15 C13         4.7292   -2.8754    6.7908 C.ar      1 <0>         0.1894
     16 C14         5.4797   -2.0803    7.6470 C.ar      1 <0>        -0.1508
     17 C15         5.2349   -2.1090    9.0059 C.ar      1 <0>        -0.0505
     18 C16         4.2437   -2.9284    9.5142 C.ar      1 <0>        -0.2086
     19 C17         3.4950   -3.7217    8.6643 C.ar      1 <0>        -0.0506
     20 C18         3.7307   -3.6929    7.3038 C.ar      1 <0>        -0.1249
     21 C19         3.9793   -2.9573   10.9976 C.3       1 <0>         0.5111
     22 F1          3.0206   -1.9906   11.3192 F         1 <0>        -0.1776
     23 F2          3.5066   -4.2225   11.3624 F         1 <0>        -0.1789
     24 F3          5.1653   -2.6857   11.6880 F         1 <0>        -0.1795
     25 O2          3.0846   -5.3778    2.5295 O.3       1 <0>        -0.3197
     26 C20         2.5107   -6.6572    2.2542 C.3       1 <0>         0.0312
     27 C21         2.1768   -0.0923   -0.6911 C.2       1 <0>         0.5023
     28 O3          3.0200   -0.7617   -1.2633 O.co2     1 <0>        -0.6999
     29 O4          2.5042    0.9171   -0.0906 O.co2     1 <0>        -0.7018
     30 H1         -1.6273   -0.7206   -2.0040 H         1 <0>         0.0474
     31 H2         -1.9721   -0.0354   -0.3979 H         1 <0>         0.0513
     32 H3         -2.1686    0.9684   -1.8546 H         1 <0>         0.0442
     33 H4          0.2492    0.9258   -2.2560 H         1 <0>         0.0518
     34 H5         -0.0612    1.4871   -0.5956 H         1 <0>         0.0636
     35 H6          0.6205   -1.3850   -1.3699 H         1 <0>         0.0578
     36 H7          0.4580   -0.0186    1.3533 H         1 <0>         0.0709
     37 H8         -0.8018   -1.0797    0.6786 H         1 <0>         0.0589
     38 H9         -0.4095   -3.4613    0.4130 H         1 <0>         0.1188
     39 H10         0.8188   -5.4372    1.2158 H         1 <0>         0.1215
     40 H11         2.6041   -0.9180    2.0384 H         1 <0>         0.1307
     41 H12         4.9106   -3.6033    2.7455 H         1 <0>         0.1079
     42 H13         4.6120   -1.8517    2.8509 H         1 <0>         0.1096
     43 H14         5.8810   -2.7422    5.0844 H         1 <0>         0.4152
     44 H15         6.2543   -1.4404    7.2507 H         1 <0>         0.1389
     45 H16         5.8185   -1.4912    9.6724 H         1 <0>         0.1380
     46 H17         2.7218   -4.3608    9.0644 H         1 <0>         0.1369
     47 H18         3.1421   -4.3088    6.6400 H         1 <0>         0.1514
     48 H19         1.5245   -6.7196    2.7142 H         1 <0>         0.0514
     49 H20         2.4180   -6.7895    1.1763 H         1 <0>         0.0528
     50 H21         3.1520   -7.4385    2.6623 H         1 <0>         0.0928
@<TRIPOS>BOND
     1    1    2 1
     2    1   30 1
     3    1   31 1
     4    1   32 1
     5    2    3 1
     6    2   33 1
     7    2   34 1
     8    3    4 1
     9    3   27 1
    10    3   35 1
    11    4    5 1
    12    4   36 1
    13    4   37 1
    14    5   10 ar
    15    5    6 ar
    16    6    7 ar
    17    6   38 1
    18    7    8 ar
    19    7   39 1
    20    8    9 ar
    21    8   25 1
    22    9   10 ar
    23    9   11 1
    24   10   40 1
    25   11   12 1
    26   11   41 1
    27   11   42 1
    28   12   13 2
    29   12   14 am
    30   14   15 1
    31   14   43 1
    32   15   20 ar
    33   15   16 ar
    34   16   17 ar
    35   16   44 1
    36   17   18 ar
    37   17   45 1
    38   18   19 ar
    39   18   21 1
    40   19   20 ar
    41   19   46 1
    42   20   47 1
    43   21   22 1
    44   21   23 1
    45   21   24 1
    46   25   26 1
    47   26   48 1
    48   26   49 1
    49   26   50 1
    50   27   28 2
    51   27   29 1
@<TRIPOS>MOLECULE
CHEMBL118329__1
   50    51     0     0     0
SMALL
USER_CHARGES

@<TRIPOS>ATOM
      1 C1         -0.0030    1.5519   -0.0111 C.3       1 <0>        -0.1444
      2 C2          0.0161    0.0221   -0.0094 C.3       1 <0>        -0.1006
      3 C3          0.7278   -0.4805   -1.2671 C.3       1 <0>        -0.1541
      4 C4          0.8575   -2.0037   -1.2055 C.3       1 <0>        -0.0572
      5 C5          1.6652   -2.4871   -2.3824 C.ar      1 <0>        -0.0933
      6 C6          1.0311   -2.8147   -3.5669 C.ar      1 <0>        -0.0490
      7 C7          1.7691   -3.2584   -4.6468 C.ar      1 <0>        -0.2025
      8 C8          3.1478   -3.3750   -4.5426 C.ar      1 <0>         0.1318
      9 C9          3.7815   -3.0453   -3.3535 C.ar      1 <0>        -0.1151
     10 C10         3.0393   -2.5970   -2.2778 C.ar      1 <0>        -0.0702
     11 C11         5.2787   -3.1708   -3.2369 C.3       1 <0>        -0.0811
     12 C12         5.6442   -4.6115   -2.9882 C.2       1 <0>         0.5194
     13 O1          4.7745   -5.4535   -2.9131 O.2       1 <0>        -0.4979
     14 N1          6.9376   -4.9642   -2.8493 N.am      1 <0>        -0.6822
     15 C13         7.2718   -6.2831   -2.5226 C.ar      1 <0>         0.1878
     16 C14         8.3600   -6.5417   -1.6994 C.ar      1 <0>        -0.1516
     17 C15         8.6873   -7.8446   -1.3789 C.ar      1 <0>        -0.0509
     18 C16         7.9328   -8.8911   -1.8767 C.ar      1 <0>        -0.2074
     19 C17         6.8490   -8.6370   -2.6970 C.ar      1 <0>        -0.0499
     20 C18         6.5127   -7.3360   -3.0163 C.ar      1 <0>        -0.1247
     21 C19         8.2928  -10.3115   -1.5249 C.3       1 <0>         0.5108
     22 F1          7.6189  -10.6882   -0.3582 F         1 <0>        -0.1774
     23 F2          7.9207  -11.1602   -2.5730 F         1 <0>        -0.1782
     24 F3          9.6731  -10.4049   -1.3170 F         1 <0>        -0.1794
     25 O2          3.8761   -3.8117   -5.6036 O.3       1 <0>        -0.3213
     26 C20         3.1569   -4.1335   -6.7958 C.3       1 <0>         0.0298
     27 C21        -0.0709   -0.0931   -2.4849 C.2       1 <0>         0.5068
     28 O3          0.4277    0.6188   -3.3399 O.co2     1 <0>        -0.7012
     29 O4         -1.2158   -0.4917   -2.6152 O.co2     1 <0>        -0.7021
     30 H1          1.0199    1.9281   -0.0245 H         1 <0>         0.0457
     31 H2         -0.5326    1.9077   -0.8949 H         1 <0>         0.0583
     32 H3         -0.5100    1.9100    0.8849 H         1 <0>         0.0416
     33 H4          0.5457   -0.3337    0.8744 H         1 <0>         0.0435
     34 H5         -1.0068   -0.3541    0.0041 H         1 <0>         0.0631
     35 H6          1.7202   -0.0335   -1.3262 H         1 <0>         0.0578
     36 H7          1.3577   -2.2887   -0.2799 H         1 <0>         0.0550
     37 H8         -0.1346   -2.4543   -1.2360 H         1 <0>         0.0730
     38 H9         -0.0420   -2.7238   -3.6475 H         1 <0>         0.1302
     39 H10         1.2734   -3.5148   -5.5714 H         1 <0>         0.1232
     40 H11         3.5326   -2.3364   -1.3531 H         1 <0>         0.1216
     41 H12         5.7449   -2.8321   -4.1621 H         1 <0>         0.1071
     42 H13         5.6311   -2.5581   -2.4071 H         1 <0>         0.1039
     43 H14         7.6367   -4.3038   -2.9758 H         1 <0>         0.4141
     44 H15         8.9498   -5.7248   -1.3106 H         1 <0>         0.1379
     45 H16         9.5336   -8.0464   -0.7390 H         1 <0>         0.1380
     46 H17         6.2619   -9.4565   -3.0846 H         1 <0>         0.1377
     47 H18         5.6630   -7.1379   -3.6529 H         1 <0>         0.1523
     48 H19         2.4410   -4.9279   -6.5850 H         1 <0>         0.0527
     49 H20         2.6255   -3.2498   -7.1492 H         1 <0>         0.0553
     50 H21         3.8557   -4.4681   -7.5625 H         1 <0>         0.0931
@<TRIPOS>BOND
     1    1    2 1
     2    1   30 1
     3    1   31 1
     4    1   32 1
     5    2    3 1
     6    2   33 1
     7    2   34 1
     8    3    4 1
     9    3   27 1
    10    3   35 1
    11    4    5 1
    12    4   36 1
    13    4   37 1
    14    5   10 ar
    15    5    6 ar
    16    6    7 ar
    17    6   38 1
    18    7    8 ar
    19    7   39 1
    20    8    9 ar
    21    8   25 1
    22    9   10 ar
    23    9   11 1
    24   10   40 1
    25   11   12 1
    26   11   41 1
    27   11   42 1
    28   12   13 2
    29   12   14 am
    30   14   15 1
    31   14   43 1
    32   15   20 ar
    33   15   16 ar
    34   16   17 ar
    35   16   44 1
    36   17   18 ar
    37   17   45 1
    38   18   19 ar
    39   18   21 1
    40   19   20 ar
    41   19   46 1
    42   20   47 1
    43   21   22 1
    44   21   23 1
    45   21   24 1
    46   25   26 1
    47   26   48 1
    48   26   49 1
    49   26   50 1
    50   27   28 2
    51   27   29 1
@<TRIPOS>MOLECULE
CHEMBL484330
   53    56     0     0     0
SMALL
USER_CHARGES

@<TRIPOS>ATOM
      1 C1         -0.0184    1.5028    0.0103 C.3       1 <0>        -0.0726
      2 C2          0.0021   -0.0041    0.0020 C.2       1 <0>        -0.0308
      3 C3         -1.0705   -0.8164    0.0025 C.2       1 <0>        -0.0071
      4 N1         -0.6270   -2.0826   -0.0064 N.2       1 <0>        -0.4586
      5 C4          0.6851   -2.0676   -0.0123 C.2       1 <0>         0.2289
      6 O1          1.0981   -0.7883   -0.0131 O.3       1 <0>        -0.1930
      7 C5          1.5619   -3.2577   -0.0227 C.ar      1 <0>        -0.0171
      8 C6          1.0059   -4.5378   -0.0330 C.ar      1 <0>        -0.0706
      9 C7          1.8298   -5.6443   -0.0432 C.ar      1 <0>        -0.1206
     10 C8          3.2044   -5.4871   -0.0433 C.ar      1 <0>        -0.1012
     11 C9          3.7620   -4.2209   -0.0327 C.ar      1 <0>        -0.1212
     12 C10         2.9493   -3.1060   -0.0282 C.ar      1 <0>        -0.0906
     13 C11        -2.5133   -0.3814    0.0119 C.3       1 <0>        -0.0337
     14 C12        -3.0085   -0.2260   -1.4274 C.3       1 <0>         0.0678
     15 O2         -4.3766    0.1865   -1.4185 O.3       1 <0>        -0.3110
     16 C13        -4.9733    0.3716   -2.6260 C.ar      1 <0>         0.1577
     17 C14        -4.2636    0.1567   -3.7964 C.ar      1 <0>        -0.1863
     18 C15        -4.8902    0.3510   -5.0196 C.ar      1 <0>        -0.0914
     19 C16        -6.1878    0.7485   -5.0994 C.ar      1 <0>        -0.0516
     20 C17        -6.9496    0.9799   -3.9282 C.ar      1 <0>        -0.0352
     21 C18        -6.2951    0.7705   -2.6966 C.ar      1 <0>        -0.1403
     22 S1         -7.5429    1.1421   -1.4916 S.3       1 <0>         0.0175
     23 C19        -8.8809    1.5505   -2.5965 C.2       1 <0>        -0.1673
     24 C20        -8.3368    1.4055   -3.8137 C.2       1 <0>        -0.1071
     25 C21        -6.8235    0.9459   -6.4514 C.3       1 <0>        -0.0645
     26 C22        -6.7258    2.4196   -6.8507 C.3       1 <0>         0.0320
     27 H1         -5.6845    2.7390   -6.8093 H         1 <0>         0.0493
     28 C23        -7.2500    2.5961   -8.2526 C.2       1 <0>         0.4781
     29 O3         -8.2553    3.2573   -8.4487 O.co2     1 <0>        -0.6791
     30 O4         -6.6686    2.0776   -9.1905 O.co2     1 <0>        -0.6995
     31 O5         -7.5027    3.2100   -5.9487 O.3       1 <0>        -0.3662
     32 C24        -7.0039    4.5358   -5.7600 C.3       1 <0>         0.0450
     33 H2          1.0042    1.8801    0.0026 H         1 <0>         0.0808
     34 H3         -0.5455    1.8639   -0.8728 H         1 <0>         0.0929
     35 H4         -0.5286    1.8543    0.9071 H         1 <0>         0.0933
     36 H5         -0.0670   -4.6619   -0.0326 H         1 <0>         0.1391
     37 H6          1.4008   -6.6354   -0.0508 H         1 <0>         0.1327
     38 H7          3.8450   -6.3565   -0.0513 H         1 <0>         0.1284
     39 H8          4.8357   -4.1050   -0.0321 H         1 <0>         0.1306
     40 H9          3.3858   -2.1181   -0.0249 H         1 <0>         0.1301
     41 H10        -3.1156   -1.1316    0.5243 H         1 <0>         0.0950
     42 H11        -2.6018    0.5726    0.5316 H         1 <0>         0.0932
     43 H12        -2.4061    0.5242   -1.9398 H         1 <0>         0.0625
     44 H13        -2.9200   -1.1800   -1.9471 H         1 <0>         0.0671
     45 H14        -3.2316   -0.1591   -3.7572 H         1 <0>         0.1322
     46 H15        -4.3335    0.1827   -5.9296 H         1 <0>         0.1297
     47 H16        -9.8868    1.8531   -2.3454 H         1 <0>         0.1861
     48 H17        -8.9263    1.5880   -4.7000 H         1 <0>         0.1485
     49 H18        -6.3048    0.3343   -7.1896 H         1 <0>         0.0899
     50 H19        -7.8717    0.6503   -6.4067 H         1 <0>         0.0757
     51 H20        -7.6484    5.0706   -5.0623 H         1 <0>         0.0715
     52 H21        -5.9920    4.4894   -5.3574 H         1 <0>         0.0220
     53 H22        -6.9908    5.0586   -6.7163 H         1 <0>         0.0388
@<TRIPOS>BOND
     1    1    2 1
     2    1   33 1
     3    1   34 1
     4    1   35 1
     5    2    6 1
     6    2    3 2
     7    3    4 1
     8    3   13 1
     9    4    5 2
    10    5    6 1
    11    5    7 1
    12    7   12 ar
    13    7    8 ar
    14    8    9 ar
    15    8   36 1
    16    9   10 ar
    17    9   37 1
    18   10   11 ar
    19   10   38 1
    20   11   12 ar
    21   11   39 1
    22   12   40 1
    23   13   14 1
    24   13   41 1
    25   13   42 1
    26   14   15 1
    27   14   43 1
    28   14   44 1
    29   15   16 1
    30   16   21 ar
    31   16   17 ar
    32   17   18 ar
    33   17   45 1
    34   18   19 ar
    35   18   46 1
    36   19   20 ar
    37   19   25 1
    38   20   24 1
    39   20   21 ar
    40   21   22 1
    41   22   23 1
    42   23   24 2
    43   23   47 1
    44   24   48 1
    45   25   26 1
    46   25   49 1
    47   25   50 1
    48   26   27 1
    49   26   28 1
    50   26   31 1
    51   28   29 2
    52   28   30 1
    53   31   32 1
    54   32   51 1
    55   32   52 1
    56   32   53 1
@<TRIPOS>MOLECULE
CHEMBL234588
   51    54     0     0     0
SMALL
USER_CHARGES

@<TRIPOS>ATOM
      1 C1         -0.0167    1.3779    0.0096 C.ar      1 <0>        -0.1253
      2 C2          1.1711    2.0854    0.0021 C.ar      1 <0>        -0.0852
      3 C3          2.3773    1.4107   -0.0130 C.ar      1 <0>        -0.1052
      4 C4          2.3960    0.0283   -0.0201 C.ar      1 <0>        -0.0673
      5 C5          1.2086   -0.6790   -0.0117 C.ar      1 <0>        -0.0925
      6 C6          0.0021   -0.0041    0.0020 C.ar      1 <0>        -0.0806
      7 C7          1.2291   -2.1858   -0.0204 C.3       1 <0>         0.0995
      8 O1          1.2497   -2.6697    1.3240 O.3       1 <0>        -0.3056
      9 C8          1.2698   -4.0183    1.4943 C.ar      1 <0>         0.1388
     10 C9          1.2757   -4.8664    0.3891 C.ar      1 <0>        -0.2090
     11 C10         1.2957   -6.2175    0.5320 C.ar      1 <0>        -0.0218
     12 C11         1.3118   -6.8107    1.8168 C.ar      1 <0>        -0.0936
     13 C12         1.3060   -5.9315    2.9211 C.ar      1 <0>        -0.0762
     14 C13         1.2905   -4.5617    2.7682 C.ar      1 <0>        -0.1163
     15 S1          1.3292   -7.0205    4.3216 S.3       1 <0>         0.0008
     16 C14         1.3460   -8.5803    3.4589 C.2       1 <0>        -0.1799
     17 C15         1.3335   -8.2241    2.1669 C.2       1 <0>        -0.0328
     18 C16         1.3424   -9.2755    1.0874 C.3       1 <0>        -0.1466
     19 C17         2.7590   -9.5175    0.6335 C.2       1 <0>         0.4971
     20 O2          3.6762   -8.8939    1.1397 O.co2     1 <0>        -0.6834
     21 O3          2.9877  -10.3368   -0.2399 O.co2     1 <0>        -0.7017
     22 C18         3.6720    2.1819   -0.0222 C.3       1 <0>         0.1007
     23 O4          4.0945    2.4194    1.3220 O.3       1 <0>        -0.3000
     24 C19         5.2538    3.1080    1.4918 C.ar      1 <0>         0.1665
     25 C20         5.9669    3.5512    0.3874 C.ar      1 <0>        -0.2134
     26 C21         7.1448    4.2514    0.5627 C.ar      1 <0>        -0.0274
     27 C22         7.6133    4.5103    1.8375 C.ar      1 <0>        -0.2271
     28 C23         6.9047    4.0693    2.9399 C.ar      1 <0>        -0.0293
     29 C24         5.7231    3.3740    2.7700 C.ar      1 <0>        -0.1524
     30 C25         8.8988    5.2739    2.0258 C.3       1 <0>         0.5124
     31 F1          8.6210    6.6429    2.1023 F         1 <0>        -0.1785
     32 F2          9.5198    4.8572    3.2081 F         1 <0>        -0.1774
     33 F3          9.7489    5.0305    0.9417 F         1 <0>        -0.1784
     34 H1         -0.9591    1.9051    0.0259 H         1 <0>         0.1292
     35 H2          1.1565    3.1653    0.0076 H         1 <0>         0.1257
     36 H3          3.3385   -0.4989   -0.0326 H         1 <0>         0.1287
     37 H4         -0.9258   -0.5567    0.0079 H         1 <0>         0.1288
     38 H5          0.3388   -2.5583   -0.5270 H         1 <0>         0.0741
     39 H6          2.1185   -2.5341   -0.5456 H         1 <0>         0.0742
     40 H7          1.2637   -4.4405   -0.6033 H         1 <0>         0.1275
     41 H8          1.2990   -6.8466   -0.3459 H         1 <0>         0.1275
     42 H9          1.2903   -3.9173    3.6349 H         1 <0>         0.1337
     43 H10         1.3625   -9.5757    3.8776 H         1 <0>         0.1809
     44 H11         0.9232  -10.2022    1.4793 H         1 <0>         0.0722
     45 H12         0.7436   -8.9344    0.2430 H         1 <0>         0.0686
     46 H13         4.4344    1.6057   -0.5463 H         1 <0>         0.0771
     47 H14         3.5236    3.1349   -0.5302 H         1 <0>         0.0762
     48 H15         5.6017    3.3486   -0.6086 H         1 <0>         0.1405
     49 H16         7.7003    4.5965   -0.2968 H         1 <0>         0.1385
     50 H17         7.2730    4.2725    3.9346 H         1 <0>         0.1430
     51 H18         5.1677    3.0337    3.6314 H         1 <0>         0.1447
@<TRIPOS>BOND
     1    1    6 ar
     2    1    2 ar
     3    1   34 1
     4    2    3 ar
     5    2   35 1
     6    3    4 ar
     7    3   22 1
     8    4    5 ar
     9    4   36 1
    10    5    6 ar
    11    5    7 1
    12    6   37 1
    13    7    8 1
    14    7   38 1
    15    7   39 1
    16    8    9 1
    17    9   14 ar
    18    9   10 ar
    19   10   11 ar
    20   10   40 1
    21   11   12 ar
    22   11   41 1
    23   12   17 1
    24   12   13 ar
    25   13   14 ar
    26   13   15 1
    27   14   42 1
    28   15   16 1
    29   16   17 2
    30   16   43 1
    31   17   18 1
    32   18   19 1
    33   18   44 1
    34   18   45 1
    35   19   20 2
    36   19   21 1
    37   22   23 1
    38   22   46 1
    39   22   47 1
    40   23   24 1
    41   24   29 ar
    42   24   25 ar
    43   25   26 ar
    44   25   48 1
    45   26   27 ar
    46   26   49 1
    47   27   28 ar
    48   27   30 1
    49   28   29 ar
    50   28   50 1
    51   29   51 1
    52   30   31 1
    53   30   32 1
    54   30   33 1
@<TRIPOS>MOLECULE
CHEMBL234589
   51    54     0     0     0
SMALL
USER_CHARGES

@<TRIPOS>ATOM
      1 C1         -0.0167    1.3781    0.0096 C.ar      1 <0>        -0.0959
      2 C2          1.1709    2.0855    0.0021 C.ar      1 <0>        -0.0960
      3 C3          2.3773    1.4107   -0.0130 C.ar      1 <0>        -0.0760
      4 C4          2.3960    0.0285   -0.0201 C.ar      1 <0>        -0.0969
      5 C5          1.2085   -0.6789   -0.0117 C.ar      1 <0>        -0.0967
      6 C6          0.0021   -0.0041    0.0020 C.ar      1 <0>        -0.0949
      7 C7         -1.2926   -0.7753    0.0107 C.3       1 <0>         0.0997
      8 O1         -1.7152   -1.0118   -1.3338 O.3       1 <0>        -0.3008
      9 C8         -2.8744   -1.7003   -1.5041 C.ar      1 <0>         0.1663
     10 C9         -3.5935   -2.1342   -0.3998 C.ar      1 <0>        -0.2131
     11 C10        -4.7718   -2.8335   -0.5756 C.ar      1 <0>        -0.0272
     12 C11        -5.2345   -3.1014   -1.8507 C.ar      1 <0>        -0.2270
     13 C12        -4.5195   -2.6704   -2.9529 C.ar      1 <0>        -0.0296
     14 C13        -3.3437   -1.9654   -2.7824 C.ar      1 <0>        -0.1533
     15 C14        -6.5200   -3.8648   -2.0396 C.3       1 <0>         0.5123
     16 F1         -7.5920   -2.9675   -2.0915 F         1 <0>        -0.1777
     17 F2         -6.4605   -4.5900   -3.2345 F         1 <0>        -0.1780
     18 F3         -6.7009   -4.7458   -0.9679 F         1 <0>        -0.1786
     19 C15         3.6720    2.1819   -0.0222 C.3       1 <0>         0.0971
     20 O2          4.0946    2.4194    1.3220 O.3       1 <0>        -0.3059
     21 C16         5.2542    3.1083    1.4919 C.ar      1 <0>         0.1387
     22 C17         5.9744    3.5557    0.3866 C.ar      1 <0>        -0.2087
     23 C18         7.1360    4.2461    0.5289 C.ar      1 <0>        -0.0216
     24 C19         7.6548    4.5354    1.8135 C.ar      1 <0>        -0.0934
     25 C20         6.9077    4.0724    2.9180 C.ar      1 <0>        -0.0764
     26 C21         5.7275    3.3767    2.7656 C.ar      1 <0>        -0.1164
     27 S1          7.8535    4.6138    4.3180 S.3       1 <0>         0.0005
     28 C22         9.1872    5.4224    3.4549 C.2       1 <0>        -0.1798
     29 C23         8.8716    5.2550    2.1632 C.2       1 <0>        -0.0327
     30 C24         9.7667    5.8063    1.0834 C.3       1 <0>        -0.1466
     31 C25         9.2636    7.1613    0.6570 C.2       1 <0>         0.4971
     32 O3          8.2702    7.6354    1.1814 O.co2     1 <0>        -0.6836
     33 O4          9.8499    7.7835   -0.2123 O.co2     1 <0>        -0.7015
     34 H1         -0.9591    1.9053    0.0259 H         1 <0>         0.1275
     35 H2          1.1563    3.1654    0.0076 H         1 <0>         0.1310
     36 H3          3.3385   -0.4987   -0.0326 H         1 <0>         0.1298
     37 H4          1.2231   -1.7588   -0.0179 H         1 <0>         0.1271
     38 H5         -1.1443   -1.7285    0.5180 H         1 <0>         0.0767
     39 H6         -2.0551   -0.1993    0.5352 H         1 <0>         0.0769
     40 H7         -3.2321   -1.9258    0.5964 H         1 <0>         0.1410
     41 H8         -5.3320   -3.1715    0.2837 H         1 <0>         0.1387
     42 H9         -4.8827   -2.8812   -3.9478 H         1 <0>         0.1428
     43 H10        -2.7879   -1.6251   -3.6436 H         1 <0>         0.1443
     44 H11         4.4344    1.6056   -0.5463 H         1 <0>         0.0742
     45 H12         3.5237    3.1349   -0.5302 H         1 <0>         0.0754
     46 H13         5.6014    3.3488   -0.6056 H         1 <0>         0.1278
     47 H14         7.6701    4.5781   -0.3491 H         1 <0>         0.1277
     48 H15         5.1784    3.0400    3.6325 H         1 <0>         0.1336
     49 H16        10.0452    5.9275    3.8733 H         1 <0>         0.1809
     50 H17        10.7828    5.9001    1.4665 H         1 <0>         0.0723
     51 H18         9.7619    5.1312    0.2276 H         1 <0>         0.0687
@<TRIPOS>BOND
     1    1    6 ar
     2    1    2 ar
     3    1   34 1
     4    2    3 ar
     5    2   35 1
     6    3    4 ar
     7    3   19 1
     8    4    5 ar
     9    4   36 1
    10    5    6 ar
    11    5   37 1
    12    6    7 1
    13    7    8 1
    14    7   38 1
    15    7   39 1
    16    8    9 1
    17    9   14 ar
    18    9   10 ar
    19   10   11 ar
    20   10   40 1
    21   11   12 ar
    22   11   41 1
    23   12   13 ar
    24   12   15 1
    25   13   14 ar
    26   13   42 1
    27   14   43 1
    28   15   16 1
    29   15   17 1
    30   15   18 1
    31   19   20 1
    32   19   44 1
    33   19   45 1
    34   20   21 1
    35   21   26 ar
    36   21   22 ar
    37   22   23 ar
    38   22   46 1
    39   23   24 ar
    40   23   47 1
    41   24   29 1
    42   24   25 ar
    43   25   26 ar
    44   25   27 1
    45   26   48 1
    46   27   28 1
    47   28   29 2
    48   28   49 1
    49   29   30 1
    50   30   31 1
    51   30   50 1
    52   30   51 1
    53   31   32 2
    54   31   33 1
@<TRIPOS>MOLECULE
CHEMBL234801
   37    39     0     0     0
SMALL
USER_CHARGES

@<TRIPOS>ATOM
      1 C1         -0.0184    1.5028    0.0103 C.3       1 <0>        -0.0838
      2 C2          0.0021   -0.0041    0.0020 C.2       1 <0>         0.0828
      3 C3          0.0059   -0.7076   -1.1591 C.2       1 <0>        -0.1740
      4 S1          0.0324   -2.3789   -0.5312 S.3       1 <0>         0.2367
      5 C4          0.0357   -2.0088    1.1107 C.2       1 <0>        -0.0884
      6 N1          0.0226   -0.6992    1.1217 N.2       1 <0>        -0.4557
      7 C5          0.0549   -2.9548    2.2837 C.3       1 <0>         0.5714
      8 F1         -0.0641   -2.2264    3.4722 F         1 <0>        -0.1527
      9 F2         -1.0138   -3.8514    2.1772 F         1 <0>        -0.1612
     10 F3          1.2603   -3.6647    2.2905 F         1 <0>        -0.1602
     11 C6         -0.0083   -0.2146   -2.5831 C.3       1 <0>         0.1489
     12 O1          1.3344   -0.0400   -3.0402 O.3       1 <0>        -0.3123
     13 C7          1.4998    0.4035   -4.3150 C.ar      1 <0>         0.0821
     14 C8          0.3855    0.6702   -5.1066 C.ar      1 <0>        -0.1895
     15 C9          0.5350    1.1202   -6.3992 C.ar      1 <0>        -0.0740
     16 C10         1.8081    1.3125   -6.9257 C.ar      1 <0>         0.0901
     17 C11         2.9353    1.0440   -6.1290 C.ar      1 <0>        -0.0751
     18 C12         2.7716    0.5929   -4.8173 C.ar      1 <0>        -0.1066
     19 C13         4.1018    1.3423   -6.9633 C.2       1 <0>        -0.2335
     20 C14         3.6385    1.7527   -8.1546 C.2       1 <0>         0.0804
     21 N2          2.2705    1.7417   -8.1519 N.pl3     1 <0>        -0.4410
     22 C15         1.4234    2.1276   -9.2831 C.3       1 <0>         0.0313
     23 C16         1.0212    3.5729   -9.1395 C.2       1 <0>         0.4801
     24 O2          1.4066    4.2205   -8.1811 O.co2     1 <0>        -0.6713
     25 O3          0.3106    4.0945   -9.9817 O.co2     1 <0>        -0.6921
     26 H1          1.0042    1.8801    0.0026 H         1 <0>         0.0860
     27 H2         -0.5455    1.8639   -0.8728 H         1 <0>         0.0826
     28 H3         -0.5286    1.8543    0.9071 H         1 <0>         0.0802
     29 H4         -0.5152   -0.9438   -3.2150 H         1 <0>         0.0828
     30 H5         -0.5357    0.7380   -2.6326 H         1 <0>         0.0951
     31 H6         -0.6052    0.5224   -4.7029 H         1 <0>         0.1239
     32 H7         -0.3361    1.3236   -7.0044 H         1 <0>         0.1194
     33 H8          3.6349    0.3895   -4.2011 H         1 <0>         0.1240
     34 H9          5.1384    1.2502   -6.6745 H         1 <0>         0.1417
     35 H10         4.2545    2.0477   -8.9911 H         1 <0>         0.1611
     36 H11         1.9764    1.9950  -10.2130 H         1 <0>         0.0880
     37 H12         0.5309    1.5020   -9.2987 H         1 <0>         0.0827
@<TRIPOS>BOND
     1    1    2 1
     2    1   26 1
     3    1   27 1
     4    1   28 1
     5    2    6 1
     6    2    3 2
     7    3    4 1
     8    3   11 1
     9    4    5 1
    10    5    6 2
    11    5    7 1
    12    7    8 1
    13    7    9 1
    14    7   10 1
    15   11   12 1
    16   11   29 1
    17   11   30 1
    18   12   13 1
    19   13   18 ar
    20   13   14 ar
    21   14   15 ar
    22   14   31 1
    23   15   16 ar
    24   15   32 1
    25   16   21 1
    26   16   17 ar
    27   17   18 ar
    28   17   19 1
    29   18   33 1
    30   19   20 2
    31   19   34 1
    32   20   21 1
    33   20   35 1
    34   21   22 1
    35   22   23 1
    36   22   36 1
    37   22   37 1
    38   23   24 2
    39   23   25 1
@<TRIPOS>MOLECULE
CHEMBL214289
   52    54     0     0     0
SMALL
USER_CHARGES

@<TRIPOS>ATOM
      1 C1         -0.0126    1.4920   -0.2466 C.3       1 <0>        -0.0862
      2 C2          0.0048   -0.0090   -0.1134 C.2       1 <0>         0.0871
      3 C3         -1.0681   -0.8174   -0.1695 C.2       1 <0>        -0.2432
      4 C4         -0.6223   -2.1504   -0.0005 C.2       1 <0>         0.1818
      5 N1          0.6798   -2.1212    0.1508 N.2       1 <0>        -0.2987
      6 O1          1.0944   -0.7692    0.0758 O.3       1 <0>        -0.0827
      7 C5         -1.4763   -3.3641    0.0051 C.ar      1 <0>        -0.0621
      8 C6         -2.6316   -3.4028    0.7832 C.ar      1 <0>        -0.0775
      9 C7         -3.4224   -4.5336    0.7844 C.ar      1 <0>        -0.1131
     10 C8         -3.0704   -5.6285    0.0153 C.ar      1 <0>         0.0192
     11 C9         -1.9252   -5.5970   -0.7587 C.ar      1 <0>        -0.1028
     12 C10        -1.1289   -4.4678   -0.7726 C.ar      1 <0>         0.0102
     13 Cl1         0.3050   -4.4264   -1.7504 Cl        1 <0>        -0.0699
     14 C11        -3.9384   -6.8605    0.0216 C.3       1 <0>        -0.1646
     15 C12        -4.9777   -6.7483   -1.0638 C.2       1 <0>         0.4956
     16 O2         -5.0106   -5.7596   -1.7765 O.co2     1 <0>        -0.6694
     17 O3         -5.7857   -7.6462   -1.2293 O.co2     1 <0>        -0.7029
     18 C13        -2.4956   -0.3809   -0.3763 C.3       1 <0>         0.1347
     19 O4         -2.7532   -0.2416   -1.7750 O.3       1 <0>        -0.3707
     20 C14        -4.0864    0.1712   -2.0821 C.3       1 <0>         0.0614
     21 C15        -4.2478    0.2869   -3.5991 C.3       1 <0>         0.0518
     22 O5         -4.1056   -1.0049   -4.1932 O.3       1 <0>        -0.2544
     23 C16        -4.2223   -1.0785   -5.5452 C.ar      1 <0>         0.2294
     24 C17        -4.4628    0.0701   -6.2855 C.ar      1 <0>        -0.2178
     25 C18        -4.5805   -0.0072   -7.6596 C.ar      1 <0>         0.0117
     26 C19        -4.4588   -1.2281   -8.2975 C.ar      1 <0>        -0.2328
     27 C20        -4.2196   -2.3741   -7.5621 C.ar      1 <0>         0.0326
     28 C21        -4.0954   -2.3011   -6.1880 C.ar      1 <0>        -0.0857
     29 N2         -3.8332   -3.5275   -5.4019 N.pl3     1 <0>         0.0261
     30 O6         -3.7227   -4.5928   -5.9626 O.2       1 <0>        -0.1756
     31 O7         -3.7296   -3.4638   -4.1990 O.3       1 <0>        -0.0747
     32 C22        -4.5876   -1.3096   -9.7967 C.3       1 <0>         0.5202
     33 F1         -4.8264   -0.0320  -10.3144 F         1 <0>        -0.1747
     34 F2         -3.4031   -1.8188  -10.3396 F         1 <0>        -0.1719
     35 F3         -5.6530   -2.1536  -10.1280 F         1 <0>        -0.1710
     36 H1          1.0043    1.8758   -0.1651 H         1 <0>         0.0836
     37 H2         -0.4277    1.7660   -1.2165 H         1 <0>         0.0960
     38 H3         -0.6270    1.9200    0.5456 H         1 <0>         0.0932
     39 H4         -2.9074   -2.5492    1.3847 H         1 <0>         0.1265
     40 H5         -4.3180   -4.5642    1.3873 H         1 <0>         0.1282
     41 H6         -1.6548   -6.4548   -1.3566 H         1 <0>         0.1328
     42 H7         -3.3209   -7.7409   -0.1562 H         1 <0>         0.0731
     43 H8         -4.4319   -6.9522    0.9892 H         1 <0>         0.0731
     44 H9         -3.1685   -1.1280    0.0445 H         1 <0>         0.0714
     45 H10        -2.6586    0.5757    0.1202 H         1 <0>         0.0593
     46 H11        -4.7924   -0.5645   -1.6967 H         1 <0>         0.0736
     47 H12        -4.2824    1.1392   -1.6210 H         1 <0>         0.0758
     48 H13        -5.2353    0.6864   -3.8301 H         1 <0>         0.0877
     49 H14        -3.4836    0.9553   -3.9959 H         1 <0>         0.0797
     50 H15        -4.5583    1.0238   -5.7877 H         1 <0>         0.1609
     51 H16        -4.7680    0.8865   -8.2362 H         1 <0>         0.1575
     52 H17        -4.1253   -3.3264   -8.0626 H         1 <0>         0.1684
@<TRIPOS>BOND
     1    1    2 1
     2    1   36 1
     3    1   37 1
     4    1   38 1
     5    2    6 1
     6    2    3 2
     7    3    4 1
     8    3   18 1
     9    4    5 2
    10    4    7 1
    11    5    6 1
    12    7   12 ar
    13    7    8 ar
    14    8    9 ar
    15    8   39 1
    16    9   10 ar
    17    9   40 1
    18   10   11 ar
    19   10   14 1
    20   11   12 ar
    21   11   41 1
    22   12   13 1
    23   14   15 1
    24   14   42 1
    25   14   43 1
    26   15   16 2
    27   15   17 1
    28   18   19 1
    29   18   44 1
    30   18   45 1
    31   19   20 1
    32   20   21 1
    33   20   46 1
    34   20   47 1
    35   21   22 1
    36   21   48 1
    37   21   49 1
    38   22   23 1
    39   23   28 ar
    40   23   24 ar
    41   24   25 ar
    42   24   50 1
    43   25   26 ar
    44   25   51 1
    45   26   27 ar
    46   26   32 1
    47   27   28 ar
    48   27   52 1
    49   28   29 1
    50   29   30 2
    51   29   31 1
    52   32   33 1
    53   32   34 1
    54   32   35 1
@<TRIPOS>MOLECULE
CHEMBL485187
   66    70     0     0     0
SMALL
USER_CHARGES

@<TRIPOS>ATOM
      1 C1         -0.0187    1.5258    0.0104 C.3       1 <0>        -0.1420
      2 C2          0.0021   -0.0041    0.0020 C.3       1 <0>         0.0671
      3 O1         -1.3386   -0.4987    0.0122 O.3       1 <0>        -0.3586
      4 C3         -1.4321   -1.9246    0.0054 C.3       1 <0>         0.0315
      5 H1         -0.5629   -2.3481    0.5087 H         1 <0>         0.0484
      6 C4         -2.7050   -2.3557    0.7365 C.3       1 <0>        -0.0605
      7 C5         -2.6049   -1.9696    2.1898 C.ar      1 <0>        -0.0578
      8 C6         -2.1504   -2.8834    3.1196 C.ar      1 <0>        -0.0624
      9 C7         -2.0622   -2.5156    4.4548 C.ar      1 <0>        -0.2170
     10 C8         -2.4196   -1.2558    4.8740 C.ar      1 <0>         0.1596
     11 C9         -2.8905   -0.2935    3.9437 C.ar      1 <0>        -0.1209
     12 C10        -2.9615   -0.7004    2.5948 C.ar      1 <0>        -0.0615
     13 S1         -3.5709    0.7399    1.7566 S.3       1 <0>         0.0913
     14 C11        -3.7136    1.8347    3.1561 C.2       1 <0>        -0.1885
     15 C12        -3.3135    1.0778    4.1877 C.2       1 <0>        -0.1279
     16 O2         -2.3214   -0.9300    6.1894 O.3       1 <0>        -0.3119
     17 C13        -1.8408   -1.9436    7.0747 C.3       1 <0>         0.0659
     18 C14        -1.7995   -1.3957    8.5027 C.3       1 <0>        -0.0338
     19 C15        -1.2928   -2.4646    9.4364 C.2       1 <0>        -0.0065
     20 C16        -2.0454   -3.3729   10.0841 C.2       1 <0>        -0.0312
     21 O3         -1.2094   -4.1396   10.8119 O.3       1 <0>        -0.1929
     22 C17         0.0414   -3.6933   10.6020 C.2       1 <0>         0.2296
     23 N1         -0.0108   -2.6835    9.7649 N.2       1 <0>        -0.4579
     24 C18         1.2687   -4.2500   11.2067 C.ar      1 <0>        -0.0162
     25 C19         2.5120   -3.6870   10.9090 C.ar      1 <0>        -0.0650
     26 C20         3.6553   -4.2063   11.4735 C.ar      1 <0>        -0.1118
     27 C21         3.5725   -5.2945   12.3422 C.ar      1 <0>        -0.0255
     28 C22         2.3316   -5.8578   12.6399 C.ar      1 <0>        -0.1124
     29 C23         1.1864   -5.3362   12.0813 C.ar      1 <0>        -0.0850
     30 C24         4.8046   -5.8533   12.9492 C.ar      1 <0>        -0.0514
     31 C25         6.0458   -5.2896   12.6580 C.ar      1 <0>        -0.1067
     32 C26         7.1891   -5.8138   13.2259 C.ar      1 <0>        -0.1179
     33 C27         7.1051   -6.8970   14.0822 C.ar      1 <0>        -0.1160
     34 C28         5.8762   -7.4606   14.3749 C.ar      1 <0>        -0.1188
     35 C29         4.7255   -6.9408   13.8177 C.ar      1 <0>        -0.1077
     36 C30        -3.5445   -3.5073   10.0099 C.3       1 <0>        -0.0727
     37 C31        -1.4785   -2.4182   -1.4177 C.2       1 <0>         0.4787
     38 O4         -1.4355   -1.6227   -2.3406 O.co2     1 <0>        -0.6780
     39 O5         -1.5590   -3.6131   -1.6462 O.co2     1 <0>        -0.7008
     40 H2          1.0039    1.9031    0.0027 H         1 <0>         0.0573
     41 H3         -0.5459    1.8868   -0.8726 H         1 <0>         0.0627
     42 H4         -0.5289    1.8773    0.9072 H         1 <0>         0.0551
     43 H5          0.5123   -0.3556   -0.8948 H         1 <0>         0.0460
     44 H6          0.5293   -0.3651    0.8851 H         1 <0>         0.0264
     45 H7         -3.5668   -1.8615    0.2879 H         1 <0>         0.0736
     46 H8         -2.8227   -3.4363    0.6549 H         1 <0>         0.0928
     47 H9         -1.8656   -3.8781    2.8099 H         1 <0>         0.1354
     48 H10        -1.7062   -3.2332    5.1792 H         1 <0>         0.1265
     49 H11        -4.0508    2.8606    3.1709 H         1 <0>         0.1826
     50 H12        -3.2924    1.4855    5.1875 H         1 <0>         0.1303
     51 H13        -2.5066   -2.8057    7.0355 H         1 <0>         0.0629
     52 H14        -0.8380   -2.2448    6.7720 H         1 <0>         0.0669
     53 H15        -1.1338   -0.5336    8.5420 H         1 <0>         0.0946
     54 H16        -2.8024   -1.0945    8.8055 H         1 <0>         0.0926
     55 H17         2.5764   -2.8448   10.2358 H         1 <0>         0.1422
     56 H18         4.6166   -3.7711   11.2434 H         1 <0>         0.1358
     57 H19         2.2686   -6.7006   13.3123 H         1 <0>         0.1338
     58 H20         0.2253   -5.7694   12.3156 H         1 <0>         0.1332
     59 H21         6.1126   -4.4443   11.9890 H         1 <0>         0.1277
     60 H22         8.1513   -5.3779   13.0010 H         1 <0>         0.1256
     61 H23         8.0026   -7.3044   14.5238 H         1 <0>         0.1233
     62 H24         5.8166   -8.3061   15.0441 H         1 <0>         0.1250
     63 H25         3.7661   -7.3788   14.0504 H         1 <0>         0.1265
     64 H26        -3.8087   -4.1860    9.1989 H         1 <0>         0.0890
     65 H27        -3.9209   -3.9040   10.9528 H         1 <0>         0.0812
     66 H28        -3.9883   -2.5292    9.8243 H         1 <0>         0.0963
@<TRIPOS>BOND
     1    1    2 1
     2    1   40 1
     3    1   41 1
     4    1   42 1
     5    2    3 1
     6    2   43 1
     7    2   44 1
     8    3    4 1
     9    4    5 1
    10    4    6 1
    11    4   37 1
    12    6    7 1
    13    6   45 1
    14    6   46 1
    15    7   12 ar
    16    7    8 ar
    17    8    9 ar
    18    8   47 1
    19    9   10 ar
    20    9   48 1
    21   10   11 ar
    22   10   16 1
    23   11   15 1
    24   11   12 ar
    25   12   13 1
    26   13   14 1
    27   14   15 2
    28   14   49 1
    29   15   50 1
    30   16   17 1
    31   17   18 1
    32   17   51 1
    33   17   52 1
    34   18   19 1
    35   18   53 1
    36   18   54 1
    37   19   23 1
    38   19   20 2
    39   20   21 1
    40   20   36 1
    41   21   22 1
    42   22   23 2
    43   22   24 1
    44   24   29 ar
    45   24   25 ar
    46   25   26 ar
    47   25   55 1
    48   26   27 ar
    49   26   56 1
    50   27   28 ar
    51   27   30 1
    52   28   29 ar
    53   28   57 1
    54   29   58 1
    55   30   35 ar
    56   30   31 ar
    57   31   32 ar
    58   31   59 1
    59   32   33 ar
    60   32   60 1
    61   33   34 ar
    62   33   61 1
    63   34   35 ar
    64   34   62 1
    65   35   63 1
    66   36   64 1
    67   36   65 1
    68   36   66 1
    69   37   38 2
    70   37   39 1
@<TRIPOS>MOLECULE
CHEMBL179452
   62    65     0     0     0
SMALL
USER_CHARGES

@<TRIPOS>ATOM
      1 C1         -0.0187    1.5258    0.0104 C.3       1 <0>        -0.1534
      2 C2          0.0021   -0.0041    0.0020 C.3       1 <0>         0.0456
      3 C3         -1.4346   -0.5404    0.0397 C.3       1 <0>        -0.1325
      4 C4         -2.1423    0.0658    1.2540 C.3       1 <0>        -0.0713
      5 C5         -1.2689   -0.0778    2.4748 C.ar      1 <0>        -0.1984
      6 C6         -1.8483    0.0527    3.7266 C.ar      1 <0>        -0.0469
      7 C7         -1.0809   -0.0688    4.8672 C.ar      1 <0>        -0.2541
      8 C8          0.2797   -0.3223    4.7625 C.ar      1 <0>         0.1560
      9 C9          0.8618   -0.4546    3.5133 C.ar      1 <0>        -0.1922
     10 C10         0.0869   -0.3346    2.3649 C.ar      1 <0>         0.1873
     11 O1          0.6920   -0.4821    1.1575 O.3       1 <0>        -0.2743
     12 O2          1.0386   -0.4409    5.8836 O.3       1 <0>        -0.3111
     13 C11         0.3703   -0.2931    7.1381 C.3       1 <0>         0.0675
     14 C12         1.3796   -0.4576    8.2761 C.3       1 <0>        -0.1205
     15 C13         0.6642   -0.2993    9.6192 C.3       1 <0>         0.0640
     16 O3          1.6069   -0.4530   10.6821 O.3       1 <0>        -0.2995
     17 C14         1.1308   -0.3404   11.9502 C.ar      1 <0>         0.1388
     18 C15        -0.2167   -0.0931   12.1671 C.ar      1 <0>        -0.1957
     19 C16        -0.6985    0.0205   13.4569 C.ar      1 <0>        -0.0712
     20 C17         0.1612   -0.1117   14.5319 C.ar      1 <0>        -0.1040
     21 C18         1.5049   -0.3579   14.3194 C.ar      1 <0>        -0.0675
     22 C19         1.9912   -0.4786   13.0308 C.ar      1 <0>        -0.0667
     23 Cl1         3.6772   -0.7948   12.7642 Cl        1 <0>        -0.0551
     24 C20        -0.3675    0.0132   15.9376 C.3       1 <0>        -0.0410
     25 C21        -0.1047   -1.2878   16.6988 C.3       1 <0>        -0.1126
     26 C22        -0.6414   -1.1609   18.1259 C.3       1 <0>        -0.1199
     27 C23         0.0643   -0.0035   18.8352 C.3       1 <0>        -0.1215
     28 C24        -0.1985    1.2974   18.0740 C.3       1 <0>        -0.1199
     29 C25         0.3383    1.1706   16.6469 C.3       1 <0>        -0.1126
     30 C26         0.6955   -0.4953   -1.2425 C.2       1 <0>         0.5158
     31 O4          1.6969   -1.1847   -1.1506 O.co2     1 <0>        -0.6697
     32 O5          0.2551   -0.2034   -2.3413 O.co2     1 <0>        -0.6806
     33 H1          1.0039    1.9031    0.0027 H         1 <0>         0.0572
     34 H2         -0.5459    1.8868   -0.8726 H         1 <0>         0.0748
     35 H3         -0.5289    1.8773    0.9072 H         1 <0>         0.0504
     36 H4         -1.9582   -0.2529   -0.8721 H         1 <0>         0.0875
     37 H5         -1.4190   -1.6267    0.1280 H         1 <0>         0.0679
     38 H6         -2.3376    1.1223    1.0700 H         1 <0>         0.0734
     39 H7         -3.0862   -0.4533    1.4203 H         1 <0>         0.0720
     40 H8         -2.9067    0.2504    3.8102 H         1 <0>         0.1215
     41 H9         -1.5386    0.0336    5.8400 H         1 <0>         0.1216
     42 H10         1.9205   -0.6513    3.4305 H         1 <0>         0.1364
     43 H11        -0.0823    0.6969    7.1942 H         1 <0>         0.0643
     44 H12        -0.4058   -1.0531    7.2280 H         1 <0>         0.0645
     45 H13         1.8323   -1.4476    8.2200 H         1 <0>         0.0882
     46 H14         2.1558    0.3024    8.1861 H         1 <0>         0.0880
     47 H15         0.2115    0.6906    9.6753 H         1 <0>         0.0682
     48 H16        -0.1120   -1.0593    9.7092 H         1 <0>         0.0683
     49 H17        -0.8888    0.0111   11.3281 H         1 <0>         0.1373
     50 H18        -1.7476    0.2131   13.6258 H         1 <0>         0.1304
     51 H19         2.1744   -0.4600   15.1606 H         1 <0>         0.1374
     52 H20        -1.4399    0.2058   15.9066 H         1 <0>         0.0796
     53 H21        -0.6075   -2.1123   16.1934 H         1 <0>         0.0641
     54 H22         0.9677   -1.4803   16.7297 H         1 <0>         0.0645
     55 H23        -1.7138   -0.9683   18.0950 H         1 <0>         0.0619
     56 H24        -0.4542   -2.0877   18.6682 H         1 <0>         0.0625
     57 H25        -0.3181    0.0868   19.8520 H         1 <0>         0.0605
     58 H26         1.1367   -0.1961   18.8662 H         1 <0>         0.0617
     59 H27        -1.2709    1.4900   18.0431 H         1 <0>         0.0619
     60 H28         0.3043    2.1220   18.5794 H         1 <0>         0.0625
     61 H29         1.4107    0.9780   16.6778 H         1 <0>         0.0645
     62 H30         0.1511    2.0974   16.1046 H         1 <0>         0.0641
@<TRIPOS>BOND
     1    1    2 1
     2    1   33 1
     3    1   34 1
     4    1   35 1
     5    2   11 1
     6    2    3 1
     7    2   30 1
     8    3    4 1
     9    3   36 1
    10    3   37 1
    11    4    5 1
    12    4   38 1
    13    4   39 1
    14    5   10 ar
    15    5    6 ar
    16    6    7 ar
    17    6   40 1
    18    7    8 ar
    19    7   41 1
    20    8    9 ar
    21    8   12 1
    22    9   10 ar
    23    9   42 1
    24   10   11 1
    25   12   13 1
    26   13   14 1
    27   13   43 1
    28   13   44 1
    29   14   15 1
    30   14   45 1
    31   14   46 1
    32   15   16 1
    33   15   47 1
    34   15   48 1
    35   16   17 1
    36   17   22 ar
    37   17   18 ar
    38   18   19 ar
    39   18   49 1
    40   19   20 ar
    41   19   50 1
    42   20   21 ar
    43   20   24 1
    44   21   22 ar
    45   21   51 1
    46   22   23 1
    47   24   29 1
    48   24   25 1
    49   24   52 1
    50   25   26 1
    51   25   53 1
    52   25   54 1
    53   26   27 1
    54   26   55 1
    55   26   56 1
    56   27   28 1
    57   27   57 1
    58   27   58 1
    59   28   29 1
    60   28   59 1
    61   28   60 1
    62   29   61 1
    63   29   62 1
    64   30   31 2
    65   30   32 1
@<TRIPOS>MOLECULE
CHEMBL256142
   68    71     0     0     0
SMALL
USER_CHARGES

@<TRIPOS>ATOM
      1 C1          0.6315    1.6554    0.1752 C.3       1 <0>        -0.1483
      2 C2          0.5098    0.1305    0.1457 C.3       1 <0>        -0.1241
      3 C3          1.1990   -0.4600    1.3775 C.3       1 <0>         0.0828
      4 O1          1.0854   -1.8842    1.3499 O.3       1 <0>        -0.3595
      5 C4          1.6437   -2.5619    2.3708 C.2       1 <0>         0.6514
      6 O2          2.2119   -1.9604    3.2607 O.2       1 <0>        -0.5728
      7 N1          1.5724   -3.9073    2.4056 N.am      1 <0>        -0.5235
      8 C5          2.1723   -4.6596    3.5174 C.3       1 <0>         0.1215
      9 C6          1.1721   -5.7462    3.9374 C.3       1 <0>        -0.1148
     10 C7          0.9336   -6.6761    2.7456 C.3       1 <0>        -0.1242
     11 C8          0.6185   -5.8761    1.5141 C.2       1 <0>        -0.0946
     12 C9          0.9242   -4.6088    1.3920 C.2       1 <0>         0.0344
     13 C10        -0.0857   -6.5609    0.3712 C.3       1 <0>        -0.0389
     14 C11         0.9306   -7.2389   -0.5111 C.ar      1 <0>        -0.0262
     15 C12         1.4961   -6.5504   -1.5687 C.ar      1 <0>        -0.1537
     16 C13         2.4286   -7.1696   -2.3800 C.ar      1 <0>        -0.0871
     17 C14         2.7976   -8.4785   -2.1361 C.ar      1 <0>        -0.2191
     18 C15         2.2318   -9.1713   -1.0759 C.ar      1 <0>         0.1292
     19 C16         1.3005   -8.5456   -0.2594 C.ar      1 <0>        -0.1324
     20 O3          2.5931  -10.4588   -0.8339 O.3       1 <0>        -0.3091
     21 C17         3.5614  -11.0368   -1.7115 C.3       1 <0>         0.0694
     22 C18         3.8394  -12.4797   -1.2850 C.3       1 <0>        -0.0376
     23 C19         4.8606  -13.0892   -2.2106 C.2       1 <0>        -0.0032
     24 C20         4.5998  -13.7516   -3.3523 C.2       1 <0>        -0.0334
     25 O4          5.7831  -14.1310   -3.8741 O.3       1 <0>        -0.1943
     26 C21         6.7514  -13.6978   -3.0483 C.2       1 <0>         0.2263
     27 N2          6.1917  -13.0628   -2.0456 N.2       1 <0>        -0.4573
     28 C22         8.2033  -13.8983   -3.2406 C.ar      1 <0>        -0.0155
     29 C23         9.1097  -13.4020   -2.3024 C.ar      1 <0>        -0.0708
     30 C24        10.4634  -13.5929   -2.4875 C.ar      1 <0>        -0.1204
     31 C25        10.9232  -14.2746   -3.6002 C.ar      1 <0>        -0.1021
     32 C26        10.0300  -14.7691   -4.5341 C.ar      1 <0>        -0.1217
     33 C27         8.6735  -14.5897   -4.3581 C.ar      1 <0>        -0.0912
     34 C28         3.2376  -14.0199   -3.9384 C.3       1 <0>        -0.0721
     35 C29        -0.2212   -7.5944    3.0528 C.2       1 <0>         0.5085
     36 O5         -1.3206   -7.1293    3.3005 O.co2     1 <0>        -0.6912
     37 O6         -0.0559   -8.8023    3.0535 O.co2     1 <0>        -0.6937
     38 H1          1.6847    1.9360    0.1718 H         1 <0>         0.0572
     39 H2          0.1405    2.0761   -0.7023 H         1 <0>         0.0638
     40 H3          0.1559    2.0404    1.0772 H         1 <0>         0.0581
     41 H4         -0.5434   -0.1501    0.1492 H         1 <0>         0.0750
     42 H5          0.9855   -0.2545   -0.7563 H         1 <0>         0.0734
     43 H6          2.2523   -0.1794    1.3740 H         1 <0>         0.0654
     44 H7          0.7234   -0.0750    2.2795 H         1 <0>         0.0666
     45 H8          3.1043   -5.1212    3.1911 H         1 <0>         0.0732
     46 H9          2.3643   -3.9900    4.3558 H         1 <0>         0.0929
     47 H10         1.5807   -6.3173    4.7711 H         1 <0>         0.0773
     48 H11         0.2312   -5.2827    4.2340 H         1 <0>         0.0775
     49 H12         1.8285   -7.2728    2.5689 H         1 <0>         0.0745
     50 H13         0.6699   -4.0944    0.4770 H         1 <0>         0.1391
     51 H14        -0.7788   -7.3044    0.7648 H         1 <0>         0.0974
     52 H15        -0.6370   -5.8223   -0.2107 H         1 <0>         0.0750
     53 H16         1.2085   -5.5274   -1.7615 H         1 <0>         0.1192
     54 H17         2.8689   -6.6297   -3.2053 H         1 <0>         0.1179
     55 H18         3.5256   -8.9620   -2.7706 H         1 <0>         0.1188
     56 H19         0.8621   -9.0813    0.5696 H         1 <0>         0.1471
     57 H20         3.1786  -11.0269   -2.7320 H         1 <0>         0.0589
     58 H21         4.4849  -10.4597   -1.6643 H         1 <0>         0.0630
     59 H22         4.2222  -12.4895   -0.2645 H         1 <0>         0.0970
     60 H23         2.9159  -13.0568   -1.3323 H         1 <0>         0.0946
     61 H24         8.7521  -12.8694   -1.4336 H         1 <0>         0.1396
     62 H25        11.1658  -13.2091   -1.7625 H         1 <0>         0.1326
     63 H26        11.9839  -14.4211   -3.7407 H         1 <0>         0.1280
     64 H27        10.3954  -15.3001   -5.4007 H         1 <0>         0.1301
     65 H28         7.9771  -14.9801   -5.0855 H         1 <0>         0.1298
     66 H29         2.9608  -13.2019   -4.6036 H         1 <0>         0.0877
     67 H30         3.2615  -14.9533   -4.5008 H         1 <0>         0.0805
     68 H31         2.5053  -14.0984   -3.1349 H         1 <0>         0.0979
@<TRIPOS>BOND
     1    1    2 1
     2    1   38 1
     3    1   39 1
     4    1   40 1
     5    2    3 1
     6    2   41 1
     7    2   42 1
     8    3    4 1
     9    3   43 1
    10    3   44 1
    11    4    5 1
    12    5    6 2
    13    5    7 am
    14    7   12 1
    15    7    8 1
    16    8    9 1
    17    8   45 1
    18    8   46 1
    19    9   10 1
    20    9   47 1
    21    9   48 1
    22   10   11 1
    23   10   35 1
    24   10   49 1
    25   11   12 2
    26   11   13 1
    27   12   50 1
    28   13   14 1
    29   13   51 1
    30   13   52 1
    31   14   19 ar
    32   14   15 ar
    33   15   16 ar
    34   15   53 1
    35   16   17 ar
    36   16   54 1
    37   17   18 ar
    38   17   55 1
    39   18   19 ar
    40   18   20 1
    41   19   56 1
    42   20   21 1
    43   21   22 1
    44   21   57 1
    45   21   58 1
    46   22   23 1
    47   22   59 1
    48   22   60 1
    49   23   27 1
    50   23   24 2
    51   24   25 1
    52   24   34 1
    53   25   26 1
    54   26   27 2
    55   26   28 1
    56   28   33 ar
    57   28   29 ar
    58   29   30 ar
    59   29   61 1
    60   30   31 ar
    61   30   62 1
    62   31   32 ar
    63   31   63 1
    64   32   33 ar
    65   32   64 1
    66   33   65 1
    67   34   66 1
    68   34   67 1
    69   34   68 1
    70   35   36 2
    71   35   37 1
@<TRIPOS>MOLECULE
CHEMBL256142__1
   68    71     0     0     0
SMALL
USER_CHARGES

@<TRIPOS>ATOM
      1 C1          4.7686  -12.1674   -0.4751 C.3       1 <0>        -0.1481
      2 C2          4.2371  -10.7481   -0.6843 C.3       1 <0>        -0.1243
      3 C3          3.9195  -10.1173    0.6730 C.3       1 <0>         0.0830
      4 O1          3.4230   -8.7916    0.4777 O.3       1 <0>        -0.3591
      5 C4          3.0939   -8.0933    1.5809 C.2       1 <0>         0.6517
      6 O2          3.2246   -8.5959    2.6795 O.2       1 <0>        -0.5729
      7 N1          2.6194   -6.8370    1.4668 N.am      1 <0>        -0.5240
      8 C5          2.2619   -6.0609    2.6633 C.3       1 <0>         0.1214
      9 C6          0.9264   -5.3581    2.3804 C.3       1 <0>        -0.1147
     10 C7          1.1126   -4.4204    1.1855 C.3       1 <0>        -0.1232
     11 C8          1.7729   -5.1475    0.0492 C.2       1 <0>        -0.0965
     12 C9          2.4648   -6.2493    0.2136 C.2       1 <0>         0.0359
     13 C10         1.6396   -4.5825   -1.3415 C.3       1 <0>        -0.0384
     14 C11         2.7111   -3.5472   -1.5680 C.ar      1 <0>        -0.0264
     15 C12         2.5058   -2.2407   -1.1640 C.ar      1 <0>        -0.1373
     16 C13         3.4867   -1.2887   -1.3703 C.ar      1 <0>        -0.0818
     17 C14         4.6749   -1.6405   -1.9814 C.ar      1 <0>        -0.2172
     18 C15         4.8832   -2.9504   -2.3876 C.ar      1 <0>         0.1209
     19 C16         3.8995   -3.9054   -2.1739 C.ar      1 <0>        -0.1479
     20 O3          6.0511   -3.2990   -2.9888 O.3       1 <0>        -0.3165
     21 C17         7.0207   -2.2652   -3.1710 C.3       1 <0>         0.0693
     22 C18         8.2593   -2.8432   -3.8586 C.3       1 <0>        -0.0349
     23 C19         9.2819   -1.7531   -4.0508 C.2       1 <0>        -0.0058
     24 C20         9.3858   -0.9437   -5.1205 C.2       1 <0>        -0.0327
     25 O4         10.4248   -0.1152   -4.8961 O.3       1 <0>        -0.1935
     26 C21        10.9433   -0.4261   -3.6955 C.2       1 <0>         0.2288
     27 N2         10.2470   -1.4133   -3.1831 N.2       1 <0>        -0.4585
     28 C22        12.1002    0.2367   -3.0570 C.ar      1 <0>        -0.0170
     29 C23        12.5466   -0.1862   -1.8041 C.ar      1 <0>        -0.0706
     30 C24        13.6272    0.4363   -1.2140 C.ar      1 <0>        -0.1204
     31 C25        14.2679    1.4777   -1.8615 C.ar      1 <0>        -0.1012
     32 C26        13.8304    1.9018   -3.1036 C.ar      1 <0>        -0.1213
     33 C27        12.7543    1.2843   -3.7071 C.ar      1 <0>        -0.0907
     34 C28         8.5043   -0.9608   -6.3428 C.3       1 <0>        -0.0722
     35 C29        -0.2329   -3.9110    0.7369 C.2       1 <0>         0.5087
     36 O5         -0.4583   -2.7129    0.7253 O.co2     1 <0>        -0.6961
     37 O6         -1.0962   -4.6971    0.3855 O.co2     1 <0>        -0.6901
     38 H1          4.0148  -12.7660    0.0363 H         1 <0>         0.0579
     39 H2          4.9949  -12.6168   -1.4421 H         1 <0>         0.0638
     40 H3          5.6749  -12.1306    0.1294 H         1 <0>         0.0572
     41 H4          4.9909  -10.1494   -1.1957 H         1 <0>         0.0738
     42 H5          3.3308  -10.7849   -1.2888 H         1 <0>         0.0750
     43 H6          3.1657  -10.7159    1.1844 H         1 <0>         0.0665
     44 H7          4.8258  -10.0804    1.2775 H         1 <0>         0.0654
     45 H8          2.1545   -6.7284    3.5184 H         1 <0>         0.0932
     46 H9          3.0341   -5.3191    2.8672 H         1 <0>         0.0729
     47 H10         0.1639   -6.1013    2.1471 H         1 <0>         0.0778
     48 H11         0.6239   -4.7815    3.2545 H         1 <0>         0.0770
     49 H12         1.7341   -3.5759    1.4831 H         1 <0>         0.0744
     50 H13         2.9234   -6.7162   -0.6456 H         1 <0>         0.1399
     51 H14         1.7491   -5.3845   -2.0716 H         1 <0>         0.0737
     52 H15         0.6586   -4.1206   -1.4536 H         1 <0>         0.0985
     53 H16         1.5774   -1.9636   -0.6868 H         1 <0>         0.1424
     54 H17         3.3240   -0.2690   -1.0538 H         1 <0>         0.1215
     55 H18         5.4406   -0.8963   -2.1430 H         1 <0>         0.1186
     56 H19         4.0613   -4.9269   -2.4849 H         1 <0>         0.1261
     57 H20         6.5970   -1.4747   -3.7904 H         1 <0>         0.0602
     58 H21         7.3017   -1.8555   -2.2008 H         1 <0>         0.0639
     59 H22         8.6830   -3.6338   -3.2393 H         1 <0>         0.0944
     60 H23         7.9783   -3.2530   -4.8288 H         1 <0>         0.0927
     61 H24        12.0471   -0.9988   -1.2975 H         1 <0>         0.1391
     62 H25        13.9734    0.1102   -0.2444 H         1 <0>         0.1328
     63 H26        15.1131    1.9619   -1.3950 H         1 <0>         0.1284
     64 H27        14.3347    2.7155   -3.6036 H         1 <0>         0.1306
     65 H28        12.4165    1.6134   -4.6787 H         1 <0>         0.1300
     66 H29         7.6577   -0.2915   -6.1895 H         1 <0>         0.0886
     67 H30         9.0774   -0.6293   -7.2087 H         1 <0>         0.0809
     68 H31         8.1403   -1.9738   -6.5141 H         1 <0>         0.0967
@<TRIPOS>BOND
     1    1    2 1
     2    1   38 1
     3    1   39 1
     4    1   40 1
     5    2    3 1
     6    2   41 1
     7    2   42 1
     8    3    4 1
     9    3   43 1
    10    3   44 1
    11    4    5 1
    12    5    6 2
    13    5    7 am
    14    7   12 1
    15    7    8 1
    16    8    9 1
    17    8   45 1
    18    8   46 1
    19    9   10 1
    20    9   47 1
    21    9   48 1
    22   10   11 1
    23   10   35 1
    24   10   49 1
    25   11   12 2
    26   11   13 1
    27   12   50 1
    28   13   14 1
    29   13   51 1
    30   13   52 1
    31   14   19 ar
    32   14   15 ar
    33   15   16 ar
    34   15   53 1
    35   16   17 ar
    36   16   54 1
    37   17   18 ar
    38   17   55 1
    39   18   19 ar
    40   18   20 1
    41   19   56 1
    42   20   21 1
    43   21   22 1
    44   21   57 1
    45   21   58 1
    46   22   23 1
    47   22   59 1
    48   22   60 1
    49   23   27 1
    50   23   24 2
    51   24   25 1
    52   24   34 1
    53   25   26 1
    54   26   27 2
    55   26   28 1
    56   28   33 ar
    57   28   29 ar
    58   29   30 ar
    59   29   61 1
    60   30   31 ar
    61   30   62 1
    62   31   32 ar
    63   31   63 1
    64   32   33 ar
    65   32   64 1
    66   33   65 1
    67   34   66 1
    68   34   67 1
    69   34   68 1
    70   35   36 2
    71   35   37 1
@<TRIPOS>MOLECULE
CHEMBL572795
   45    47     0     0     0
SMALL
USER_CHARGES

@<TRIPOS>ATOM
      1 C1          2.9229    1.4553   -0.6046 C.ar      1 <0>        -0.1330
      2 C2          4.1233    2.0336   -0.2369 C.ar      1 <0>        -0.1226
      3 C3          5.1868    1.2365    0.1433 C.ar      1 <0>        -0.1193
      4 C4          5.0496   -0.1390    0.1561 C.ar      1 <0>        -0.0689
      5 C5          3.8489   -0.7173   -0.2108 C.ar      1 <0>        -0.1032
      6 C6          2.7858    0.0798   -0.5923 C.ar      1 <0>        -0.1226
      7 C7          6.2093   -1.0080    0.5696 C.3       1 <0>        -0.0637
      8 C8          6.1559   -1.2449    2.0802 C.3       1 <0>         0.0235
      9 C9          7.3803   -2.0099    2.5123 C.2       1 <0>         0.4811
     10 O1          8.4840   -1.5018    2.4107 O.co2     1 <0>        -0.6899
     11 O2          7.2672   -3.1369    2.9635 O.co2     1 <0>        -0.6705
     12 O3          4.9852   -1.9979    2.4032 O.3       1 <0>        -0.2901
     13 C10         4.5197   -1.8987    3.6757 C.ar      1 <0>         0.1813
     14 C11         5.1393   -1.0400    4.5746 C.ar      1 <0>        -0.2056
     15 C12         4.6705   -0.9357    5.8661 C.ar      1 <0>        -0.0460
     16 C13         3.5695   -1.6958    6.2711 C.ar      1 <0>        -0.1320
     17 C14         2.9493   -2.5586    5.3629 C.ar      1 <0>        -0.0696
     18 C15         3.4221   -2.6522    4.0720 C.ar      1 <0>        -0.1696
     19 C16         3.0647   -1.5883    7.6512 C.2       1 <0>        -0.0753
     20 C17         2.9990   -0.3885    8.2505 C.2       1 <0>        -0.1385
     21 C18         3.2342    0.8392    7.4696 C.ar      1 <0>        -0.0478
     22 C19         2.7129    0.9608    6.1788 C.ar      1 <0>        -0.0918
     23 C20         2.9367    2.1128    5.4542 C.ar      1 <0>        -0.1185
     24 C21         3.6757    3.1464    6.0023 C.ar      1 <0>        -0.1231
     25 C22         4.1954    3.0329    7.2797 C.ar      1 <0>        -0.1239
     26 C23         3.9746    1.8895    8.0186 C.ar      1 <0>        -0.1194
     27 H1          2.0906    2.0782   -0.8973 H         1 <0>         0.1149
     28 H2          4.2305    3.1083   -0.2469 H         1 <0>         0.1167
     29 H3          6.1249    1.6883    0.4299 H         1 <0>         0.1207
     30 H4          3.7418   -1.7919   -0.2011 H         1 <0>         0.1223
     31 H5          1.8478   -0.3720   -0.8793 H         1 <0>         0.1168
     32 H6          6.1503   -1.9642    0.0496 H         1 <0>         0.0782
     33 H7          7.1451   -0.5117    0.3125 H         1 <0>         0.0958
     34 H8          6.1253   -0.2859    2.5975 H         1 <0>         0.0669
     35 H9          5.9901   -0.4534    4.2608 H         1 <0>         0.1249
     36 H10         5.1531   -0.2680    6.5644 H         1 <0>         0.1167
     37 H11         2.0986   -3.1481    5.6714 H         1 <0>         0.1222
     38 H12         2.9410   -3.3154    3.3684 H         1 <0>         0.1244
     39 H13         2.7474   -2.4745    8.1807 H         1 <0>         0.1210
     40 H14         2.7739   -0.3230    9.3047 H         1 <0>         0.1219
     41 H15         2.1366    0.1546    5.7495 H         1 <0>         0.1233
     42 H16         2.5345    2.2083    4.4564 H         1 <0>         0.1182
     43 H17         3.8480    4.0460    5.4301 H         1 <0>         0.1167
     44 H18         4.7718    3.8434    7.7008 H         1 <0>         0.1179
     45 H19         4.3767    1.8042    9.0173 H         1 <0>         0.1193
@<TRIPOS>BOND
     1    1    6 ar
     2    1    2 ar
     3    1   27 1
     4    2    3 ar
     5    2   28 1
     6    3    4 ar
     7    3   29 1
     8    4    5 ar
     9    4    7 1
    10    5    6 ar
    11    5   30 1
    12    6   31 1
    13    7    8 1
    14    7   32 1
    15    7   33 1
    16    8    9 1
    17    8   12 1
    18    8   34 1
    19    9   10 2
    20    9   11 1
    21   12   13 1
    22   13   18 ar
    23   13   14 ar
    24   14   15 ar
    25   14   35 1
    26   15   16 ar
    27   15   36 1
    28   16   17 ar
    29   16   19 1
    30   17   18 ar
    31   17   37 1
    32   18   38 1
    33   19   20 2
    34   19   39 1
    35   20   21 1
    36   20   40 1
    37   21   26 ar
    38   21   22 ar
    39   22   23 ar
    40   22   41 1
    41   23   24 ar
    42   23   42 1
    43   24   25 ar
    44   24   43 1
    45   25   26 ar
    46   25   44 1
    47   26   45 1
@<TRIPOS>MOLECULE
CHEMBL572795__1
   45    47     0     0     0
SMALL
USER_CHARGES

@<TRIPOS>ATOM
      1 C1          2.6088    3.0083   -0.4151 C.ar      1 <0>        -0.1329
      2 C2          3.8163    3.4936    0.0511 C.ar      1 <0>        -0.1215
      3 C3          4.8697    2.6267    0.2743 C.ar      1 <0>        -0.1033
      4 C4          4.7154    1.2746    0.0319 C.ar      1 <0>        -0.0695
      5 C5          3.5076    0.7892   -0.4335 C.ar      1 <0>        -0.1197
      6 C6          2.4547    1.6562   -0.6581 C.ar      1 <0>        -0.1226
      7 C7          5.8641    0.3297    0.2743 C.3       1 <0>        -0.0668
      8 C8          5.8075   -0.1828    1.7148 C.3       1 <0>         0.0224
      9 C9          6.8813   -1.2198    1.9215 C.2       1 <0>         0.4831
     10 O1          7.7967   -1.0032    2.6972 O.co2     1 <0>        -0.6708
     11 O2          6.8347   -2.2753    1.3131 O.co2     1 <0>        -0.6899
     12 O3          6.0169    0.9059    2.6164 O.3       1 <0>        -0.2864
     13 C10         5.3674    0.8532    3.8084 C.ar      1 <0>         0.1768
     14 C11         4.6423   -0.2806    4.1521 C.ar      1 <0>        -0.2122
     15 C12         3.9823   -0.3390    5.3603 C.ar      1 <0>        -0.0637
     16 C13         4.0433    0.7452    6.2406 C.ar      1 <0>        -0.1315
     17 C14         4.7743    1.8840    5.8902 C.ar      1 <0>        -0.0519
     18 C15         5.4353    1.9309    4.6821 C.ar      1 <0>        -0.1663
     19 C16         3.3389    0.6879    7.5334 C.2       1 <0>        -0.0743
     20 C17         2.6931    1.7711    7.9947 C.2       1 <0>        -0.1398
     21 C18         2.5080    2.9453    7.1234 C.ar      1 <0>        -0.0467
     22 C19         2.1807    2.7748    5.7756 C.ar      1 <0>        -0.0909
     23 C20         2.0086    3.8784    4.9664 C.ar      1 <0>        -0.1168
     24 C21         2.1597    5.1519    5.4861 C.ar      1 <0>        -0.1236
     25 C22         2.4842    5.3285    6.8197 C.ar      1 <0>        -0.1247
     26 C23         2.6533    4.2346    7.6424 C.ar      1 <0>        -0.1200
     27 H1          1.7844    3.6850   -0.5853 H         1 <0>         0.1148
     28 H2          3.9368    4.5500    0.2405 H         1 <0>         0.1166
     29 H3          5.8133    3.0060    0.6379 H         1 <0>         0.1220
     30 H4          3.3872   -0.2671   -0.6232 H         1 <0>         0.1208
     31 H5          1.5112    1.2771   -1.0220 H         1 <0>         0.1167
     32 H6          5.7933   -0.5124   -0.4141 H         1 <0>         0.0954
     33 H7          6.8060    0.8536    0.1118 H         1 <0>         0.0781
     34 H8          4.8309   -0.6285    1.9038 H         1 <0>         0.0700
     35 H9          4.5954   -1.1176    3.4712 H         1 <0>         0.1282
     36 H10         3.4184   -1.2208    5.6266 H         1 <0>         0.1193
     37 H11         4.8240    2.7242    6.5670 H         1 <0>         0.1209
     38 H12         6.0037    2.8087    4.4123 H         1 <0>         0.1234
     39 H13         3.3420   -0.2252    8.1101 H         1 <0>         0.1212
     40 H14         2.3093    1.7818    9.0041 H         1 <0>         0.1219
     41 H15         2.0631    1.7814    5.3685 H         1 <0>         0.1229
     42 H16         1.7556    3.7482    3.9246 H         1 <0>         0.1187
     43 H17         2.0240    6.0124    4.8476 H         1 <0>         0.1164
     44 H18         2.6013    6.3255    7.2182 H         1 <0>         0.1173
     45 H19         2.9018    4.3739    8.6841 H         1 <0>         0.1190
@<TRIPOS>BOND
     1    1    6 ar
     2    1    2 ar
     3    1   27 1
     4    2    3 ar
     5    2   28 1
     6    3    4 ar
     7    3   29 1
     8    4    5 ar
     9    4    7 1
    10    5    6 ar
    11    5   30 1
    12    6   31 1
    13    7    8 1
    14    7   32 1
    15    7   33 1
    16    8    9 1
    17    8   12 1
    18    8   34 1
    19    9   10 2
    20    9   11 1
    21   12   13 1
    22   13   18 ar
    23   13   14 ar
    24   14   15 ar
    25   14   35 1
    26   15   16 ar
    27   15   36 1
    28   16   17 ar
    29   16   19 1
    30   17   18 ar
    31   17   37 1
    32   18   38 1
    33   19   20 2
    34   19   39 1
    35   20   21 1
    36   20   40 1
    37   21   26 ar
    38   21   22 ar
    39   22   23 ar
    40   22   41 1
    41   23   24 ar
    42   23   42 1
    43   24   25 ar
    44   24   43 1
    45   25   26 ar
    46   25   44 1
    47   26   45 1
@<TRIPOS>MOLECULE
CHEMBL1090212
   61    64     0     0     0
SMALL
USER_CHARGES

@<TRIPOS>ATOM
      1 C1          0.0636    1.5033    0.0008 C.3       1 <0>        -0.1102
      2 C2          0.0621   -0.0037   -0.0050 C.ar      1 <0>        -0.0966
      3 C3          1.2238   -0.6961    0.2828 C.ar      1 <0>        -0.1053
      4 C4          1.2250   -2.0775    0.2781 C.ar      1 <0>        -0.1137
      5 C5          0.0593   -2.7700   -0.0151 C.ar      1 <0>         0.1161
      6 C6         -1.1051   -2.0730   -0.3030 C.ar      1 <0>        -0.1186
      7 C7         -1.1023   -0.6916   -0.2923 C.ar      1 <0>        -0.1094
      8 O1          0.0580   -4.1294   -0.0207 O.3       1 <0>        -0.3025
      9 C8          0.1763   -4.7666    1.1599 C.2       1 <0>         0.6614
     10 O2          0.1716   -4.1319    2.1961 O.2       1 <0>        -0.5756
     11 N1          0.2999   -6.1083    1.1920 N.am      1 <0>        -0.5507
     12 C9          0.4286   -6.8015    2.4762 C.3       1 <0>         0.1774
     13 C10        -0.9405   -7.1677    2.9887 C.ar      1 <0>        -0.0631
     14 C11        -1.6365   -6.2834    3.7924 C.ar      1 <0>        -0.1265
     15 C12        -2.8926   -6.6163    4.2642 C.ar      1 <0>        -0.0858
     16 C13        -3.4555   -7.8342    3.9341 C.ar      1 <0>        -0.2082
     17 C14        -2.7593   -8.7229    3.1281 C.ar      1 <0>         0.1205
     18 C15        -1.5013   -8.3839    2.6508 C.ar      1 <0>        -0.1288
     19 O3         -3.3108   -9.9214    2.8019 O.3       1 <0>        -0.3082
     20 C16        -4.6113  -10.2007    3.3241 C.3       1 <0>         0.1547
     21 C17        -5.0567  -11.5637    2.8604 C.2       1 <0>        -0.1837
     22 C18        -4.8846  -12.7787    3.4452 C.2       1 <0>         0.0886
     23 N2         -5.3583  -13.8566    2.8655 N.2       1 <0>        -0.4925
     24 C19        -6.0072  -13.7887    1.7115 C.2       1 <0>         0.1510
     25 S1         -5.9650  -12.0300    1.3920 S.3       1 <0>         0.0458
     26 C20        -6.6090  -14.8743    0.9080 C.ar      1 <0>        -0.0103
     27 C21        -7.2498  -14.5815   -0.2967 C.ar      1 <0>        -0.0782
     28 C22        -7.8094  -15.5984   -1.0420 C.ar      1 <0>        -0.1073
     29 C23        -7.7363  -16.9076   -0.5970 C.ar      1 <0>        -0.0185
     30 C24        -7.1018  -17.2042    0.5975 C.ar      1 <0>        -0.1106
     31 C25        -6.5335  -16.1963    1.3485 C.ar      1 <0>        -0.0568
     32 Cl1        -8.4434  -18.1821   -1.5401 Cl        1 <0>        -0.0619
     33 C26        -4.1507  -12.8878    4.7569 C.3       1 <0>        -0.0891
     34 C27         0.3056   -6.8735   -0.0573 C.3       1 <0>         0.0400
     35 C28         1.7207   -7.0075   -0.5579 C.2       1 <0>         0.4824
     36 O4          2.6393   -6.5099    0.0706 O.co2     1 <0>        -0.6832
     37 O5          1.9469   -7.6134   -1.5914 O.co2     1 <0>        -0.6961
     38 H1         -0.1802    1.8631    1.0004 H         1 <0>         0.0686
     39 H2          1.0506    1.8668   -0.2854 H         1 <0>         0.0655
     40 H3         -0.6784    1.8701   -0.7084 H         1 <0>         0.0647
     41 H4          2.1311   -0.1565    0.5109 H         1 <0>         0.1266
     42 H5          2.1328   -2.6180    0.5022 H         1 <0>         0.1315
     43 H6         -2.0138   -2.6099   -0.5319 H         1 <0>         0.1284
     44 H7         -2.0094   -0.1485   -0.5127 H         1 <0>         0.1266
     45 H8          1.0206   -7.7069    2.3426 H         1 <0>         0.0957
     46 H9          0.9224   -6.1471    3.1944 H         1 <0>         0.0966
     47 H10        -1.1980   -5.3312    4.0522 H         1 <0>         0.1327
     48 H11        -3.4342   -5.9240    4.8917 H         1 <0>         0.1237
     49 H12        -4.4365   -8.0941    4.3035 H         1 <0>         0.1238
     50 H13        -0.9593   -9.0721    2.0193 H         1 <0>         0.1327
     51 H14        -4.5775  -10.1806    4.4134 H         1 <0>         0.0904
     52 H15        -5.3150   -9.4480    2.9685 H         1 <0>         0.0793
     53 H16        -7.3077  -13.5607   -0.6446 H         1 <0>         0.1382
     54 H17        -8.3059  -15.3729   -1.9743 H         1 <0>         0.1436
     55 H18        -7.0478  -18.2272    0.9396 H         1 <0>         0.1429
     56 H19        -6.0349  -16.4293    2.2778 H         1 <0>         0.1467
     57 H20        -4.8604  -12.7962    5.5791 H         1 <0>         0.0770
     58 H21        -3.6510  -13.8549    4.8143 H         1 <0>         0.0793
     59 H22        -3.4098  -12.0914    4.8260 H         1 <0>         0.0789
     60 H23        -0.1118   -7.8644    0.1217 H         1 <0>         0.0784
     61 H24        -0.2963   -6.3551   -0.8037 H         1 <0>         0.0815
@<TRIPOS>BOND
     1    1    2 1
     2    1   38 1
     3    1   39 1
     4    1   40 1
     5    2    7 ar
     6    2    3 ar
     7    3    4 ar
     8    3   41 1
     9    4    5 ar
    10    4   42 1
    11    5    6 ar
    12    5    8 1
    13    6    7 ar
    14    6   43 1
    15    7   44 1
    16    8    9 1
    17    9   10 2
    18    9   11 am
    19   11   12 1
    20   11   34 1
    21   12   13 1
    22   12   45 1
    23   12   46 1
    24   13   18 ar
    25   13   14 ar
    26   14   15 ar
    27   14   47 1
    28   15   16 ar
    29   15   48 1
    30   16   17 ar
    31   16   49 1
    32   17   18 ar
    33   17   19 1
    34   18   50 1
    35   19   20 1
    36   20   21 1
    37   20   51 1
    38   20   52 1
    39   21   25 1
    40   21   22 2
    41   22   23 1
    42   22   33 1
    43   23   24 2
    44   24   25 1
    45   24   26 1
    46   26   31 ar
    47   26   27 ar
    48   27   28 ar
    49   27   53 1
    50   28   29 ar
    51   28   54 1
    52   29   30 ar
    53   29   32 1
    54   30   31 ar
    55   30   55 1
    56   31   56 1
    57   33   57 1
    58   33   58 1
    59   33   59 1
    60   34   35 1
    61   34   60 1
    62   34   61 1
    63   35   36 2
    64   35   37 1
@<TRIPOS>MOLECULE
CHEMBL1090211
   61    64     0     0     0
SMALL
USER_CHARGES

@<TRIPOS>ATOM
      1 C1          0.0636    1.5033    0.0008 C.3       1 <0>        -0.1102
      2 C2          0.0621   -0.0037   -0.0050 C.ar      1 <0>        -0.0965
      3 C3          1.2238   -0.6961    0.2828 C.ar      1 <0>        -0.1053
      4 C4          1.2250   -2.0775    0.2781 C.ar      1 <0>        -0.1137
      5 C5          0.0593   -2.7700   -0.0151 C.ar      1 <0>         0.1161
      6 C6         -1.1051   -2.0730   -0.3030 C.ar      1 <0>        -0.1186
      7 C7         -1.1023   -0.6916   -0.2923 C.ar      1 <0>        -0.1094
      8 O1          0.0580   -4.1294   -0.0207 O.3       1 <0>        -0.3024
      9 C8          0.1763   -4.7666    1.1599 C.2       1 <0>         0.6614
     10 O2          0.1716   -4.1319    2.1961 O.2       1 <0>        -0.5756
     11 N1          0.2999   -6.1083    1.1920 N.am      1 <0>        -0.5508
     12 C9          0.4286   -6.8015    2.4762 C.3       1 <0>         0.1772
     13 C10        -0.9405   -7.1677    2.9887 C.ar      1 <0>        -0.0629
     14 C11        -1.6365   -6.2834    3.7924 C.ar      1 <0>        -0.1255
     15 C12        -2.8926   -6.6163    4.2642 C.ar      1 <0>        -0.0856
     16 C13        -3.4555   -7.8342    3.9341 C.ar      1 <0>        -0.2078
     17 C14        -2.7593   -8.7229    3.1281 C.ar      1 <0>         0.1199
     18 C15        -1.5013   -8.3839    2.6508 C.ar      1 <0>        -0.1278
     19 O3         -3.3108   -9.9214    2.8019 O.3       1 <0>        -0.3091
     20 C16        -4.6113  -10.2007    3.3241 C.3       1 <0>         0.1505
     21 C17        -5.0567  -11.5637    2.8604 C.2       1 <0>        -0.0516
     22 C18        -4.8483  -12.7303    3.4970 C.2       1 <0>         0.0290
     23 N2         -5.3995  -13.7057    2.7588 N.2       1 <0>        -0.4660
     24 C19        -5.9386  -13.1689    1.6896 C.2       1 <0>         0.2431
     25 O4         -5.7430  -11.8396    1.7336 O.3       1 <0>        -0.1845
     26 C20        -6.6464  -13.9021    0.6190 C.ar      1 <0>        -0.0144
     27 C21        -7.1716  -13.2113   -0.4743 C.ar      1 <0>        -0.0735
     28 C22        -7.8312  -13.9010   -1.4702 C.ar      1 <0>        -0.1100
     29 C23        -7.9732  -15.2760   -1.3867 C.ar      1 <0>        -0.0172
     30 C24        -7.4542  -15.9668   -0.3045 C.ar      1 <0>        -0.1118
     31 C25        -6.7873  -15.2888    0.6945 C.ar      1 <0>        -0.0562
     32 Cl1        -8.8055  -16.1370   -2.6434 Cl        1 <0>        -0.0612
     33 C26        -4.1240  -12.9098    4.8064 C.3       1 <0>        -0.0784
     34 C27         0.3056   -6.8735   -0.0573 C.3       1 <0>         0.0399
     35 C28         1.7207   -7.0075   -0.5579 C.2       1 <0>         0.4824
     36 O5          2.6393   -6.5099    0.0706 O.co2     1 <0>        -0.6832
     37 O6          1.9469   -7.6134   -1.5914 O.co2     1 <0>        -0.6959
     38 H1         -0.1802    1.8631    1.0004 H         1 <0>         0.0686
     39 H2          1.0506    1.8668   -0.2854 H         1 <0>         0.0655
     40 H3         -0.6784    1.8701   -0.7084 H         1 <0>         0.0647
     41 H4          2.1311   -0.1565    0.5109 H         1 <0>         0.1266
     42 H5          2.1328   -2.6180    0.5022 H         1 <0>         0.1315
     43 H6         -2.0138   -2.6099   -0.5319 H         1 <0>         0.1284
     44 H7         -2.0094   -0.1485   -0.5127 H         1 <0>         0.1267
     45 H8          1.0206   -7.7069    2.3426 H         1 <0>         0.0960
     46 H9          0.9224   -6.1471    3.1944 H         1 <0>         0.0969
     47 H10        -1.1980   -5.3312    4.0522 H         1 <0>         0.1332
     48 H11        -3.4342   -5.9240    4.8917 H         1 <0>         0.1243
     49 H12        -4.4365   -8.0941    4.3035 H         1 <0>         0.1242
     50 H13        -0.9593   -9.0721    2.0193 H         1 <0>         0.1332
     51 H14        -4.5775  -10.1806    4.4134 H         1 <0>         0.0998
     52 H15        -5.3150   -9.4480    2.9685 H         1 <0>         0.0827
     53 H16        -7.0621  -12.1389   -0.5401 H         1 <0>         0.1428
     54 H17        -8.2380  -13.3676   -2.3166 H         1 <0>         0.1438
     55 H18        -7.5684  -17.0391   -0.2446 H         1 <0>         0.1443
     56 H19        -6.3787  -15.8292    1.5356 H         1 <0>         0.1493
     57 H20        -4.8358  -12.8350    5.6285 H         1 <0>         0.0794
     58 H21        -3.6473  -13.8898    4.8265 H         1 <0>         0.0824
     59 H22        -3.3652  -12.1343    4.9111 H         1 <0>         0.0810
     60 H23        -0.1118   -7.8644    0.1217 H         1 <0>         0.0784
     61 H24        -0.2963   -6.3551   -0.8037 H         1 <0>         0.0816
@<TRIPOS>BOND
     1    1    2 1
     2    1   38 1
     3    1   39 1
     4    1   40 1
     5    2    7 ar
     6    2    3 ar
     7    3    4 ar
     8    3   41 1
     9    4    5 ar
    10    4   42 1
    11    5    6 ar
    12    5    8 1
    13    6    7 ar
    14    6   43 1
    15    7   44 1
    16    8    9 1
    17    9   10 2
    18    9   11 am
    19   11   12 1
    20   11   34 1
    21   12   13 1
    22   12   45 1
    23   12   46 1
    24   13   18 ar
    25   13   14 ar
    26   14   15 ar
    27   14   47 1
    28   15   16 ar
    29   15   48 1
    30   16   17 ar
    31   16   49 1
    32   17   18 ar
    33   17   19 1
    34   18   50 1
    35   19   20 1
    36   20   21 1
    37   20   51 1
    38   20   52 1
    39   21   25 1
    40   21   22 2
    41   22   23 1
    42   22   33 1
    43   23   24 2
    44   24   25 1
    45   24   26 1
    46   26   31 ar
    47   26   27 ar
    48   27   28 ar
    49   27   53 1
    50   28   29 ar
    51   28   54 1
    52   29   30 ar
    53   29   32 1
    54   30   31 ar
    55   30   55 1
    56   31   56 1
    57   33   57 1
    58   33   58 1
    59   33   59 1
    60   34   35 1
    61   34   60 1
    62   34   61 1
    63   35   36 2
    64   35   37 1
@<TRIPOS>MOLECULE
CHEMBL1085062
   63    65     0     0     0
SMALL
USER_CHARGES

@<TRIPOS>ATOM
      1 C1         -2.4860    1.1790   -5.4173 C.3       1 <0>        -0.1199
      2 C2         -2.3248   -0.2590   -4.9962 C.ar      1 <0>        -0.0794
      3 C3         -1.9672   -1.2153   -5.9291 C.ar      1 <0>        -0.1107
      4 C4         -1.8186   -2.5337   -5.5465 C.ar      1 <0>        -0.1102
      5 C5         -2.0283   -2.8990   -4.2229 C.ar      1 <0>         0.1134
      6 C6         -2.3868   -1.9365   -3.2886 C.ar      1 <0>        -0.0918
      7 C7         -2.5291   -0.6185   -3.6768 C.ar      1 <0>        -0.1034
      8 C8         -2.6154   -2.3284   -1.8515 C.3       1 <0>        -0.1223
      9 N1         -1.8791   -4.2343   -3.8320 N.am      1 <0>        -0.6403
     10 C9         -2.1429   -5.2258   -4.7060 C.2       1 <0>         0.5034
     11 O1         -2.4437   -4.9611   -5.8507 O.2       1 <0>        -0.5123
     12 C10        -2.0640   -6.6634   -4.2608 C.3       1 <0>        -0.0354
     13 N2         -2.3932   -7.5442   -5.3893 N.4       1 <0>        -0.3706
     14 C11        -2.4335   -8.9380   -4.9271 C.3       1 <0>         0.0479
     15 C12        -3.5684   -9.1108   -3.9507 C.ar      1 <0>        -0.2296
     16 C13        -3.3311   -9.0119   -2.5922 C.ar      1 <0>        -0.0587
     17 C14        -4.3696   -9.1703   -1.6951 C.ar      1 <0>        -0.1625
     18 C15        -5.6516   -9.4284   -2.1583 C.ar      1 <0>         0.1873
     19 C16        -5.8872   -9.5267   -3.5220 C.ar      1 <0>        -0.2232
     20 C17        -4.8462   -9.3623   -4.4152 C.ar      1 <0>        -0.0542
     21 O2         -6.6748   -9.5851   -1.2778 O.3       1 <0>        -0.2603
     22 C18        -7.9862   -9.7310   -1.8264 C.3       1 <0>         0.0338
     23 C19        -8.2922   -8.5421   -2.7396 C.3       1 <0>        -0.1787
     24 C20        -8.0593  -11.0276   -2.6354 C.3       1 <0>        -0.1696
     25 C21        -8.9959   -9.7787   -0.7087 C.2       1 <0>         0.5145
     26 O3         -8.6267   -9.6955    0.4503 O.co2     1 <0>        -0.6661
     27 O4        -10.1820   -9.9005   -0.9634 O.co2     1 <0>        -0.6703
     28 C22        -1.3703   -7.4043   -6.4343 C.3       1 <0>         0.0846
     29 C23        -1.7899   -8.1817   -7.6553 C.2       1 <0>        -0.2526
     30 C24        -2.5136   -7.7674   -8.7239 C.2       1 <0>        -0.0791
     31 C25        -2.7809   -8.6645   -9.7410 C.2       1 <0>        -0.1766
     32 C26        -2.3115   -9.9321   -9.6396 C.2       1 <0>        -0.1228
     33 S1         -1.4562   -9.8850   -8.0732 S.3       1 <0>         0.0759
     34 H1         -1.5314    1.6957   -5.3186 H         1 <0>         0.0745
     35 H2         -2.8151    1.2188   -6.4557 H         1 <0>         0.0694
     36 H3         -3.2283    1.6625   -4.7821 H         1 <0>         0.0700
     37 H4         -1.8043   -0.9306   -6.9581 H         1 <0>         0.1283
     38 H5         -1.5400   -3.2802   -6.2756 H         1 <0>         0.1426
     39 H6         -2.8040    0.1314   -2.9498 H         1 <0>         0.1314
     40 H7         -1.6780   -2.2518   -1.3006 H         1 <0>         0.0767
     41 H8         -3.3541   -1.6620   -1.4062 H         1 <0>         0.0787
     42 H9         -2.9793   -3.3550   -1.8084 H         1 <0>         0.0637
     43 H10        -1.5857   -4.4462   -2.9321 H         1 <0>         0.4195
     44 H11        -1.0543   -6.8810   -3.9125 H         1 <0>         0.1626
     45 H12        -2.7723   -6.8319   -3.4496 H         1 <0>         0.1685
     46 H13        -2.5843   -9.5995   -5.7802 H         1 <0>         0.1353
     47 H14        -1.4919   -9.1857   -4.4372 H         1 <0>         0.1343
     48 H15        -2.3329   -8.8110   -2.2320 H         1 <0>         0.1314
     49 H16        -4.1836   -9.0937   -0.6340 H         1 <0>         0.1418
     50 H17        -6.8842   -9.7276   -3.8851 H         1 <0>         0.1623
     51 H18        -5.0299   -9.4344   -5.4770 H         1 <0>         0.1253
     52 H19        -7.4778   -8.4125   -3.4524 H         1 <0>         0.0654
     53 H20        -9.2210   -8.7279   -3.2790 H         1 <0>         0.0796
     54 H21        -8.3957   -7.6391   -2.1381 H         1 <0>         0.0612
     55 H22        -8.2318  -11.8669   -1.9618 H         1 <0>         0.0653
     56 H23        -8.8778  -10.9629   -3.3523 H         1 <0>         0.0749
     57 H24        -7.1203  -11.1766   -3.1686 H         1 <0>         0.0601
     58 H25        -1.2583   -6.3518   -6.6945 H         1 <0>         0.1592
     59 H26        -0.4198   -7.7908   -6.0665 H         1 <0>         0.1368
     60 H27        -2.8761   -6.7516   -8.7798 H         1 <0>         0.1454
     61 H28        -3.3555   -8.3602  -10.6033 H         1 <0>         0.1476
     62 H29        -2.4226  -10.7557  -10.3293 H         1 <0>         0.1975
     63 H30        -3.2943   -7.2880   -5.7642 H         1 <0>         0.4304
@<TRIPOS>BOND
     1    1    2 1
     2    1   34 1
     3    1   35 1
     4    1   36 1
     5    2    7 ar
     6    2    3 ar
     7    3    4 ar
     8    3   37 1
     9    4    5 ar
    10    4   38 1
    11    5    6 ar
    12    5    9 1
    13    6    7 ar
    14    6    8 1
    15    7   39 1
    16    8   40 1
    17    8   41 1
    18    8   42 1
    19    9   10 am
    20    9   43 1
    21   10   11 2
    22   10   12 1
    23   12   13 1
    24   12   44 1
    25   12   45 1
    26   13   14 1
    27   13   28 1
    28   13   63 1
    29   14   15 1
    30   14   46 1
    31   14   47 1
    32   15   20 ar
    33   15   16 ar
    34   16   17 ar
    35   16   48 1
    36   17   18 ar
    37   17   49 1
    38   18   19 ar
    39   18   21 1
    40   19   20 ar
    41   19   50 1
    42   20   51 1
    43   21   22 1
    44   22   23 1
    45   22   24 1
    46   22   25 1
    47   23   52 1
    48   23   53 1
    49   23   54 1
    50   24   55 1
    51   24   56 1
    52   24   57 1
    53   25   26 2
    54   25   27 1
    55   28   29 1
    56   28   58 1
    57   28   59 1
    58   29   33 1
    59   29   30 2
    60   30   31 1
    61   30   60 1
    62   31   32 2
    63   31   61 1
    64   32   33 1
    65   32   62 1
@<TRIPOS>MOLECULE
CHEMBL1091664
   61    64     0     0     0
SMALL
USER_CHARGES

@<TRIPOS>ATOM
      1 C1          0.0636    1.5033    0.0008 C.3       1 <0>        -0.1101
      2 C2          0.0621   -0.0037   -0.0050 C.ar      1 <0>        -0.0967
      3 C3          1.2238   -0.6961    0.2828 C.ar      1 <0>        -0.1053
      4 C4          1.2250   -2.0775    0.2781 C.ar      1 <0>        -0.1137
      5 C5          0.0593   -2.7700   -0.0151 C.ar      1 <0>         0.1164
      6 C6         -1.1051   -2.0730   -0.3030 C.ar      1 <0>        -0.1186
      7 C7         -1.1023   -0.6916   -0.2923 C.ar      1 <0>        -0.1094
      8 O1          0.0580   -4.1294   -0.0207 O.3       1 <0>        -0.3027
      9 C8          0.1763   -4.7666    1.1599 C.2       1 <0>         0.6613
     10 O2          0.1716   -4.1319    2.1961 O.2       1 <0>        -0.5755
     11 N1          0.2999   -6.1083    1.1920 N.am      1 <0>        -0.5504
     12 C9          0.4286   -6.8015    2.4762 C.3       1 <0>         0.1776
     13 C10        -0.9405   -7.1677    2.9887 C.ar      1 <0>        -0.0633
     14 C11        -1.6365   -6.2834    3.7924 C.ar      1 <0>        -0.1284
     15 C12        -2.8926   -6.6163    4.2642 C.ar      1 <0>        -0.0860
     16 C13        -3.4555   -7.8342    3.9341 C.ar      1 <0>        -0.2082
     17 C14        -2.7593   -8.7229    3.1281 C.ar      1 <0>         0.1237
     18 C15        -1.5013   -8.3839    2.6508 C.ar      1 <0>        -0.1306
     19 O3         -3.3108   -9.9214    2.8019 O.3       1 <0>        -0.3069
     20 C16        -4.6113  -10.2007    3.3241 C.3       1 <0>         0.1352
     21 C17        -5.0567  -11.5637    2.8604 C.2       1 <0>         0.0428
     22 C18        -5.7410  -11.6957    1.6931 C.2       1 <0>        -0.1284
     23 S1         -5.9947  -13.4657    1.6579 S.3       1 <0>         0.0251
     24 C19        -5.1640  -13.8355    3.1974 C.2       1 <0>         0.1392
     25 N2         -4.7799  -12.6257    3.5800 N.2       1 <0>        -0.4704
     26 C20        -4.9564  -15.1399    3.8620 C.ar      1 <0>        -0.0049
     27 C21        -4.2770  -15.2056    5.0792 C.ar      1 <0>        -0.0587
     28 C22        -4.0868  -16.4252    5.6948 C.ar      1 <0>        -0.1086
     29 C23        -4.5681  -17.5830    5.1071 C.ar      1 <0>        -0.0208
     30 C24        -5.2425  -17.5241    3.8991 C.ar      1 <0>        -0.1073
     31 C25        -5.4442  -16.3094    3.2773 C.ar      1 <0>        -0.0817
     32 Cl1        -4.3244  -19.1145    5.8874 Cl        1 <0>        -0.0630
     33 C26        -6.1679  -10.6424    0.7035 C.3       1 <0>        -0.0721
     34 C27         0.3056   -6.8735   -0.0573 C.3       1 <0>         0.0403
     35 C28         1.7207   -7.0075   -0.5579 C.2       1 <0>         0.4823
     36 O4          2.6393   -6.5099    0.0706 O.co2     1 <0>        -0.6830
     37 O5          1.9469   -7.6134   -1.5914 O.co2     1 <0>        -0.6965
     38 H1         -0.1802    1.8631    1.0004 H         1 <0>         0.0685
     39 H2          1.0506    1.8668   -0.2854 H         1 <0>         0.0654
     40 H3         -0.6784    1.8701   -0.7084 H         1 <0>         0.0646
     41 H4          2.1311   -0.1565    0.5109 H         1 <0>         0.1265
     42 H5          2.1328   -2.6180    0.5022 H         1 <0>         0.1315
     43 H6         -2.0138   -2.6099   -0.5319 H         1 <0>         0.1284
     44 H7         -2.0094   -0.1485   -0.5127 H         1 <0>         0.1266
     45 H8          1.0206   -7.7069    2.3426 H         1 <0>         0.0953
     46 H9          0.9224   -6.1471    3.1944 H         1 <0>         0.0962
     47 H10        -1.1980   -5.3312    4.0522 H         1 <0>         0.1319
     48 H11        -3.4342   -5.9240    4.8917 H         1 <0>         0.1228
     49 H12        -4.4365   -8.0941    4.3035 H         1 <0>         0.1230
     50 H13        -0.9593   -9.0721    2.0193 H         1 <0>         0.1315
     51 H14        -4.5775  -10.1806    4.4134 H         1 <0>         0.0779
     52 H15        -5.3150   -9.4480    2.9685 H         1 <0>         0.0777
     53 H16        -3.9006  -14.3033    5.5382 H         1 <0>         0.1468
     54 H17        -3.5611  -16.4773    6.6368 H         1 <0>         0.1428
     55 H18        -5.6151  -18.4304    3.4451 H         1 <0>         0.1424
     56 H19        -5.9746  -16.2641    2.3376 H         1 <0>         0.1367
     57 H20        -5.3843  -10.5051   -0.0417 H         1 <0>         0.0929
     58 H21        -7.0870  -10.9587    0.2102 H         1 <0>         0.0804
     59 H22        -6.3412   -9.7017    1.2261 H         1 <0>         0.0883
     60 H23        -0.1118   -7.8644    0.1217 H         1 <0>         0.0783
     61 H24        -0.2963   -6.3551   -0.8037 H         1 <0>         0.0813
@<TRIPOS>BOND
     1    1    2 1
     2    1   38 1
     3    1   39 1
     4    1   40 1
     5    2    7 ar
     6    2    3 ar
     7    3    4 ar
     8    3   41 1
     9    4    5 ar
    10    4   42 1
    11    5    6 ar
    12    5    8 1
    13    6    7 ar
    14    6   43 1
    15    7   44 1
    16    8    9 1
    17    9   10 2
    18    9   11 am
    19   11   12 1
    20   11   34 1
    21   12   13 1
    22   12   45 1
    23   12   46 1
    24   13   18 ar
    25   13   14 ar
    26   14   15 ar
    27   14   47 1
    28   15   16 ar
    29   15   48 1
    30   16   17 ar
    31   16   49 1
    32   17   18 ar
    33   17   19 1
    34   18   50 1
    35   19   20 1
    36   20   21 1
    37   20   51 1
    38   20   52 1
    39   21   25 1
    40   21   22 2
    41   22   23 1
    42   22   33 1
    43   23   24 1
    44   24   25 2
    45   24   26 1
    46   26   31 ar
    47   26   27 ar
    48   27   28 ar
    49   27   53 1
    50   28   29 ar
    51   28   54 1
    52   29   30 ar
    53   29   32 1
    54   30   31 ar
    55   30   55 1
    56   31   56 1
    57   33   57 1
    58   33   58 1
    59   33   59 1
    60   34   35 1
    61   34   60 1
    62   34   61 1
    63   35   36 2
    64   35   37 1
@<TRIPOS>MOLECULE
CHEMBL306229
   51    53     0     0     0
SMALL
USER_CHARGES

@<TRIPOS>ATOM
      1 C1         -0.0187    1.5258    0.0104 C.3       1 <0>        -0.1435
      2 C2          0.0021   -0.0041    0.0020 C.3       1 <0>         0.0665
      3 O1          0.6709   -0.4649   -1.1737 O.3       1 <0>        -0.3662
      4 C3          0.7457   -1.8880   -1.2798 C.3       1 <0>         0.0336
      5 C4          2.0114   -2.2764   -2.0467 C.3       1 <0>        -0.0604
      6 C5          3.2252   -1.8716   -1.2507 C.ar      1 <0>        -0.0980
      7 C6          3.7771   -0.6158   -1.4243 C.ar      1 <0>        -0.0620
      8 C7          4.8901   -0.2425   -0.6961 C.ar      1 <0>        -0.1488
      9 C8          5.4539   -1.1287    0.2102 C.ar      1 <0>         0.1139
     10 C9          4.8980   -2.3880    0.3829 C.ar      1 <0>        -0.2117
     11 C10         3.7819   -2.7546   -0.3439 C.ar      1 <0>        -0.0832
     12 O2          6.5491   -0.7640    0.9274 O.3       1 <0>        -0.2958
     13 C11         7.0760   -1.7273    1.8420 C.3       1 <0>         0.0370
     14 C12         8.2977   -1.1411    2.5524 C.3       1 <0>         0.1425
     15 N1          7.8830   -0.0063    3.3810 N.pl3     1 <0>        -0.5724
     16 C13         7.4833   -0.2235    4.7736 C.3       1 <0>         0.0906
     17 C14         7.8690    1.2640    2.8510 C.2       1 <0>         0.5088
     18 N2          8.2002    1.5674    1.6220 N.2       1 <0>        -0.5173
     19 C15         8.0665    2.9117    1.4532 C.ar      1 <0>         0.0677
     20 C16         8.2757    3.7730    0.3753 C.ar      1 <0>        -0.0806
     21 C17         8.0453    5.1230    0.5248 C.ar      1 <0>        -0.1108
     22 C18         7.6076    5.6296    1.7389 C.ar      1 <0>        -0.1170
     23 C19         7.3968    4.7886    2.8129 C.ar      1 <0>        -0.0816
     24 C20         7.6232    3.4284    2.6797 C.ar      1 <0>        -0.0133
     25 O3          7.5075    2.3735    3.5190 O.3       1 <0>        -0.2365
     26 C21        -0.4650   -2.4012   -2.0158 C.2       1 <0>         0.4773
     27 O4         -1.2670   -1.6161   -2.4921 O.co2     1 <0>        -0.6796
     28 O5         -0.6427   -3.6015   -2.1348 O.co2     1 <0>        -0.7008
     29 H1          1.0039    1.9031    0.0027 H         1 <0>         0.0542
     30 H2         -0.5459    1.8868   -0.8726 H         1 <0>         0.0629
     31 H3         -0.5289    1.8773    0.9072 H         1 <0>         0.0594
     32 H4          0.5293   -0.3651    0.8851 H         1 <0>         0.0284
     33 H5         -1.0205   -0.3814    0.0098 H         1 <0>         0.0453
     34 H6          0.7769   -2.3256   -0.2819 H         1 <0>         0.0473
     35 H7          2.0237   -3.3548   -2.2050 H         1 <0>         0.0860
     36 H8          2.0227   -1.7676   -3.0106 H         1 <0>         0.0736
     37 H9          3.3378    0.0737   -2.1300 H         1 <0>         0.1294
     38 H10         5.3212    0.7383   -0.8326 H         1 <0>         0.1227
     39 H11         5.3351   -3.0797    1.0878 H         1 <0>         0.1194
     40 H12         3.3461   -3.7332   -0.2067 H         1 <0>         0.1224
     41 H13         6.3148   -1.9826    2.5793 H         1 <0>         0.0608
     42 H14         7.3686   -2.6243    1.2963 H         1 <0>         0.0741
     43 H15         8.7522   -1.9049    3.1835 H         1 <0>         0.1073
     44 H16         9.0221   -0.8041    1.8110 H         1 <0>         0.1025
     45 H17         8.3574   -0.1412    5.4195 H         1 <0>         0.0606
     46 H18         6.7469    0.5268    5.0614 H         1 <0>         0.0733
     47 H19         7.0482   -1.2177    4.8758 H         1 <0>         0.0813
     48 H20         8.6173    3.3829   -0.5721 H         1 <0>         0.1329
     49 H21         8.2068    5.7907   -0.3086 H         1 <0>         0.1332
     50 H22         7.4308    6.6897    1.8451 H         1 <0>         0.1357
     51 H23         7.0561    5.1904    3.7557 H         1 <0>         0.1290
@<TRIPOS>BOND
     1    1    2 1
     2    1   29 1
     3    1   30 1
     4    1   31 1
     5    2    3 1
     6    2   32 1
     7    2   33 1
     8    3    4 1
     9    4    5 1
    10    4   26 1
    11    4   34 1
    12    5    6 1
    13    5   35 1
    14    5   36 1
    15    6   11 ar
    16    6    7 ar
    17    7    8 ar
    18    7   37 1
    19    8    9 ar
    20    8   38 1
    21    9   10 ar
    22    9   12 1
    23   10   11 ar
    24   10   39 1
    25   11   40 1
    26   12   13 1
    27   13   14 1
    28   13   41 1
    29   13   42 1
    30   14   15 1
    31   14   43 1
    32   14   44 1
    33   15   16 1
    34   15   17 1
    35   16   45 1
    36   16   46 1
    37   16   47 1
    38   17   25 1
    39   17   18 2
    40   18   19 1
    41   19   24 ar
    42   19   20 ar
    43   20   21 ar
    44   20   48 1
    45   21   22 ar
    46   21   49 1
    47   22   23 ar
    48   22   50 1
    49   23   24 ar
    50   23   51 1
    51   24   25 1
    52   26   27 2
    53   26   28 1
@<TRIPOS>MOLECULE
CHEMBL306229__1
   51    53     0     0     0
SMALL
USER_CHARGES

@<TRIPOS>ATOM
      1 C1         -0.0187    1.5258    0.0104 C.3       1 <0>        -0.1426
      2 C2          0.0021   -0.0041    0.0020 C.3       1 <0>         0.0660
      3 O1          0.6709   -0.4649   -1.1737 O.3       1 <0>        -0.3674
      4 C3          0.7457   -1.8880   -1.2798 C.3       1 <0>         0.0332
      5 C4          0.7554   -2.2896   -2.7561 C.3       1 <0>        -0.0598
      6 C5         -0.5593   -1.9112   -3.3882 C.ar      1 <0>        -0.0983
      7 C6         -1.6109   -2.8089   -3.3838 C.ar      1 <0>        -0.0822
      8 C7         -2.8169   -2.4646   -3.9630 C.ar      1 <0>        -0.1492
      9 C8         -2.9725   -1.2168   -4.5490 C.ar      1 <0>         0.1137
     10 C9         -1.9159   -0.3178   -4.5517 C.ar      1 <0>        -0.2113
     11 C10        -0.7136   -0.6649   -3.9666 C.ar      1 <0>        -0.0630
     12 O2         -4.1577   -0.8760   -5.1198 O.3       1 <0>        -0.2960
     13 C11        -4.2460    0.4250   -5.7042 C.3       1 <0>         0.0370
     14 C12        -5.6441    0.6263   -6.2922 C.3       1 <0>         0.1424
     15 N1         -6.6338    0.6186   -5.2122 N.pl3     1 <0>        -0.5722
     16 C13        -7.0009    1.8708   -4.5462 C.3       1 <0>         0.0904
     17 C14        -7.2189   -0.5651   -4.8231 C.2       1 <0>         0.5091
     18 N2         -6.9600   -1.7366   -5.3453 N.2       1 <0>        -0.5175
     19 C15        -7.7208   -2.6732   -4.7149 C.ar      1 <0>         0.0677
     20 C16        -7.8581   -4.0551   -4.8527 C.ar      1 <0>        -0.0808
     21 C17        -8.7379   -4.7385   -4.0421 C.ar      1 <0>        -0.1109
     22 C18        -9.4868   -4.0613   -3.0920 C.ar      1 <0>        -0.1172
     23 C19        -9.3606   -2.6946   -2.9455 C.ar      1 <0>        -0.0816
     24 C20        -8.4802   -1.9920   -3.7520 C.ar      1 <0>        -0.0135
     25 O3         -8.1356   -0.6871   -3.8470 O.3       1 <0>        -0.2364
     26 C21         2.0091   -2.3753   -0.6184 C.2       1 <0>         0.4775
     27 O4          2.7745   -1.5779   -0.1038 O.co2     1 <0>        -0.6810
     28 O5          2.2658   -3.5670   -0.5978 O.co2     1 <0>        -0.6995
     29 H1          1.0039    1.9031    0.0027 H         1 <0>         0.0625
     30 H2         -0.5459    1.8868   -0.8726 H         1 <0>         0.0526
     31 H3         -0.5289    1.8773    0.9072 H         1 <0>         0.0594
     32 H4          0.5293   -0.3651    0.8851 H         1 <0>         0.0471
     33 H5         -1.0205   -0.3814    0.0098 H         1 <0>         0.0284
     34 H6         -0.1179   -2.3349   -0.7873 H         1 <0>         0.0482
     35 H7          1.5669   -1.7723   -3.2680 H         1 <0>         0.0721
     36 H8          0.9017   -3.3665   -2.8387 H         1 <0>         0.0878
     37 H9         -1.4892   -3.7802   -2.9274 H         1 <0>         0.1270
     38 H10        -3.6378   -3.1664   -3.9599 H         1 <0>         0.1227
     39 H11        -2.0346    0.6542   -5.0074 H         1 <0>         0.1193
     40 H12         0.1078    0.0363   -3.9646 H         1 <0>         0.1246
     41 H13        -4.0611    1.1800   -4.9400 H         1 <0>         0.0612
     42 H14        -3.5021    0.5192   -6.4954 H         1 <0>         0.0741
     43 H15        -5.6842    1.5818   -6.8151 H         1 <0>         0.1074
     44 H16        -5.8635   -0.1803   -6.9919 H         1 <0>         0.1025
     45 H17        -7.8425    2.3266   -5.0677 H         1 <0>         0.0607
     46 H18        -7.2822    1.6642   -3.5135 H         1 <0>         0.0733
     47 H19        -6.1511    2.5533   -4.5617 H         1 <0>         0.0815
     48 H20        -7.2772   -4.5866   -5.5919 H         1 <0>         0.1329
     49 H21        -8.8450   -5.8079   -4.1477 H         1 <0>         0.1332
     50 H22       -10.1741   -4.6069   -2.4624 H         1 <0>         0.1357
     51 H23        -9.9476   -2.1738   -2.2035 H         1 <0>         0.1291
@<TRIPOS>BOND
     1    1    2 1
     2    1   29 1
     3    1   30 1
     4    1   31 1
     5    2    3 1
     6    2   32 1
     7    2   33 1
     8    3    4 1
     9    4    5 1
    10    4   26 1
    11    4   34 1
    12    5    6 1
    13    5   35 1
    14    5   36 1
    15    6   11 ar
    16    6    7 ar
    17    7    8 ar
    18    7   37 1
    19    8    9 ar
    20    8   38 1
    21    9   10 ar
    22    9   12 1
    23   10   11 ar
    24   10   39 1
    25   11   40 1
    26   12   13 1
    27   13   14 1
    28   13   41 1
    29   13   42 1
    30   14   15 1
    31   14   43 1
    32   14   44 1
    33   15   16 1
    34   15   17 1
    35   16   45 1
    36   16   46 1
    37   16   47 1
    38   17   25 1
    39   17   18 2
    40   18   19 1
    41   19   24 ar
    42   19   20 ar
    43   20   21 ar
    44   20   48 1
    45   21   22 ar
    46   21   49 1
    47   22   23 ar
    48   22   50 1
    49   23   24 ar
    50   23   51 1
    51   24   25 1
    52   26   27 2
    53   26   28 1
@<TRIPOS>MOLECULE
CHEMBL1089210
   61    64     0     0     0
SMALL
USER_CHARGES

@<TRIPOS>ATOM
      1 C1          0.0636    1.5033    0.0008 C.3       1 <0>        -0.1102
      2 C2          0.0621   -0.0037   -0.0050 C.ar      1 <0>        -0.0967
      3 C3          1.2238   -0.6961    0.2828 C.ar      1 <0>        -0.1053
      4 C4          1.2250   -2.0775    0.2781 C.ar      1 <0>        -0.1137
      5 C5          0.0593   -2.7700   -0.0151 C.ar      1 <0>         0.1163
      6 C6         -1.1051   -2.0730   -0.3030 C.ar      1 <0>        -0.1186
      7 C7         -1.1023   -0.6916   -0.2923 C.ar      1 <0>        -0.1095
      8 O1          0.0580   -4.1294   -0.0207 O.3       1 <0>        -0.3027
      9 C8          0.1763   -4.7666    1.1599 C.2       1 <0>         0.6612
     10 O2          0.1716   -4.1319    2.1961 O.2       1 <0>        -0.5755
     11 N1          0.2999   -6.1083    1.1920 N.am      1 <0>        -0.5505
     12 C9          0.4286   -6.8015    2.4762 C.3       1 <0>         0.1775
     13 C10        -0.9405   -7.1677    2.9887 C.ar      1 <0>        -0.0633
     14 C11        -1.6365   -6.2834    3.7924 C.ar      1 <0>        -0.1278
     15 C12        -2.8926   -6.6163    4.2642 C.ar      1 <0>        -0.0860
     16 C13        -3.4555   -7.8342    3.9341 C.ar      1 <0>        -0.2082
     17 C14        -2.7593   -8.7229    3.1281 C.ar      1 <0>         0.1229
     18 C15        -1.5013   -8.3839    2.6508 C.ar      1 <0>        -0.1300
     19 O3         -3.3108   -9.9214    2.8019 O.3       1 <0>        -0.3081
     20 C16        -4.6113  -10.2007    3.3241 C.3       1 <0>         0.1471
     21 C17        -5.0567  -11.5637    2.8604 C.2       1 <0>        -0.0175
     22 C18        -5.7367  -11.8333    1.7313 C.2       1 <0>        -0.0010
     23 O4         -5.9357  -13.1658    1.6924 O.3       1 <0>        -0.1908
     24 C19        -5.3769  -13.6947    2.7947 C.2       1 <0>         0.2244
     25 N2         -4.8406  -12.7246    3.4972 N.2       1 <0>        -0.4451
     26 C20        -5.3632  -15.1288    3.1522 C.ar      1 <0>        -0.0083
     27 C21        -4.7521  -15.5504    4.3342 C.ar      1 <0>        -0.0580
     28 C22        -4.7428  -16.8900    4.6628 C.ar      1 <0>        -0.1097
     29 C23        -5.3383  -17.8159    3.8226 C.ar      1 <0>        -0.0196
     30 C24        -5.9458  -17.4037    2.6484 C.ar      1 <0>        -0.1102
     31 C25        -5.9664  -16.0662    2.3121 C.ar      1 <0>        -0.0774
     32 Cl1        -5.3227  -19.5002    4.2429 Cl        1 <0>        -0.0623
     33 C26        -6.1922  -10.8315    0.7017 C.3       1 <0>        -0.0753
     34 C27         0.3056   -6.8735   -0.0573 C.3       1 <0>         0.0403
     35 C28         1.7207   -7.0075   -0.5579 C.2       1 <0>         0.4822
     36 O5          2.6393   -6.5099    0.0706 O.co2     1 <0>        -0.6831
     37 O6          1.9469   -7.6134   -1.5914 O.co2     1 <0>        -0.6965
     38 H1         -0.1802    1.8631    1.0004 H         1 <0>         0.0686
     39 H2          1.0506    1.8668   -0.2854 H         1 <0>         0.0654
     40 H3         -0.6784    1.8701   -0.7084 H         1 <0>         0.0646
     41 H4          2.1311   -0.1565    0.5109 H         1 <0>         0.1265
     42 H5          2.1328   -2.6180    0.5022 H         1 <0>         0.1315
     43 H6         -2.0138   -2.6099   -0.5319 H         1 <0>         0.1284
     44 H7         -2.0094   -0.1485   -0.5127 H         1 <0>         0.1266
     45 H8          1.0206   -7.7069    2.3426 H         1 <0>         0.0955
     46 H9          0.9224   -6.1471    3.1944 H         1 <0>         0.0964
     47 H10        -1.1980   -5.3312    4.0522 H         1 <0>         0.1321
     48 H11        -3.4342   -5.9240    4.8917 H         1 <0>         0.1232
     49 H12        -4.4365   -8.0941    4.3035 H         1 <0>         0.1237
     50 H13        -0.9593   -9.0721    2.0193 H         1 <0>         0.1320
     51 H14        -4.5775  -10.1806    4.4134 H         1 <0>         0.0814
     52 H15        -5.3150   -9.4480    2.9685 H         1 <0>         0.0803
     53 H16        -4.2870  -14.8293    4.9900 H         1 <0>         0.1495
     54 H17        -4.2700  -17.2175    5.5769 H         1 <0>         0.1443
     55 H18        -6.4083  -18.1304    1.9970 H         1 <0>         0.1425
     56 H19        -6.4446  -15.7453    1.3984 H         1 <0>         0.1414
     57 H20        -5.4152  -10.7069   -0.0526 H         1 <0>         0.0961
     58 H21        -7.1059  -11.1885    0.2267 H         1 <0>         0.0836
     59 H22        -6.3847   -9.8743    1.1864 H         1 <0>         0.0957
     60 H23        -0.1118   -7.8644    0.1217 H         1 <0>         0.0785
     61 H24        -0.2963   -6.3551   -0.8037 H         1 <0>         0.0814
@<TRIPOS>BOND
     1    1    2 1
     2    1   38 1
     3    1   39 1
     4    1   40 1
     5    2    7 ar
     6    2    3 ar
     7    3    4 ar
     8    3   41 1
     9    4    5 ar
    10    4   42 1
    11    5    6 ar
    12    5    8 1
    13    6    7 ar
    14    6   43 1
    15    7   44 1
    16    8    9 1
    17    9   10 2
    18    9   11 am
    19   11   12 1
    20   11   34 1
    21   12   13 1
    22   12   45 1
    23   12   46 1
    24   13   18 ar
    25   13   14 ar
    26   14   15 ar
    27   14   47 1
    28   15   16 ar
    29   15   48 1
    30   16   17 ar
    31   16   49 1
    32   17   18 ar
    33   17   19 1
    34   18   50 1
    35   19   20 1
    36   20   21 1
    37   20   51 1
    38   20   52 1
    39   21   25 1
    40   21   22 2
    41   22   23 1
    42   22   33 1
    43   23   24 1
    44   24   25 2
    45   24   26 1
    46   26   31 ar
    47   26   27 ar
    48   27   28 ar
    49   27   53 1
    50   28   29 ar
    51   28   54 1
    52   29   30 ar
    53   29   32 1
    54   30   31 ar
    55   30   55 1
    56   31   56 1
    57   33   57 1
    58   33   58 1
    59   33   59 1
    60   34   35 1
    61   34   60 1
    62   34   61 1
    63   35   36 2
    64   35   37 1
@<TRIPOS>MOLECULE
CHEMBL455853
   61    65     0     0     0
SMALL
USER_CHARGES

@<TRIPOS>ATOM
      1 C1         -0.0184    1.5028    0.0103 C.3       1 <0>        -0.0732
      2 C2          0.0021   -0.0041    0.0020 C.2       1 <0>        -0.0301
      3 C3         -1.0707   -0.8165    0.0025 C.2       1 <0>        -0.0109
      4 N1         -0.6275   -2.0825   -0.0072 N.2       1 <0>        -0.4608
      5 C4          0.6850   -2.0677   -0.0136 C.2       1 <0>         0.2352
      6 O1          1.0981   -0.7883   -0.0131 O.3       1 <0>        -0.1915
      7 C5          1.5611   -3.2570   -0.0243 C.ar      1 <0>        -0.0215
      8 C6          1.0018   -4.5370   -0.0341 C.ar      1 <0>        -0.0644
      9 C7          1.8192   -5.6448   -0.0440 C.ar      1 <0>        -0.1131
     10 C8          3.2055   -5.4894   -0.0441 C.ar      1 <0>        -0.0211
     11 C9          3.7650   -4.2116   -0.0338 C.ar      1 <0>        -0.1127
     12 C10         2.9494   -3.1024   -0.0302 C.ar      1 <0>        -0.0835
     13 C11         4.0849   -6.6832   -0.0548 C.ar      1 <0>        -0.0549
     14 C12         3.5290   -7.9615   -0.0704 C.ar      1 <0>        -0.1062
     15 C13         4.3524   -9.0689   -0.0808 C.ar      1 <0>        -0.1180
     16 C14         5.7268   -8.9123   -0.0756 C.ar      1 <0>        -0.1138
     17 C15         6.2841   -7.6463   -0.0596 C.ar      1 <0>        -0.1183
     18 C16         5.4706   -6.5315   -0.0550 C.ar      1 <0>        -0.1067
     19 C17        -2.5134   -0.3813    0.0121 C.3       1 <0>        -0.0340
     20 C18        -3.0088   -0.2255   -1.4270 C.3       1 <0>         0.0660
     21 O2         -4.3769    0.1872   -1.4179 O.3       1 <0>        -0.3064
     22 C19        -4.9735    0.3725   -2.6247 C.ar      1 <0>         0.1668
     23 C20        -4.2593    0.1563   -3.7951 C.ar      1 <0>        -0.2175
     24 C21        -4.8693    0.3417   -5.0186 C.ar      1 <0>        -0.0331
     25 C22        -6.1938    0.7458   -5.0897 C.ar      1 <0>        -0.1807
     26 C23        -6.9071    0.9689   -3.9250 C.ar      1 <0>         0.1525
     27 C24        -6.2975    0.7722   -2.6910 C.ar      1 <0>        -0.1611
     28 O3         -8.2025    1.3860   -3.9455 O.3       1 <0>        -0.2869
     29 C25        -8.8442    1.3675   -5.1308 C.2       1 <0>         0.5070
     30 O4         -9.9940    1.0077   -5.2224 O.2       1 <0>        -0.4061
     31 C26        -8.0550    1.8199   -6.3432 C.3       1 <0>        -0.1318
     32 C27        -6.8175    0.9238   -6.4510 C.3       1 <0>        -0.0613
     33 C28        -7.6329    3.2564   -6.1716 C.2       1 <0>         0.4696
     34 O5         -6.4597    3.5454   -6.1717 O.2       1 <0>        -0.4749
     35 O6         -8.5602    4.2147   -6.0187 O.3       1 <0>        -0.3473
     36 C29        -8.0886    5.5545   -5.8611 C.3       1 <0>         0.0328
     37 H1          1.0042    1.8801    0.0026 H         1 <0>         0.0821
     38 H2         -0.5455    1.8639   -0.8728 H         1 <0>         0.0910
     39 H3         -0.5286    1.8543    0.9071 H         1 <0>         0.0938
     40 H4         -0.0714   -4.6576   -0.0336 H         1 <0>         0.1414
     41 H5          1.3870   -6.6345   -0.0512 H         1 <0>         0.1362
     42 H6          4.8384   -4.0924   -0.0333 H         1 <0>         0.1348
     43 H7          3.3828   -2.1132   -0.0271 H         1 <0>         0.1334
     44 H8          2.4561   -8.0850   -0.0741 H         1 <0>         0.1272
     45 H9          3.9229  -10.0598   -0.0926 H         1 <0>         0.1262
     46 H10         6.3673   -9.7819   -0.0837 H         1 <0>         0.1244
     47 H11         7.3578   -7.5300   -0.0549 H         1 <0>         0.1259
     48 H12         5.9067   -5.5435   -0.0473 H         1 <0>         0.1266
     49 H13        -3.1158   -1.1315    0.5245 H         1 <0>         0.0969
     50 H14        -2.6017    0.5726    0.5321 H         1 <0>         0.0946
     51 H15        -2.4064    0.5247   -1.9394 H         1 <0>         0.0663
     52 H16        -2.9205   -1.1794   -1.9470 H         1 <0>         0.0710
     53 H17        -3.2267   -0.1565   -3.7480 H         1 <0>         0.1360
     54 H18        -4.3112    0.1712   -5.9274 H         1 <0>         0.1379
     55 H19        -6.8568    0.9360   -1.7818 H         1 <0>         0.1479
     56 H20        -8.6650    1.7176   -7.2408 H         1 <0>         0.1599
     57 H21        -6.0940    1.3849   -7.1234 H         1 <0>         0.1140
     58 H22        -7.1084   -0.0495   -6.8462 H         1 <0>         0.1063
     59 H23        -8.9383    6.2277   -5.7474 H         1 <0>         0.1080
     60 H24        -7.4559    5.6152   -4.9756 H         1 <0>         0.0646
     61 H25        -7.5120    5.8425   -6.7401 H         1 <0>         0.0657
@<TRIPOS>BOND
     1    1    2 1
     2    1   37 1
     3    1   38 1
     4    1   39 1
     5    2    6 1
     6    2    3 2
     7    3    4 1
     8    3   19 1
     9    4    5 2
    10    5    6 1
    11    5    7 1
    12    7   12 ar
    13    7    8 ar
    14    8    9 ar
    15    8   40 1
    16    9   10 ar
    17    9   41 1
    18   10   11 ar
    19   10   13 1
    20   11   12 ar
    21   11   42 1
    22   12   43 1
    23   13   18 ar
    24   13   14 ar
    25   14   15 ar
    26   14   44 1
    27   15   16 ar
    28   15   45 1
    29   16   17 ar
    30   16   46 1
    31   17   18 ar
    32   17   47 1
    33   18   48 1
    34   19   20 1
    35   19   49 1
    36   19   50 1
    37   20   21 1
    38   20   51 1
    39   20   52 1
    40   21   22 1
    41   22   27 ar
    42   22   23 ar
    43   23   24 ar
    44   23   53 1
    45   24   25 ar
    46   24   54 1
    47   25   32 1
    48   25   26 ar
    49   26   27 ar
    50   26   28 1
    51   27   55 1
    52   28   29 1
    53   29   30 2
    54   29   31 1
    55   31   32 1
    56   31   33 1
    57   31   56 1
    58   32   57 1
    59   32   58 1
    60   33   34 2
    61   33   35 1
    62   35   36 1
    63   36   59 1
    64   36   60 1
    65   36   61 1
@<TRIPOS>MOLECULE
CHEMBL455853__1
   61    65     0     0     0
SMALL
USER_CHARGES

@<TRIPOS>ATOM
      1 C1         -0.0184    1.5028    0.0103 C.3       1 <0>        -0.0730
      2 C2          0.0021   -0.0041    0.0020 C.2       1 <0>        -0.0303
      3 C3         -1.0707   -0.8165    0.0025 C.2       1 <0>        -0.0109
      4 N1         -0.6275   -2.0825   -0.0072 N.2       1 <0>        -0.4608
      5 C4          0.6850   -2.0677   -0.0136 C.2       1 <0>         0.2352
      6 O1          1.0981   -0.7883   -0.0131 O.3       1 <0>        -0.1915
      7 C5          1.5611   -3.2570   -0.0243 C.ar      1 <0>        -0.0216
      8 C6          1.0018   -4.5370   -0.0341 C.ar      1 <0>        -0.0644
      9 C7          1.8192   -5.6448   -0.0440 C.ar      1 <0>        -0.1131
     10 C8          3.2055   -5.4894   -0.0441 C.ar      1 <0>        -0.0210
     11 C9          3.7650   -4.2116   -0.0338 C.ar      1 <0>        -0.1127
     12 C10         2.9494   -3.1024   -0.0302 C.ar      1 <0>        -0.0834
     13 C11         4.0849   -6.6832   -0.0548 C.ar      1 <0>        -0.0550
     14 C12         3.5290   -7.9615   -0.0704 C.ar      1 <0>        -0.1062
     15 C13         4.3524   -9.0689   -0.0808 C.ar      1 <0>        -0.1180
     16 C14         5.7268   -8.9123   -0.0756 C.ar      1 <0>        -0.1139
     17 C15         6.2841   -7.6463   -0.0596 C.ar      1 <0>        -0.1183
     18 C16         5.4706   -6.5315   -0.0550 C.ar      1 <0>        -0.1067
     19 C17        -2.5134   -0.3813    0.0121 C.3       1 <0>        -0.0340
     20 C18        -3.0088   -0.2255   -1.4270 C.3       1 <0>         0.0660
     21 O2         -4.3769    0.1872   -1.4179 O.3       1 <0>        -0.3064
     22 C19        -4.9735    0.3725   -2.6247 C.ar      1 <0>         0.1668
     23 C20        -4.2593    0.1563   -3.7951 C.ar      1 <0>        -0.2175
     24 C21        -4.8670    0.3493   -5.0186 C.ar      1 <0>        -0.0331
     25 C22        -6.1905    0.7567   -5.0897 C.ar      1 <0>        -0.1808
     26 C23        -6.9078    0.9668   -3.9250 C.ar      1 <0>         0.1525
     27 C24        -6.2975    0.7722   -2.6910 C.ar      1 <0>        -0.1610
     28 O3         -8.2146    1.3468   -3.9456 O.3       1 <0>        -0.2869
     29 C25        -8.7343    1.7263   -5.1300 C.2       1 <0>         0.5071
     30 O4         -9.4846    2.6692   -5.2188 O.2       1 <0>        -0.4063
     31 C26        -8.3324    0.9144   -6.3452 C.3       1 <0>        -0.1318
     32 C27        -6.8052    0.9640   -6.4509 C.3       1 <0>        -0.0613
     33 C28        -8.7874   -0.5128   -6.1799 C.2       1 <0>         0.4691
     34 O5         -7.9774   -1.4093   -6.1826 O.2       1 <0>        -0.4744
     35 O6        -10.0926   -0.7880   -6.0297 O.3       1 <0>        -0.3475
     36 C29       -10.4525   -2.1626   -5.8781 C.3       1 <0>         0.0327
     37 H1          1.0042    1.8801    0.0026 H         1 <0>         0.0821
     38 H2         -0.5455    1.8639   -0.8728 H         1 <0>         0.0909
     39 H3         -0.5286    1.8543    0.9071 H         1 <0>         0.0938
     40 H4         -0.0714   -4.6576   -0.0336 H         1 <0>         0.1413
     41 H5          1.3870   -6.6345   -0.0512 H         1 <0>         0.1361
     42 H6          4.8384   -4.0924   -0.0333 H         1 <0>         0.1348
     43 H7          3.3828   -2.1132   -0.0271 H         1 <0>         0.1334
     44 H8          2.4561   -8.0850   -0.0741 H         1 <0>         0.1272
     45 H9          3.9229  -10.0598   -0.0926 H         1 <0>         0.1262
     46 H10         6.3673   -9.7819   -0.0837 H         1 <0>         0.1244
     47 H11         7.3578   -7.5300   -0.0549 H         1 <0>         0.1260
     48 H12         5.9067   -5.5435   -0.0473 H         1 <0>         0.1266
     49 H13        -3.1158   -1.1315    0.5245 H         1 <0>         0.0967
     50 H14        -2.6017    0.5726    0.5321 H         1 <0>         0.0948
     51 H15        -2.4064    0.5247   -1.9394 H         1 <0>         0.0664
     52 H16        -2.9205   -1.1794   -1.9470 H         1 <0>         0.0709
     53 H17        -3.2285   -0.1624   -3.7480 H         1 <0>         0.1360
     54 H18        -4.3078    0.1823   -5.9273 H         1 <0>         0.1379
     55 H19        -6.8563    0.9376   -1.7818 H         1 <0>         0.1479
     56 H20        -8.7793    1.3444   -7.2416 H         1 <0>         0.1599
     57 H21        -6.5006    1.9348   -6.8418 H         1 <0>         0.1062
     58 H22        -6.4632    0.1795   -7.1260 H         1 <0>         0.1141
     59 H23       -11.5336   -2.2449   -5.7660 H         1 <0>         0.1081
     60 H24       -10.1350   -2.7206   -6.7589 H         1 <0>         0.0657
     61 H25        -9.9634   -2.5708   -4.9936 H         1 <0>         0.0647
@<TRIPOS>BOND
     1    1    2 1
     2    1   37 1
     3    1   38 1
     4    1   39 1
     5    2    6 1
     6    2    3 2
     7    3    4 1
     8    3   19 1
     9    4    5 2
    10    5    6 1
    11    5    7 1
    12    7   12 ar
    13    7    8 ar
    14    8    9 ar
    15    8   40 1
    16    9   10 ar
    17    9   41 1
    18   10   11 ar
    19   10   13 1
    20   11   12 ar
    21   11   42 1
    22   12   43 1
    23   13   18 ar
    24   13   14 ar
    25   14   15 ar
    26   14   44 1
    27   15   16 ar
    28   15   45 1
    29   16   17 ar
    30   16   46 1
    31   17   18 ar
    32   17   47 1
    33   18   48 1
    34   19   20 1
    35   19   49 1
    36   19   50 1
    37   20   21 1
    38   20   51 1
    39   20   52 1
    40   21   22 1
    41   22   27 ar
    42   22   23 ar
    43   23   24 ar
    44   23   53 1
    45   24   25 ar
    46   24   54 1
    47   25   32 1
    48   25   26 ar
    49   26   27 ar
    50   26   28 1
    51   27   55 1
    52   28   29 1
    53   29   30 2
    54   29   31 1
    55   31   32 1
    56   31   33 1
    57   31   56 1
    58   32   57 1
    59   32   58 1
    60   33   34 2
    61   33   35 1
    62   35   36 1
    63   36   59 1
    64   36   60 1
    65   36   61 1
@<TRIPOS>MOLECULE
CHEMBL589256
   59    61     0     0     0
SMALL
USER_CHARGES

@<TRIPOS>ATOM
      1 C1         -0.9123    1.5660    0.0723 C.3       1 <0>        -0.1492
      2 C2         -1.1523    0.0783    0.0826 C.2       1 <0>         0.1688
      3 N1         -1.1115   -0.5758    1.1980 N.2       1 <0>        -0.3382
      4 O1         -0.8413    0.1061    2.4092 O.3       1 <0>        -0.2323
      5 C3         -0.8266   -0.7391    3.5613 C.3       1 <0>         0.0771
      6 C4         -0.5267    0.0995    4.8053 C.3       1 <0>        -0.1118
      7 C5         -0.5110   -0.8054    6.0389 C.3       1 <0>        -0.1107
      8 C6         -0.2110    0.0332    7.2829 C.3       1 <0>         0.0757
      9 O2         -0.1964   -0.8120    8.4350 O.3       1 <0>        -0.2446
     10 N2          0.0738   -0.1301    9.6462 N.2       1 <0>        -0.3397
     11 C7          0.1146   -0.7840   10.7613 C.2       1 <0>         0.1882
     12 C8          0.2555   -0.0419   12.0653 C.3       1 <0>        -0.0403
     13 C9         -1.1327    0.2981   12.6112 C.3       1 <0>        -0.1751
     14 C10        -0.9919    1.0402   13.9152 C.2       1 <0>         0.4936
     15 O3          0.1162    1.2754   14.3661 O.co2     1 <0>        -0.6953
     16 O4         -1.9859    1.4054   14.5193 O.co2     1 <0>        -0.7018
     17 C11         0.0232   -2.2576   10.7567 C.ar      1 <0>        -0.0908
     18 C12         0.6223   -2.9941    9.7330 C.ar      1 <0>        -0.0790
     19 C13         0.5329   -4.3708    9.7348 C.ar      1 <0>        -0.1308
     20 C14        -0.1488   -5.0216   10.7477 C.ar      1 <0>        -0.1116
     21 C15        -0.7448   -4.2978   11.7652 C.ar      1 <0>        -0.1265
     22 C16        -0.6578   -2.9211   11.7790 C.ar      1 <0>        -0.0872
     23 C17        -1.4339   -0.6325   -1.1798 C.ar      1 <0>        -0.0498
     24 C18        -1.4714    0.0831   -2.3905 C.ar      1 <0>        -0.0920
     25 C19        -1.7283   -0.5482   -3.5642 C.ar      1 <0>        -0.1077
     26 C20        -1.9618   -1.9356   -3.5810 C.ar      1 <0>        -0.0411
     27 C21        -2.2296   -2.6107   -4.7836 C.ar      1 <0>        -0.1108
     28 C22        -2.4513   -3.9538   -4.7688 C.ar      1 <0>        -0.1096
     29 C23        -2.4171   -4.6740   -3.5762 C.ar      1 <0>        -0.1193
     30 C24        -2.1613   -4.0548   -2.3916 C.ar      1 <0>        -0.0982
     31 C25        -1.9268   -2.6681   -2.3674 C.ar      1 <0>        -0.0585
     32 C26        -1.6537   -2.0000   -1.1644 C.ar      1 <0>        -0.0574
     33 H1          0.1515    1.7615   -0.0627 H         1 <0>         0.0847
     34 H2         -1.4717    2.0186   -0.7464 H         1 <0>         0.0793
     35 H3         -1.2432    1.9939    1.0187 H         1 <0>         0.0820
     36 H4         -1.7990   -1.2189    3.6723 H         1 <0>         0.0584
     37 H5         -0.0567   -1.5016    3.4428 H         1 <0>         0.0581
     38 H6          0.4457    0.5793    4.6943 H         1 <0>         0.0751
     39 H7         -1.2966    0.8620    4.9238 H         1 <0>         0.0758
     40 H8         -1.4834   -1.2852    6.1499 H         1 <0>         0.0741
     41 H9          0.2589   -1.5679    5.9204 H         1 <0>         0.0729
     42 H10         0.7614    0.5130    7.1718 H         1 <0>         0.0542
     43 H11        -0.9810    0.7956    7.4014 H         1 <0>         0.0557
     44 H12         0.7854   -0.6672   12.7838 H         1 <0>         0.0891
     45 H13         0.8166    0.8781   11.9010 H         1 <0>         0.0873
     46 H14        -1.6626    0.9234   11.8927 H         1 <0>         0.0621
     47 H15        -1.6938   -0.6219   12.7755 H         1 <0>         0.0607
     48 H16         1.1541   -2.4873    8.9414 H         1 <0>         0.1253
     49 H17         0.9959   -4.9417    8.9436 H         1 <0>         0.1204
     50 H18        -0.2163   -6.0995   10.7439 H         1 <0>         0.1198
     51 H19        -1.2757   -4.8121   12.5526 H         1 <0>         0.1247
     52 H20        -1.1194   -2.3576   12.5764 H         1 <0>         0.1350
     53 H21        -1.2939    1.1484   -2.3858 H         1 <0>         0.1329
     54 H22        -1.7537    0.0147   -4.4855 H         1 <0>         0.1327
     55 H23        -2.2599   -2.0663   -5.7160 H         1 <0>         0.1285
     56 H24        -2.6572   -4.4690   -5.6954 H         1 <0>         0.1241
     57 H25        -2.5964   -5.7389   -3.5922 H         1 <0>         0.1248
     58 H26        -2.1385   -4.6252   -1.4748 H         1 <0>         0.1295
     59 H27        -1.6194   -2.5466   -0.2336 H         1 <0>         0.1389
@<TRIPOS>BOND
     1    1    2 1
     2    1   33 1
     3    1   34 1
     4    1   35 1
     5    2    3 2
     6    2   23 1
     7    3    4 1
     8    4    5 1
     9    5    6 1
    10    5   36 1
    11    5   37 1
    12    6    7 1
    13    6   38 1
    14    6   39 1
    15    7    8 1
    16    7   40 1
    17    7   41 1
    18    8    9 1
    19    8   42 1
    20    8   43 1
    21    9   10 1
    22   10   11 2
    23   11   12 1
    24   11   17 1
    25   12   13 1
    26   12   44 1
    27   12   45 1
    28   13   14 1
    29   13   46 1
    30   13   47 1
    31   14   15 2
    32   14   16 1
    33   17   22 ar
    34   17   18 ar
    35   18   19 ar
    36   18   48 1
    37   19   20 ar
    38   19   49 1
    39   20   21 ar
    40   20   50 1
    41   21   22 ar
    42   21   51 1
    43   22   52 1
    44   23   32 ar
    45   23   24 ar
    46   24   25 ar
    47   24   53 1
    48   25   26 ar
    49   25   54 1
    50   26   31 ar
    51   26   27 ar
    52   27   28 ar
    53   27   55 1
    54   28   29 ar
    55   28   56 1
    56   29   30 ar
    57   29   57 1
    58   30   31 ar
    59   30   58 1
    60   31   32 ar
    61   32   59 1
@<TRIPOS>MOLECULE
CHEMBL591348
   63    65     0     0     0
SMALL
USER_CHARGES

@<TRIPOS>ATOM
      1 C1         -0.9123    1.5660    0.0723 C.3       1 <0>        -0.1491
      2 C2         -1.1523    0.0783    0.0826 C.2       1 <0>         0.1689
      3 N1         -1.1115   -0.5756    1.1976 N.2       1 <0>        -0.3367
      4 O1         -0.8413    0.1063    2.4088 O.3       1 <0>        -0.2321
      5 C3         -0.8266   -0.7389    3.5610 C.3       1 <0>         0.0770
      6 C4         -0.5267    0.0997    4.8050 C.3       1 <0>        -0.1118
      7 C5         -0.5110   -0.8052    6.0385 C.3       1 <0>        -0.1107
      8 C6         -0.2110    0.0334    7.2825 C.3       1 <0>         0.0757
      9 O2         -0.1964   -0.8118    8.4347 O.3       1 <0>        -0.2446
     10 N2          0.0738   -0.1299    9.6459 N.2       1 <0>        -0.3397
     11 C7          0.1146   -0.7838   10.7609 C.2       1 <0>         0.1884
     12 C8          0.2555   -0.0417   12.0649 C.3       1 <0>        -0.0404
     13 C9         -1.1328    0.2983   12.6109 C.3       1 <0>        -0.1751
     14 C10        -0.9919    1.0404   13.9149 C.2       1 <0>         0.4937
     15 O3          0.1162    1.2756   14.3658 O.co2     1 <0>        -0.6954
     16 O4         -1.9860    1.4056   14.5190 O.co2     1 <0>        -0.7019
     17 C11         0.0232   -2.2574   10.7563 C.ar      1 <0>        -0.0909
     18 C12         0.6223   -2.9939    9.7327 C.ar      1 <0>        -0.0790
     19 C13         0.5329   -4.3706    9.7345 C.ar      1 <0>        -0.1309
     20 C14        -0.1488   -5.0214   10.7474 C.ar      1 <0>        -0.1115
     21 C15        -0.7448   -4.2976   11.7648 C.ar      1 <0>        -0.1265
     22 C16        -0.6578   -2.9209   11.7786 C.ar      1 <0>        -0.0871
     23 C17        -1.4341   -0.6329   -1.1804 C.ar      1 <0>        -0.0463
     24 C18        -1.4729    0.0706   -2.3867 C.ar      1 <0>        -0.0895
     25 C19        -1.7368   -0.5939   -3.5672 C.ar      1 <0>        -0.1184
     26 C20        -1.9633   -1.9567   -3.5638 C.ar      1 <0>        -0.0956
     27 C21        -1.9268   -2.6703   -2.3666 C.ar      1 <0>        -0.0495
     28 C22        -1.6563   -2.0090   -1.1731 C.ar      1 <0>        -0.0715
     29 C23        -2.1705   -4.1342   -2.3664 C.ar      1 <0>        -0.0468
     30 C24        -2.1400   -4.8479   -1.1701 C.ar      1 <0>        -0.1090
     31 C25        -2.3673   -6.2092   -1.1756 C.ar      1 <0>        -0.1160
     32 C26        -2.6246   -6.8652   -2.3659 C.ar      1 <0>        -0.1182
     33 C27        -2.6561   -6.1616   -3.5564 C.ar      1 <0>        -0.1186
     34 C28        -2.4363   -4.7990   -3.5617 C.ar      1 <0>        -0.1110
     35 H1          0.1515    1.7615   -0.0627 H         1 <0>         0.0848
     36 H2         -1.4717    2.0186   -0.7464 H         1 <0>         0.0792
     37 H3         -1.2431    1.9939    1.0187 H         1 <0>         0.0823
     38 H4         -1.7990   -1.2187    3.6720 H         1 <0>         0.0584
     39 H5         -0.0567   -1.5014    3.4425 H         1 <0>         0.0581
     40 H6          0.4457    0.5795    4.6939 H         1 <0>         0.0752
     41 H7         -1.2966    0.8622    4.9235 H         1 <0>         0.0758
     42 H8         -1.4834   -1.2850    6.1496 H         1 <0>         0.0742
     43 H9          0.2589   -1.5677    5.9200 H         1 <0>         0.0729
     44 H10         0.7614    0.5132    7.1715 H         1 <0>         0.0542
     45 H11        -0.9810    0.7958    7.4010 H         1 <0>         0.0557
     46 H12         0.7854   -0.6670   12.7835 H         1 <0>         0.0891
     47 H13         0.8166    0.8783   11.9007 H         1 <0>         0.0873
     48 H14        -1.6626    0.9236   11.8923 H         1 <0>         0.0622
     49 H15        -1.6938   -0.6217   12.7752 H         1 <0>         0.0607
     50 H16         1.1541   -2.4871    8.9411 H         1 <0>         0.1253
     51 H17         0.9959   -4.9415    8.9432 H         1 <0>         0.1204
     52 H18        -0.2163   -6.0993   10.7436 H         1 <0>         0.1198
     53 H19        -1.2757   -4.8119   12.5523 H         1 <0>         0.1247
     54 H20        -1.1194   -2.3574   12.5760 H         1 <0>         0.1350
     55 H21        -1.2966    1.1361   -2.3954 H         1 <0>         0.1334
     56 H22        -1.7666   -0.0461   -4.4975 H         1 <0>         0.1317
     57 H23        -2.1695   -2.4707   -4.4910 H         1 <0>         0.1287
     58 H24        -1.6231   -2.5587   -0.2441 H         1 <0>         0.1364
     59 H25        -1.9385   -4.3368   -0.2403 H         1 <0>         0.1266
     60 H26        -2.3439   -6.7634   -0.2490 H         1 <0>         0.1254
     61 H27        -2.8013   -7.9306   -2.3658 H         1 <0>         0.1230
     62 H28        -2.8571   -6.6787   -4.4830 H         1 <0>         0.1243
     63 H29        -2.4659   -4.2498   -4.4911 H         1 <0>         0.1254
@<TRIPOS>BOND
     1    1    2 1
     2    1   35 1
     3    1   36 1
     4    1   37 1
     5    2    3 2
     6    2   23 1
     7    3    4 1
     8    4    5 1
     9    5    6 1
    10    5   38 1
    11    5   39 1
    12    6    7 1
    13    6   40 1
    14    6   41 1
    15    7    8 1
    16    7   42 1
    17    7   43 1
    18    8    9 1
    19    8   44 1
    20    8   45 1
    21    9   10 1
    22   10   11 2
    23   11   12 1
    24   11   17 1
    25   12   13 1
    26   12   46 1
    27   12   47 1
    28   13   14 1
    29   13   48 1
    30   13   49 1
    31   14   15 2
    32   14   16 1
    33   17   22 ar
    34   17   18 ar
    35   18   19 ar
    36   18   50 1
    37   19   20 ar
    38   19   51 1
    39   20   21 ar
    40   20   52 1
    41   21   22 ar
    42   21   53 1
    43   22   54 1
    44   23   28 ar
    45   23   24 ar
    46   24   25 ar
    47   24   55 1
    48   25   26 ar
    49   25   56 1
    50   26   27 ar
    51   26   57 1
    52   27   28 ar
    53   27   29 1
    54   28   58 1
    55   29   34 ar
    56   29   30 ar
    57   30   31 ar
    58   30   59 1
    59   31   32 ar
    60   31   60 1
    61   32   33 ar
    62   32   61 1
    63   33   34 ar
    64   33   62 1
    65   34   63 1
@<TRIPOS>MOLECULE
CHEMBL278590
   67    68     0     0     0
SMALL
USER_CHARGES

@<TRIPOS>ATOM
      1 C1         -0.0957    1.4848    0.0654 C.3       1 <0>        -0.1537
      2 C2         -0.0851   -0.0447    0.0263 C.3       1 <0>        -0.1267
      3 C3          0.6412   -0.5176   -1.2345 C.3       1 <0>        -0.1202
      4 C4          0.6518   -2.0471   -1.2736 C.3       1 <0>        -0.1208
      5 C5          1.3782   -2.5200   -2.5344 C.3       1 <0>        -0.1173
      6 C6          1.3887   -4.0495   -2.5734 C.3       1 <0>        -0.1431
      7 C7          2.1151   -4.5225   -3.8343 C.3       1 <0>         0.1039
      8 N1          2.1252   -5.9869   -3.8717 N.am      1 <0>        -0.6186
      9 C8          1.0324   -6.7106   -4.5261 C.3       1 <0>         0.1363
     10 C9          1.3747   -6.9256   -6.0017 C.3       1 <0>        -0.0906
     11 C10         0.2505   -7.6700   -6.6749 C.ar      1 <0>        -0.0767
     12 C11         0.2589   -9.0526   -6.7043 C.ar      1 <0>        -0.1216
     13 C12        -0.7692   -9.7380   -7.3206 C.ar      1 <0>        -0.0741
     14 C13        -1.8135   -9.0368   -7.9114 C.ar      1 <0>        -0.1117
     15 C14        -1.8188   -7.6474   -7.8795 C.ar      1 <0>        -0.0753
     16 C15        -0.7899   -6.9688   -7.2569 C.ar      1 <0>        -0.1266
     17 S1         -3.1273   -9.9070   -8.6995 S.3       1 <0>        -0.1182
     18 C16        -4.2728  -10.2914   -7.3466 C.3       1 <0>        -0.1031
     19 C17        -3.5259  -11.0454   -6.2445 C.3       1 <0>        -0.1229
     20 C18        -4.8446   -8.9913   -6.7776 C.3       1 <0>        -0.1192
     21 C19        -5.3971  -11.1486   -7.8684 C.2       1 <0>         0.5218
     22 O1         -5.4231  -11.4704   -9.0441 O.co2     1 <0>        -0.6724
     23 O2         -6.2806  -11.5204   -7.1150 O.co2     1 <0>        -0.6813
     24 C20         3.1399   -6.6685   -3.3040 C.2       1 <0>         0.7074
     25 O3          3.1484   -7.8840   -3.3350 O.2       1 <0>        -0.5635
     26 N2          4.1453   -6.0028   -2.7019 N.am      1 <0>        -0.6843
     27 C21         5.2594   -6.7033   -2.2187 C.ar      1 <0>         0.1320
     28 C22         5.7159   -7.8300   -2.8881 C.ar      1 <0>        -0.0648
     29 C23         6.8142   -8.5189   -2.4108 C.ar      1 <0>        -0.1381
     30 C24         7.4602   -8.0869   -1.2647 C.ar      1 <0>         0.1105
     31 C25         7.0075   -6.9636   -0.5939 C.ar      1 <0>        -0.1704
     32 C26         5.9121   -6.2671   -1.0713 C.ar      1 <0>         0.0974
     33 F1          5.4736   -5.1674   -0.4205 F         1 <0>        -0.1296
     34 F2          8.5337   -8.7629   -0.8002 F         1 <0>        -0.1315
     35 H1          0.9294    1.8551    0.0761 H         1 <0>         0.0527
     36 H2         -0.6109    1.8672   -0.8158 H         1 <0>         0.0535
     37 H3         -0.6131    1.8217    0.9636 H         1 <0>         0.0529
     38 H4          0.4301   -0.4271    0.9075 H         1 <0>         0.0601
     39 H5         -1.1102   -0.4150    0.0156 H         1 <0>         0.0611
     40 H6          0.1260   -0.1352   -2.1157 H         1 <0>         0.0616
     41 H7          1.6664   -0.1473   -1.2238 H         1 <0>         0.0605
     42 H8          1.1670   -2.4295   -0.3924 H         1 <0>         0.0613
     43 H9         -0.3733   -2.4174   -1.2843 H         1 <0>         0.0629
     44 H10         0.8629   -2.1376   -3.4155 H         1 <0>         0.0662
     45 H11         2.4033   -2.1498   -2.5236 H         1 <0>         0.0630
     46 H12         1.9040   -4.4319   -1.6923 H         1 <0>         0.0645
     47 H13         0.3636   -4.4198   -2.5842 H         1 <0>         0.0728
     48 H14         1.5999   -4.1401   -4.7154 H         1 <0>         0.0899
     49 H15         3.1402   -4.1522   -3.8235 H         1 <0>         0.0729
     50 H16         0.8943   -7.6767   -4.0406 H         1 <0>         0.0907
     51 H17         0.1134   -6.1296   -4.4472 H         1 <0>         0.0828
     52 H18         1.5128   -5.9595   -6.4872 H         1 <0>         0.0712
     53 H19         2.2936   -7.5065   -6.0806 H         1 <0>         0.0761
     54 H20         1.0708   -9.5969   -6.2450 H         1 <0>         0.1222
     55 H21        -0.7616  -10.8178   -7.3438 H         1 <0>         0.1276
     56 H22        -2.6287   -7.0991   -8.3376 H         1 <0>         0.1273
     57 H23        -0.7954   -5.8892   -7.2282 H         1 <0>         0.1193
     58 H24        -2.7711  -10.3930   -5.8053 H         1 <0>         0.0426
     59 H25        -4.2315  -11.3551   -5.4737 H         1 <0>         0.0660
     60 H26        -3.0428  -11.9253   -6.6695 H         1 <0>         0.0561
     61 H27        -5.2997   -8.4122   -7.5811 H         1 <0>         0.0564
     62 H28        -5.5986   -9.2244   -6.0257 H         1 <0>         0.0650
     63 H29        -4.0430   -8.4112   -6.3206 H         1 <0>         0.0406
     64 H30         4.0981   -5.0390   -2.6030 H         1 <0>         0.4102
     65 H31         5.2125   -8.1683   -3.7817 H         1 <0>         0.1571
     66 H32         7.1692   -9.3956   -2.9321 H         1 <0>         0.1478
     67 H33         7.5125   -6.6285    0.3000 H         1 <0>         0.1521
@<TRIPOS>BOND
     1    1    2 1
     2    1   35 1
     3    1   36 1
     4    1   37 1
     5    2    3 1
     6    2   38 1
     7    2   39 1
     8    3    4 1
     9    3   40 1
    10    3   41 1
    11    4    5 1
    12    4   42 1
    13    4   43 1
    14    5    6 1
    15    5   44 1
    16    5   45 1
    17    6    7 1
    18    6   46 1
    19    6   47 1
    20    7    8 1
    21    7   48 1
    22    7   49 1
    23    8    9 1
    24    8   24 am
    25    9   10 1
    26    9   50 1
    27    9   51 1
    28   10   11 1
    29   10   52 1
    30   10   53 1
    31   11   16 ar
    32   11   12 ar
    33   12   13 ar
    34   12   54 1
    35   13   14 ar
    36   13   55 1
    37   14   15 ar
    38   14   17 1
    39   15   16 ar
    40   15   56 1
    41   16   57 1
    42   17   18 1
    43   18   19 1
    44   18   20 1
    45   18   21 1
    46   19   58 1
    47   19   59 1
    48   19   60 1
    49   20   61 1
    50   20   62 1
    51   20   63 1
    52   21   22 2
    53   21   23 1
    54   24   25 2
    55   24   26 am
    56   26   27 1
    57   26   64 1
    58   27   32 ar
    59   27   28 ar
    60   28   29 ar
    61   28   65 1
    62   29   30 ar
    63   29   66 1
    64   30   31 ar
    65   30   34 1
    66   31   32 ar
    67   31   67 1
    68   32   33 1
@<TRIPOS>MOLECULE
CHEMBL20495
   80    83     0     0     0
SMALL
USER_CHARGES

@<TRIPOS>ATOM
      1 C1          0.0092    0.2231   -0.5366 C.3       1 <0>        -0.1081
      2 C2          1.5118    0.4566   -0.3671 C.3       1 <0>        -0.1190
      3 C3          1.7700    1.9403   -0.0972 C.3       1 <0>        -0.1351
      4 C4          2.0195   -0.3607    0.7927 C.2       1 <0>         0.5011
      5 O1          2.8841   -1.2015    0.6138 O.co2     1 <0>        -0.6635
      6 O2          1.5656   -0.1812    1.9100 O.co2     1 <0>        -0.6826
      7 S1          2.3758   -0.0417   -1.8822 S.3       1 <0>        -0.1254
      8 C5          4.0814    0.1451   -1.4813 C.ar      1 <0>        -0.0373
      9 C6          4.4545    0.6375   -0.2364 C.ar      1 <0>        -0.0868
     10 C7          5.7920    0.7826    0.0743 C.ar      1 <0>        -0.1040
     11 C8          6.7600    0.4385   -0.8516 C.ar      1 <0>        -0.1091
     12 C9          6.3925   -0.0514   -2.0917 C.ar      1 <0>        -0.1093
     13 C10         5.0570   -0.2050   -2.4071 C.ar      1 <0>        -0.1123
     14 C11         8.2188    0.5983   -0.5087 C.3       1 <0>        -0.0877
     15 C12         8.7364   -0.6913    0.1316 C.3       1 <0>         0.1080
     16 N1         10.1545   -0.5359    0.4650 N.am      1 <0>        -0.6202
     17 C13        10.5457   -0.0167    1.7778 C.3       1 <0>         0.1397
     18 C14        10.7058   -1.1796    2.7591 C.3       1 <0>        -0.0993
     19 C15        11.1083   -0.6454    4.1096 C.ar      1 <0>        -0.0729
     20 C16        12.4479   -0.4945    4.4196 C.ar      1 <0>        -0.1097
     21 C17        12.8221   -0.0058    5.6549 C.ar      1 <0>        -0.1084
     22 C18        11.8477    0.3358    6.5905 C.ar      1 <0>        -0.0544
     23 C19        10.4998    0.1817    6.2729 C.ar      1 <0>        -0.1064
     24 C20        10.1367   -0.3026    5.0325 C.ar      1 <0>        -0.1112
     25 C21        12.2440    0.8613    7.9204 C.ar      1 <0>        -0.0403
     26 C22        13.5918    1.0204    8.2361 C.ar      1 <0>        -0.1134
     27 C23        13.9547    1.5100    9.4744 C.ar      1 <0>        -0.1185
     28 C24        12.9834    1.8422   10.4015 C.ar      1 <0>        -0.1230
     29 C25        11.6440    1.6858   10.0936 C.ar      1 <0>        -0.1172
     30 C26        11.2696    1.2029    8.8560 C.ar      1 <0>        -0.1122
     31 C27        11.0991   -0.8707   -0.4361 C.2       1 <0>         0.7092
     32 O3         12.2762   -0.7418   -0.1595 O.2       1 <0>        -0.5795
     33 N2         10.7392   -1.3484   -1.6439 N.am      1 <0>        -0.6727
     34 C28        11.7222   -1.7642   -2.5556 C.ar      1 <0>         0.1065
     35 C29        12.9978   -1.2234   -2.4955 C.ar      1 <0>        -0.0576
     36 C30        13.9654   -1.6323   -3.3933 C.ar      1 <0>        -0.2231
     37 C31        13.6635   -2.5840   -4.3563 C.ar      1 <0>         0.1429
     38 C32        12.3894   -3.1277   -4.4203 C.ar      1 <0>        -0.2230
     39 C33        11.4190   -2.7244   -3.5178 C.ar      1 <0>         0.1358
     40 O4         10.1708   -3.2606   -3.5751 O.3       1 <0>        -0.3124
     41 C34         9.9313   -4.2401   -4.5876 C.3       1 <0>         0.0279
     42 O5         14.6177   -2.9840   -5.2386 O.3       1 <0>        -0.3189
     43 C35        15.9080   -2.3823   -5.1157 C.3       1 <0>         0.0279
     44 H1         -0.3746    0.8792   -1.3178 H         1 <0>         0.0494
     45 H2         -0.1678   -0.8158   -0.8152 H         1 <0>         0.0554
     46 H3         -0.5003    0.4393    0.4024 H         1 <0>         0.0741
     47 H4          1.3506    2.2118    0.8716 H         1 <0>         0.0683
     48 H5          2.8438    2.1275   -0.0936 H         1 <0>         0.0595
     49 H6          1.2995    2.5388   -0.8774 H         1 <0>         0.0524
     50 H7          3.6991    0.9067    0.4870 H         1 <0>         0.1364
     51 H8          6.0826    1.1655    1.0414 H         1 <0>         0.1142
     52 H9          7.1511   -0.3188   -2.8124 H         1 <0>         0.1150
     53 H10         4.7708   -0.5925   -3.3737 H         1 <0>         0.1176
     54 H11         8.7849    0.8057   -1.4168 H         1 <0>         0.0685
     55 H12         8.3390    1.4252    0.1912 H         1 <0>         0.0745
     56 H13         8.1703   -0.8987    1.0397 H         1 <0>         0.0914
     57 H14         8.6161   -1.5182   -0.5683 H         1 <0>         0.0783
     58 H15        11.4917    0.5175    1.6900 H         1 <0>         0.0874
     59 H16         9.7767    0.6639    2.1433 H         1 <0>         0.0817
     60 H17         9.7598   -1.7138    2.8469 H         1 <0>         0.0766
     61 H18        11.4749   -1.8601    2.3937 H         1 <0>         0.0782
     62 H19        13.2023   -0.7599    3.6938 H         1 <0>         0.1257
     63 H20        13.8683    0.1114    5.8961 H         1 <0>         0.1233
     64 H21         9.7404    0.4446    6.9945 H         1 <0>         0.1252
     65 H22         9.0921   -0.4180    4.7835 H         1 <0>         0.1274
     66 H23        14.3510    0.7607    7.5133 H         1 <0>         0.1247
     67 H24        14.9991    1.6337    9.7201 H         1 <0>         0.1227
     68 H25        13.2718    2.2246   11.3694 H         1 <0>         0.1212
     69 H26        10.8896    1.9463   10.8213 H         1 <0>         0.1237
     70 H27        10.2234    1.0854    8.6150 H         1 <0>         0.1263
     71 H28         9.8008   -1.4049   -1.8831 H         1 <0>         0.4127
     72 H29        13.2349   -0.4820   -1.7469 H         1 <0>         0.1649
     73 H30        14.9583   -1.2099   -3.3454 H         1 <0>         0.1310
     74 H31        12.1549   -3.8681   -5.1708 H         1 <0>         0.1391
     75 H32         8.8993   -4.5850   -4.5226 H         1 <0>         0.1036
     76 H33        10.1056   -3.7985   -5.5688 H         1 <0>         0.0574
     77 H34        10.6062   -5.0838   -4.4438 H         1 <0>         0.0567
     78 H35        15.8202   -1.3040   -5.2481 H         1 <0>         0.0563
     79 H36        16.3154   -2.5951   -4.1273 H         1 <0>         0.0563
     80 H37        16.5726   -2.7891   -5.8778 H         1 <0>         0.0983
@<TRIPOS>BOND
     1    1    2 1
     2    1   44 1
     3    1   45 1
     4    1   46 1
     5    2    3 1
     6    2    4 1
     7    2    7 1
     8    3   47 1
     9    3   48 1
    10    3   49 1
    11    4    5 2
    12    4    6 1
    13    7    8 1
    14    8   13 ar
    15    8    9 ar
    16    9   10 ar
    17    9   50 1
    18   10   11 ar
    19   10   51 1
    20   11   12 ar
    21   11   14 1
    22   12   13 ar
    23   12   52 1
    24   13   53 1
    25   14   15 1
    26   14   54 1
    27   14   55 1
    28   15   16 1
    29   15   56 1
    30   15   57 1
    31   16   17 1
    32   16   31 am
    33   17   18 1
    34   17   58 1
    35   17   59 1
    36   18   19 1
    37   18   60 1
    38   18   61 1
    39   19   24 ar
    40   19   20 ar
    41   20   21 ar
    42   20   62 1
    43   21   22 ar
    44   21   63 1
    45   22   23 ar
    46   22   25 1
    47   23   24 ar
    48   23   64 1
    49   24   65 1
    50   25   30 ar
    51   25   26 ar
    52   26   27 ar
    53   26   66 1
    54   27   28 ar
    55   27   67 1
    56   28   29 ar
    57   28   68 1
    58   29   30 ar
    59   29   69 1
    60   30   70 1
    61   31   32 2
    62   31   33 am
    63   33   34 1
    64   33   71 1
    65   34   39 ar
    66   34   35 ar
    67   35   36 ar
    68   35   72 1
    69   36   37 ar
    70   36   73 1
    71   37   38 ar
    72   37   42 1
    73   38   39 ar
    74   38   74 1
    75   39   40 1
    76   40   41 1
    77   41   75 1
    78   41   76 1
    79   41   77 1
    80   42   43 1
    81   43   78 1
    82   43   79 1
    83   43   80 1
@<TRIPOS>MOLECULE
CHEMBL118251
   69    72     0     0     0
SMALL
USER_CHARGES

@<TRIPOS>ATOM
      1 C1         -0.0187    1.5258    0.0104 C.3       1 <0>        -0.1525
      2 C2          0.0021   -0.0041    0.0020 C.3       1 <0>        -0.1158
      3 C3         -1.4333   -0.5336    0.0129 C.3       1 <0>        -0.0713
      4 C4         -1.4129   -2.0405    0.0046 C.ar      1 <0>        -0.1072
      5 C5         -1.6056   -2.7410    1.1798 C.ar      1 <0>        -0.0778
      6 C6         -1.5864   -4.1233    1.1729 C.ar      1 <0>        -0.1091
      7 C7         -1.3750   -4.8084   -0.0096 C.ar      1 <0>        -0.0791
      8 C8         -1.1823   -4.1127   -1.1871 C.ar      1 <0>        -0.2034
      9 C9         -1.2062   -2.7254   -1.1838 C.ar      1 <0>         0.1266
     10 O1         -1.0225   -2.0387   -2.3421 O.3       1 <0>        -0.3071
     11 C10        -0.8152   -2.8094   -3.5274 C.3       1 <0>         0.0645
     12 C11        -0.6290   -1.8700   -4.7206 C.3       1 <0>        -0.1197
     13 C12        -0.4071   -2.6953   -5.9897 C.3       1 <0>         0.0636
     14 O2         -0.2331   -1.8179   -7.1041 O.3       1 <0>        -0.3076
     15 C13        -0.0238   -2.3947   -8.3167 C.ar      1 <0>         0.1355
     16 C14         0.0075   -3.7770   -8.4325 C.ar      1 <0>        -0.1909
     17 C15         0.2199   -4.3608   -9.6662 C.ar      1 <0>        -0.0733
     18 C16         0.4012   -3.5688  -10.7852 C.ar      1 <0>        -0.1312
     19 C17         0.3708   -2.1913  -10.6724 C.ar      1 <0>        -0.0713
     20 C18         0.1530   -1.6025   -9.4415 C.ar      1 <0>        -0.1182
     21 C19         0.5692   -1.3313  -11.8938 C.3       1 <0>         0.0882
     22 C20        -0.7213   -1.2199  -12.6800 C.2       1 <0>         0.5126
     23 O3         -1.7724   -0.7487  -12.3019 O.2       1 <0>        -0.4339
     24 N1         -0.4545   -1.7547  -13.8891 N.am      1 <0>        -0.6835
     25 C21         0.8150   -2.1763  -13.9522 C.2       1 <0>         0.6500
     26 O4          1.3072   -2.6963  -14.9334 O.2       1 <0>        -0.4649
     27 O5          1.4816   -1.9584  -12.8077 O.3       1 <0>        -0.2873
     28 C22        -1.7959   -4.8849    2.4564 C.3       1 <0>        -0.0389
     29 C23        -0.5212   -5.6944    2.7705 C.3       1 <0>        -0.1073
     30 C24        -0.5157   -6.0268    4.2381 C.3       1 <0>        -0.1196
     31 C25        -1.1228   -7.4122    4.5309 C.3       1 <0>        -0.1178
     32 C26        -2.3893   -7.6970    3.7012 C.3       1 <0>        -0.1196
     33 C27        -3.2993   -6.5020    3.6108 C.3       1 <0>        -0.1173
     34 C28        -2.9706   -5.7324    2.3151 C.3       1 <0>        -0.1115
     35 H1          1.0039    1.9031    0.0027 H         1 <0>         0.0538
     36 H2         -0.5459    1.8868   -0.8726 H         1 <0>         0.0545
     37 H3         -0.5289    1.8773    0.9072 H         1 <0>         0.0531
     38 H4          0.5123   -0.3556   -0.8948 H         1 <0>         0.0641
     39 H5          0.5293   -0.3651    0.8851 H         1 <0>         0.0590
     40 H6         -1.9435   -0.1821    0.9097 H         1 <0>         0.0689
     41 H7         -1.9605   -0.1726   -0.8702 H         1 <0>         0.0743
     42 H8         -1.7709   -2.2083    2.1046 H         1 <0>         0.1269
     43 H9         -1.3601   -5.8883   -0.0123 H         1 <0>         0.1221
     44 H10        -1.0171   -4.6482   -2.1104 H         1 <0>         0.1253
     45 H11         0.0753   -3.4266   -3.4084 H         1 <0>         0.0653
     46 H12        -1.6804   -3.4495   -3.7005 H         1 <0>         0.0650
     47 H13        -1.5195   -1.2528   -4.8396 H         1 <0>         0.0881
     48 H14         0.2362   -1.2300   -4.5475 H         1 <0>         0.0882
     49 H15         0.4834   -3.3125   -5.8706 H         1 <0>         0.0685
     50 H16        -1.2722   -3.3353   -6.1627 H         1 <0>         0.0682
     51 H17        -0.1336   -4.3959   -7.5588 H         1 <0>         0.1341
     52 H18         0.2448   -5.4367   -9.7568 H         1 <0>         0.1343
     53 H19         0.5671   -4.0272  -11.7490 H         1 <0>         0.1252
     54 H20         0.1249   -0.5264   -9.3546 H         1 <0>         0.1417
     55 H21         0.9320   -0.3436  -11.6094 H         1 <0>         0.1633
     56 H22        -1.0949   -1.8241  -14.6143 H         1 <0>         0.4455
     57 H23        -1.9688   -4.1738    3.2641 H         1 <0>         0.0742
     58 H24        -0.5188   -6.6149    2.1866 H         1 <0>         0.0660
     59 H25         0.3594   -5.1003    2.5263 H         1 <0>         0.0637
     60 H26         0.5123   -6.0085    4.6000 H         1 <0>         0.0588
     61 H27        -1.0895   -5.2701    4.7732 H         1 <0>         0.0612
     62 H28        -0.3779   -8.1764    4.3089 H         1 <0>         0.0575
     63 H29        -1.3761   -7.4683    5.5896 H         1 <0>         0.0580
     64 H30        -2.0926   -7.9912    2.6945 H         1 <0>         0.0598
     65 H31        -2.9343   -8.5213    4.1612 H         1 <0>         0.0573
     66 H32        -4.3375   -6.8334    3.5865 H         1 <0>         0.0625
     67 H33        -3.1391   -5.8538    4.4724 H         1 <0>         0.0660
     68 H34        -3.8247   -5.1102    2.0478 H         1 <0>         0.0601
     69 H35        -2.7942   -6.4497    1.5136 H         1 <0>         0.0615
@<TRIPOS>BOND
     1    1    2 1
     2    1   35 1
     3    1   36 1
     4    1   37 1
     5    2    3 1
     6    2   38 1
     7    2   39 1
     8    3    4 1
     9    3   40 1
    10    3   41 1
    11    4    9 ar
    12    4    5 ar
    13    5    6 ar
    14    5   42 1
    15    6    7 ar
    16    6   28 1
    17    7    8 ar
    18    7   43 1
    19    8    9 ar
    20    8   44 1
    21    9   10 1
    22   10   11 1
    23   11   12 1
    24   11   45 1
    25   11   46 1
    26   12   13 1
    27   12   47 1
    28   12   48 1
    29   13   14 1
    30   13   49 1
    31   13   50 1
    32   14   15 1
    33   15   20 ar
    34   15   16 ar
    35   16   17 ar
    36   16   51 1
    37   17   18 ar
    38   17   52 1
    39   18   19 ar
    40   18   53 1
    41   19   20 ar
    42   19   21 1
    43   20   54 1
    44   21   27 1
    45   21   22 1
    46   21   55 1
    47   22   23 2
    48   22   24 am
    49   24   25 am
    50   24   56 1
    51   25   26 2
    52   25   27 1
    53   28   34 1
    54   28   29 1
    55   28   57 1
    56   29   30 1
    57   29   58 1
    58   29   59 1
    59   30   31 1
    60   30   60 1
    61   30   61 1
    62   31   32 1
    63   31   62 1
    64   31   63 1
    65   32   33 1
    66   32   64 1
    67   32   65 1
    68   33   34 1
    69   33   66 1
    70   33   67 1
    71   34   68 1
    72   34   69 1
@<TRIPOS>MOLECULE
CHEMBL118251__1
   69    72     0     0     0
SMALL
USER_CHARGES

@<TRIPOS>ATOM
      1 C1         -0.0187    1.5258    0.0104 C.3       1 <0>        -0.1524
      2 C2          0.0021   -0.0041    0.0020 C.3       1 <0>        -0.1159
      3 C3         -1.4333   -0.5336    0.0129 C.3       1 <0>        -0.0712
      4 C4         -1.4129   -2.0405    0.0046 C.ar      1 <0>        -0.1072
      5 C5         -1.6056   -2.7410    1.1798 C.ar      1 <0>        -0.0778
      6 C6         -1.5864   -4.1233    1.1729 C.ar      1 <0>        -0.1091
      7 C7         -1.3750   -4.8084   -0.0096 C.ar      1 <0>        -0.0791
      8 C8         -1.1823   -4.1127   -1.1871 C.ar      1 <0>        -0.2034
      9 C9         -1.2062   -2.7254   -1.1838 C.ar      1 <0>         0.1266
     10 O1         -1.0225   -2.0387   -2.3421 O.3       1 <0>        -0.3071
     11 C10        -0.8152   -2.8094   -3.5274 C.3       1 <0>         0.0645
     12 C11        -0.6290   -1.8700   -4.7206 C.3       1 <0>        -0.1197
     13 C12        -0.4071   -2.6953   -5.9897 C.3       1 <0>         0.0635
     14 O2         -0.2331   -1.8179   -7.1041 O.3       1 <0>        -0.3076
     15 C13        -0.0238   -2.3947   -8.3167 C.ar      1 <0>         0.1354
     16 C14         0.0075   -3.7770   -8.4325 C.ar      1 <0>        -0.1904
     17 C15         0.2199   -4.3608   -9.6662 C.ar      1 <0>        -0.0731
     18 C16         0.4012   -3.5688  -10.7852 C.ar      1 <0>        -0.1313
     19 C17         0.3708   -2.1913  -10.6724 C.ar      1 <0>        -0.0706
     20 C18         0.1530   -1.6025   -9.4415 C.ar      1 <0>        -0.1175
     21 C19         0.5692   -1.3313  -11.8938 C.3       1 <0>         0.0879
     22 C20         2.0320   -1.2969  -12.2870 C.2       1 <0>         0.5127
     23 O3          2.9598   -0.8820  -11.6261 O.2       1 <0>        -0.4339
     24 N1          2.0850   -1.8257  -13.5266 N.am      1 <0>        -0.6837
     25 C21         0.8626   -2.1777  -13.9455 C.2       1 <0>         0.6498
     26 O4          0.6366   -2.6776  -15.0291 O.2       1 <0>        -0.4648
     27 O5         -0.0844   -1.9146  -13.0312 O.3       1 <0>        -0.2872
     28 C22        -1.7959   -4.8849    2.4564 C.3       1 <0>        -0.0389
     29 C23        -0.5212   -5.6944    2.7705 C.3       1 <0>        -0.1073
     30 C24        -0.5157   -6.0268    4.2381 C.3       1 <0>        -0.1196
     31 C25        -1.1228   -7.4122    4.5309 C.3       1 <0>        -0.1178
     32 C26        -2.3893   -7.6970    3.7012 C.3       1 <0>        -0.1196
     33 C27        -3.2993   -6.5020    3.6108 C.3       1 <0>        -0.1173
     34 C28        -2.9706   -5.7324    2.3151 C.3       1 <0>        -0.1114
     35 H1          1.0039    1.9031    0.0027 H         1 <0>         0.0538
     36 H2         -0.5459    1.8868   -0.8726 H         1 <0>         0.0545
     37 H3         -0.5289    1.8773    0.9072 H         1 <0>         0.0531
     38 H4          0.5123   -0.3556   -0.8948 H         1 <0>         0.0641
     39 H5          0.5293   -0.3651    0.8851 H         1 <0>         0.0590
     40 H6         -1.9435   -0.1821    0.9097 H         1 <0>         0.0689
     41 H7         -1.9605   -0.1726   -0.8702 H         1 <0>         0.0743
     42 H8         -1.7709   -2.2083    2.1046 H         1 <0>         0.1269
     43 H9         -1.3601   -5.8883   -0.0123 H         1 <0>         0.1221
     44 H10        -1.0171   -4.6482   -2.1104 H         1 <0>         0.1253
     45 H11         0.0753   -3.4266   -3.4084 H         1 <0>         0.0652
     46 H12        -1.6804   -3.4495   -3.7005 H         1 <0>         0.0651
     47 H13        -1.5195   -1.2528   -4.8396 H         1 <0>         0.0881
     48 H14         0.2362   -1.2300   -4.5475 H         1 <0>         0.0881
     49 H15         0.4834   -3.3125   -5.8706 H         1 <0>         0.0683
     50 H16        -1.2722   -3.3353   -6.1627 H         1 <0>         0.0685
     51 H17        -0.1336   -4.3959   -7.5588 H         1 <0>         0.1342
     52 H18         0.2448   -5.4367   -9.7568 H         1 <0>         0.1343
     53 H19         0.5671   -4.0272  -11.7490 H         1 <0>         0.1238
     54 H20         0.1249   -0.5264   -9.3546 H         1 <0>         0.1419
     55 H21         0.1960   -0.3230  -11.7145 H         1 <0>         0.1629
     56 H22         2.8978   -1.9363  -14.0442 H         1 <0>         0.4454
     57 H23        -1.9688   -4.1738    3.2641 H         1 <0>         0.0742
     58 H24        -0.5188   -6.6149    2.1866 H         1 <0>         0.0660
     59 H25         0.3594   -5.1003    2.5263 H         1 <0>         0.0637
     60 H26         0.5123   -6.0085    4.6000 H         1 <0>         0.0588
     61 H27        -1.0895   -5.2701    4.7732 H         1 <0>         0.0612
     62 H28        -0.3779   -8.1764    4.3089 H         1 <0>         0.0575
     63 H29        -1.3761   -7.4683    5.5896 H         1 <0>         0.0580
     64 H30        -2.0926   -7.9912    2.6945 H         1 <0>         0.0598
     65 H31        -2.9343   -8.5213    4.1612 H         1 <0>         0.0573
     66 H32        -4.3375   -6.8334    3.5865 H         1 <0>         0.0625
     67 H33        -3.1391   -5.8538    4.4724 H         1 <0>         0.0660
     68 H34        -3.8247   -5.1102    2.0478 H         1 <0>         0.0601
     69 H35        -2.7942   -6.4497    1.5136 H         1 <0>         0.0615
@<TRIPOS>BOND
     1    1    2 1
     2    1   35 1
     3    1   36 1
     4    1   37 1
     5    2    3 1
     6    2   38 1
     7    2   39 1
     8    3    4 1
     9    3   40 1
    10    3   41 1
    11    4    9 ar
    12    4    5 ar
    13    5    6 ar
    14    5   42 1
    15    6    7 ar
    16    6   28 1
    17    7    8 ar
    18    7   43 1
    19    8    9 ar
    20    8   44 1
    21    9   10 1
    22   10   11 1
    23   11   12 1
    24   11   45 1
    25   11   46 1
    26   12   13 1
    27   12   47 1
    28   12   48 1
    29   13   14 1
    30   13   49 1
    31   13   50 1
    32   14   15 1
    33   15   20 ar
    34   15   16 ar
    35   16   17 ar
    36   16   51 1
    37   17   18 ar
    38   17   52 1
    39   18   19 ar
    40   18   53 1
    41   19   20 ar
    42   19   21 1
    43   20   54 1
    44   21   27 1
    45   21   22 1
    46   21   55 1
    47   22   23 2
    48   22   24 am
    49   24   25 am
    50   24   56 1
    51   25   26 2
    52   25   27 1
    53   28   34 1
    54   28   29 1
    55   28   57 1
    56   29   30 1
    57   29   58 1
    58   29   59 1
    59   30   31 1
    60   30   60 1
    61   30   61 1
    62   31   32 1
    63   31   62 1
    64   31   63 1
    65   32   33 1
    66   32   64 1
    67   32   65 1
    68   33   34 1
    69   33   66 1
    70   33   67 1
    71   34   68 1
    72   34   69 1
@<TRIPOS>MOLECULE
CHEMBL1088911
   64    67     0     0     0
SMALL
USER_CHARGES

@<TRIPOS>ATOM
      1 C1          0.0636    1.5033    0.0008 C.3       1 <0>        -0.1101
      2 C2          0.0621   -0.0037   -0.0050 C.ar      1 <0>        -0.0968
      3 C3          1.2238   -0.6961    0.2828 C.ar      1 <0>        -0.1054
      4 C4          1.2250   -2.0775    0.2781 C.ar      1 <0>        -0.1137
      5 C5          0.0593   -2.7700   -0.0151 C.ar      1 <0>         0.1164
      6 C6         -1.1051   -2.0730   -0.3030 C.ar      1 <0>        -0.1186
      7 C7         -1.1023   -0.6916   -0.2923 C.ar      1 <0>        -0.1094
      8 O1          0.0580   -4.1294   -0.0207 O.3       1 <0>        -0.3025
      9 C8          0.1763   -4.7666    1.1599 C.2       1 <0>         0.6613
     10 O2          0.1716   -4.1319    2.1961 O.2       1 <0>        -0.5758
     11 N1          0.2999   -6.1083    1.1920 N.am      1 <0>        -0.5506
     12 C9          0.4286   -6.8015    2.4762 C.3       1 <0>         0.1780
     13 C10        -0.9405   -7.1677    2.9887 C.ar      1 <0>        -0.0644
     14 C11        -1.6365   -6.2834    3.7924 C.ar      1 <0>        -0.1282
     15 C12        -2.8926   -6.6163    4.2642 C.ar      1 <0>        -0.0871
     16 C13        -3.4555   -7.8342    3.9341 C.ar      1 <0>        -0.2072
     17 C14        -2.7593   -8.7229    3.1281 C.ar      1 <0>         0.1234
     18 C15        -1.5013   -8.3839    2.6508 C.ar      1 <0>        -0.1311
     19 O3         -3.3108   -9.9214    2.8019 O.3       1 <0>        -0.3128
     20 C16        -4.6113  -10.2007    3.3241 C.3       1 <0>         0.0688
     21 C17        -5.0635  -11.5845    2.8533 C.3       1 <0>        -0.0365
     22 C18        -6.4350  -11.8790    3.4040 C.2       1 <0>        -0.0052
     23 C19        -6.7056  -12.4766    4.5785 C.2       1 <0>        -0.0277
     24 O4         -8.0468  -12.5491    4.6911 O.3       1 <0>        -0.1926
     25 C20        -8.5799  -11.9968    3.5876 C.2       1 <0>         0.2245
     26 N2         -7.6034  -11.5868    2.8127 N.2       1 <0>        -0.4538
     27 C21       -10.0236  -11.8672    3.2985 C.ar      1 <0>        -0.0099
     28 C22       -10.4495  -11.2766    2.1076 C.ar      1 <0>        -0.0580
     29 C23       -11.7981  -11.1589    1.8432 C.ar      1 <0>        -0.1096
     30 C24       -12.7288  -11.6253    2.7564 C.ar      1 <0>        -0.0193
     31 C25       -12.3124  -12.2118    3.9397 C.ar      1 <0>        -0.1107
     32 C26       -10.9665  -12.3403    4.2126 C.ar      1 <0>        -0.0780
     33 Cl1       -14.4245  -11.4737    2.4165 Cl        1 <0>        -0.0615
     34 C27        -5.6966  -12.9734    5.5816 C.3       1 <0>        -0.0734
     35 C28         0.3056   -6.8735   -0.0573 C.3       1 <0>         0.0400
     36 C29         1.7207   -7.0075   -0.5579 C.2       1 <0>         0.4825
     37 O5          2.6393   -6.5099    0.0706 O.co2     1 <0>        -0.6835
     38 O6          1.9469   -7.6134   -1.5914 O.co2     1 <0>        -0.6963
     39 H1         -0.1802    1.8631    1.0004 H         1 <0>         0.0684
     40 H2          1.0506    1.8668   -0.2854 H         1 <0>         0.0654
     41 H3         -0.6784    1.8701   -0.7084 H         1 <0>         0.0646
     42 H4          2.1311   -0.1565    0.5109 H         1 <0>         0.1265
     43 H5          2.1328   -2.6180    0.5022 H         1 <0>         0.1315
     44 H6         -2.0138   -2.6099   -0.5319 H         1 <0>         0.1286
     45 H7         -2.0094   -0.1485   -0.5127 H         1 <0>         0.1266
     46 H8          1.0206   -7.7069    2.3426 H         1 <0>         0.0957
     47 H9          0.9224   -6.1471    3.1944 H         1 <0>         0.0959
     48 H10        -1.1980   -5.3312    4.0522 H         1 <0>         0.1318
     49 H11        -3.4342   -5.9240    4.8917 H         1 <0>         0.1219
     50 H12        -4.4365   -8.0941    4.3035 H         1 <0>         0.1217
     51 H13        -0.9593   -9.0721    2.0193 H         1 <0>         0.1331
     52 H14        -4.5775  -10.1806    4.4134 H         1 <0>         0.0607
     53 H15        -5.3150   -9.4480    2.9685 H         1 <0>         0.0647
     54 H16        -5.0973  -11.6045    1.7640 H         1 <0>         0.0969
     55 H17        -4.3599  -12.3371    3.2089 H         1 <0>         0.0945
     56 H18        -9.7245  -10.9122    1.3949 H         1 <0>         0.1498
     57 H19       -12.1288  -10.7018    0.9223 H         1 <0>         0.1446
     58 H20       -13.0429  -12.5734    4.6483 H         1 <0>         0.1423
     59 H21       -10.6428  -12.8022    5.1337 H         1 <0>         0.1407
     60 H22        -5.4633  -12.1764    6.2876 H         1 <0>         0.0889
     61 H23        -6.1093  -13.8265    6.1201 H         1 <0>         0.0819
     62 H24        -4.7873  -13.2767    5.0626 H         1 <0>         0.0980
     63 H25        -0.1118   -7.8644    0.1217 H         1 <0>         0.0790
     64 H26        -0.2963   -6.3551   -0.8037 H         1 <0>         0.0815
@<TRIPOS>BOND
     1    1    2 1
     2    1   39 1
     3    1   40 1
     4    1   41 1
     5    2    7 ar
     6    2    3 ar
     7    3    4 ar
     8    3   42 1
     9    4    5 ar
    10    4   43 1
    11    5    6 ar
    12    5    8 1
    13    6    7 ar
    14    6   44 1
    15    7   45 1
    16    8    9 1
    17    9   10 2
    18    9   11 am
    19   11   12 1
    20   11   35 1
    21   12   13 1
    22   12   46 1
    23   12   47 1
    24   13   18 ar
    25   13   14 ar
    26   14   15 ar
    27   14   48 1
    28   15   16 ar
    29   15   49 1
    30   16   17 ar
    31   16   50 1
    32   17   18 ar
    33   17   19 1
    34   18   51 1
    35   19   20 1
    36   20   21 1
    37   20   52 1
    38   20   53 1
    39   21   22 1
    40   21   54 1
    41   21   55 1
    42   22   26 1
    43   22   23 2
    44   23   24 1
    45   23   34 1
    46   24   25 1
    47   25   26 2
    48   25   27 1
    49   27   32 ar
    50   27   28 ar
    51   28   29 ar
    52   28   56 1
    53   29   30 ar
    54   29   57 1
    55   30   31 ar
    56   30   33 1
    57   31   32 ar
    58   31   58 1
    59   32   59 1
    60   34   60 1
    61   34   61 1
    62   34   62 1
    63   35   36 1
    64   35   63 1
    65   35   64 1
    66   36   37 2
    67   36   38 1
@<TRIPOS>MOLECULE
CHEMBL1088910
   61    64     0     0     0
SMALL
USER_CHARGES

@<TRIPOS>ATOM
      1 C1          0.0636    1.5033    0.0008 C.3       1 <0>        -0.1101
      2 C2          0.0621   -0.0037   -0.0050 C.ar      1 <0>        -0.0968
      3 C3          1.2238   -0.6961    0.2828 C.ar      1 <0>        -0.1055
      4 C4          1.2250   -2.0775    0.2781 C.ar      1 <0>        -0.1139
      5 C5          0.0593   -2.7700   -0.0151 C.ar      1 <0>         0.1164
      6 C6         -1.1051   -2.0730   -0.3030 C.ar      1 <0>        -0.1186
      7 C7         -1.1023   -0.6916   -0.2923 C.ar      1 <0>        -0.1092
      8 O1          0.0580   -4.1294   -0.0207 O.3       1 <0>        -0.3031
      9 C8          0.1763   -4.7666    1.1599 C.2       1 <0>         0.6608
     10 O2          0.1716   -4.1319    2.1961 O.2       1 <0>        -0.5767
     11 N1          0.2999   -6.1083    1.1920 N.am      1 <0>        -0.5512
     12 C9          0.4286   -6.8015    2.4762 C.3       1 <0>         0.1816
     13 C10        -0.9405   -7.1677    2.9887 C.ar      1 <0>        -0.1375
     14 C11        -1.6359   -6.2831    3.7922 C.ar      1 <0>        -0.0530
     15 C12        -2.8908   -6.6166    4.2638 C.ar      1 <0>        -0.1537
     16 C13        -3.4534   -7.8400    3.9301 C.ar      1 <0>         0.1274
     17 C14        -2.7538   -8.7256    3.1233 C.ar      1 <0>        -0.2123
     18 C15        -1.5013   -8.3853    2.6501 C.ar      1 <0>        -0.0609
     19 O3         -4.6876   -8.1705    4.3930 O.3       1 <0>        -0.3108
     20 C16        -5.2043   -9.4464    4.0092 C.3       1 <0>         0.1452
     21 C17        -6.5723   -9.6364    4.6120 C.2       1 <0>        -0.0152
     22 C18        -6.8403  -10.1794    5.8134 C.2       1 <0>        -0.0042
     23 O4         -8.1789  -10.1632    5.9703 O.3       1 <0>        -0.1915
     24 C19        -8.7131   -9.6122    4.8666 C.2       1 <0>         0.2251
     25 N2         -7.7393   -9.2889    4.0484 N.2       1 <0>        -0.4451
     26 C20       -10.1547   -9.4003    4.6188 C.ar      1 <0>        -0.0092
     27 C21       -10.5824   -8.8206    3.4233 C.ar      1 <0>        -0.0576
     28 C22       -11.9291   -8.6257    3.1976 C.ar      1 <0>        -0.1094
     29 C23       -12.8561   -9.0040    4.1542 C.ar      1 <0>        -0.0193
     30 C24       -12.4378   -9.5792    5.3425 C.ar      1 <0>        -0.1107
     31 C25       -11.0942   -9.7843    5.5771 C.ar      1 <0>        -0.0777
     32 Cl1       -14.5494   -8.7556    3.8630 Cl        1 <0>        -0.0617
     33 C26        -5.8314  -10.7082    6.8000 C.3       1 <0>        -0.0740
     34 C27         0.3056   -6.8735   -0.0573 C.3       1 <0>         0.0409
     35 C28         1.7207   -7.0075   -0.5579 C.2       1 <0>         0.4819
     36 O5          2.6393   -6.5099    0.0706 O.co2     1 <0>        -0.6830
     37 O6          1.9469   -7.6134   -1.5914 O.co2     1 <0>        -0.6971
     38 H1         -0.1802    1.8631    1.0004 H         1 <0>         0.0685
     39 H2          1.0506    1.8668   -0.2854 H         1 <0>         0.0653
     40 H3         -0.6784    1.8701   -0.7084 H         1 <0>         0.0646
     41 H4          2.1311   -0.1565    0.5109 H         1 <0>         0.1264
     42 H5          2.1328   -2.6180    0.5022 H         1 <0>         0.1313
     43 H6         -2.0138   -2.6099   -0.5319 H         1 <0>         0.1286
     44 H7         -2.0094   -0.1485   -0.5127 H         1 <0>         0.1267
     45 H8          1.0206   -7.7069    2.3426 H         1 <0>         0.0925
     46 H9          0.9224   -6.1471    3.1944 H         1 <0>         0.0923
     47 H10        -1.1975   -5.3308    4.0517 H         1 <0>         0.1371
     48 H11        -3.4334   -5.9256    4.8919 H         1 <0>         0.1273
     49 H12        -3.1896   -9.6787    2.8622 H         1 <0>         0.1260
     50 H13        -0.9581   -9.0725    2.0185 H         1 <0>         0.1278
     51 H14        -5.2756   -9.4976    2.9228 H         1 <0>         0.0830
     52 H15        -4.5375  -10.2310    4.3670 H         1 <0>         0.0821
     53 H16        -9.8603   -8.5249    2.6766 H         1 <0>         0.1499
     54 H17       -12.2612   -8.1770    2.2731 H         1 <0>         0.1447
     55 H18       -13.1654   -9.8719    6.0850 H         1 <0>         0.1425
     56 H19       -10.7695  -10.2374    6.5021 H         1 <0>         0.1410
     57 H20        -5.5254   -9.9063    7.4719 H         1 <0>         0.0936
     58 H21        -6.2783  -11.5165    7.3788 H         1 <0>         0.0835
     59 H22        -4.9606  -11.0843    6.2629 H         1 <0>         0.0966
     60 H23        -0.1118   -7.8644    0.1217 H         1 <0>         0.0772
     61 H24        -0.2963   -6.3551   -0.8037 H         1 <0>         0.0809
@<TRIPOS>BOND
     1    1    2 1
     2    1   38 1
     3    1   39 1
     4    1   40 1
     5    2    7 ar
     6    2    3 ar
     7    3    4 ar
     8    3   41 1
     9    4    5 ar
    10    4   42 1
    11    5    6 ar
    12    5    8 1
    13    6    7 ar
    14    6   43 1
    15    7   44 1
    16    8    9 1
    17    9   10 2
    18    9   11 am
    19   11   12 1
    20   11   34 1
    21   12   13 1
    22   12   45 1
    23   12   46 1
    24   13   18 ar
    25   13   14 ar
    26   14   15 ar
    27   14   47 1
    28   15   16 ar
    29   15   48 1
    30   16   17 ar
    31   16   19 1
    32   17   18 ar
    33   17   49 1
    34   18   50 1
    35   19   20 1
    36   20   21 1
    37   20   51 1
    38   20   52 1
    39   21   25 1
    40   21   22 2
    41   22   23 1
    42   22   33 1
    43   23   24 1
    44   24   25 2
    45   24   26 1
    46   26   31 ar
    47   26   27 ar
    48   27   28 ar
    49   27   53 1
    50   28   29 ar
    51   28   54 1
    52   29   30 ar
    53   29   32 1
    54   30   31 ar
    55   30   55 1
    56   31   56 1
    57   33   57 1
    58   33   58 1
    59   33   59 1
    60   34   35 1
    61   34   60 1
    62   34   61 1
    63   35   36 2
    64   35   37 1
@<TRIPOS>MOLECULE
CHEMBL482334
   60    62     0     0     0
SMALL
USER_CHARGES

@<TRIPOS>ATOM
      1 C1         -0.2102    1.2557   -0.2370 C.3       1 <0>        -0.1188
      2 C2         -0.1781   -0.2505   -0.2013 C.ar      1 <0>        -0.0680
      3 C3         -0.1874   -0.9678   -1.3843 C.ar      1 <0>        -0.1236
      4 C4         -0.1586   -2.3469   -1.3587 C.ar      1 <0>        -0.0858
      5 C5         -0.1196   -3.0183   -0.1357 C.ar      1 <0>        -0.0235
      6 C6         -0.1099   -2.2887    1.0540 C.ar      1 <0>        -0.0647
      7 C7         -0.1338   -0.9098    1.0143 C.ar      1 <0>        -0.1222
      8 C8         -0.0891   -4.4958   -0.1007 C.2       1 <0>         0.2297
      9 N1         -0.0568   -5.2361    0.9823 N.2       1 <0>        -0.4618
     10 C9         -0.0364   -6.5273    0.6188 C.2       1 <0>         0.0010
     11 C10        -0.0568   -6.5775   -0.7255 C.2       1 <0>        -0.0772
     12 O1         -0.0956   -5.3067   -1.1729 O.3       1 <0>        -0.1987
     13 C11         0.0029   -7.7111    1.5506 C.3       1 <0>        -0.0397
     14 C12         1.1972   -7.5756    2.4972 C.3       1 <0>        -0.1097
     15 C13         1.2371   -8.7774    3.4432 C.3       1 <0>        -0.1150
     16 C14         2.4315   -8.6419    4.3899 C.3       1 <0>        -0.1356
     17 C15         2.4714   -9.8437    5.3359 C.3       1 <0>         0.1405
     18 N2          3.6150   -9.7139    6.2423 N.am      1 <0>        -0.5560
     19 C16         3.4590   -9.0213    7.5238 C.3       1 <0>         0.0397
     20 C17         3.0527  -10.0120    8.5841 C.2       1 <0>         0.4815
     21 O2          2.9069  -11.1877    8.2961 O.co2     1 <0>        -0.6838
     22 O3          2.8698   -9.6379    9.7300 O.co2     1 <0>        -0.6982
     23 C18         4.8105  -10.2318    5.8973 C.2       1 <0>         0.6562
     24 O4          4.9398  -10.8063    4.8343 O.2       1 <0>        -0.5791
     25 O5          5.8616  -10.1125    6.7304 O.3       1 <0>        -0.3011
     26 C19         7.0207  -10.7372    6.3896 C.ar      1 <0>         0.0830
     27 C20         7.8444  -10.1884    5.4179 C.ar      1 <0>        -0.0800
     28 C21         9.0214  -10.8227    5.0716 C.ar      1 <0>        -0.1397
     29 C22         9.3797  -12.0085    5.6957 C.ar      1 <0>         0.1204
     30 C23         8.5559  -12.5573    6.6675 C.ar      1 <0>        -0.1937
     31 C24         7.3817  -11.9199    7.0176 C.ar      1 <0>        -0.0745
     32 O6         10.5382  -12.6332    5.3546 O.3       1 <0>        -0.3183
     33 C25        10.8444  -13.8504    6.0377 C.3       1 <0>         0.0263
     34 H1          0.8092    1.6402   -0.2715 H         1 <0>         0.0745
     35 H2         -0.7535    1.5867   -1.1220 H         1 <0>         0.0685
     36 H3         -0.7095    1.6298    0.6569 H         1 <0>         0.0697
     37 H4         -0.2176   -0.4470   -2.3300 H         1 <0>         0.1295
     38 H5         -0.1666   -2.9056   -2.2828 H         1 <0>         0.1302
     39 H6         -0.0801   -2.8023    2.0036 H         1 <0>         0.1400
     40 H7         -0.1223   -0.3439    1.9341 H         1 <0>         0.1323
     41 H8         -0.0481   -7.4702   -1.3332 H         1 <0>         0.2173
     42 H9         -0.9188   -7.7471    2.1314 H         1 <0>         0.0827
     43 H10         0.1022   -8.6278    0.9694 H         1 <0>         0.0811
     44 H11         2.1189   -7.5396    1.9165 H         1 <0>         0.0600
     45 H12         1.0980   -6.6588    3.0785 H         1 <0>         0.0706
     46 H13         0.3154   -8.8134    4.0240 H         1 <0>         0.0662
     47 H14         1.3364   -9.6941    2.8620 H         1 <0>         0.0650
     48 H15         3.3532   -8.6059    3.8091 H         1 <0>         0.0644
     49 H16         2.3322   -7.7251    4.9711 H         1 <0>         0.0639
     50 H17         1.5497   -9.8797    5.9166 H         1 <0>         0.0824
     51 H18         2.5706  -10.7605    4.7546 H         1 <0>         0.0816
     52 H19         4.4048   -8.5572    7.8034 H         1 <0>         0.0813
     53 H20         2.6911   -8.2534    7.4306 H         1 <0>         0.0785
     54 H21         7.5652   -9.2653    4.9317 H         1 <0>         0.1334
     55 H22         9.6626  -10.3956    4.3148 H         1 <0>         0.1350
     56 H23         8.8347  -13.4808    7.1531 H         1 <0>         0.1342
     57 H24         6.7425  -12.3449    7.7774 H         1 <0>         0.1383
     58 H25        10.9199  -13.6574    7.1079 H         1 <0>         0.0559
     59 H26        10.0542  -14.5785    5.8547 H         1 <0>         0.0560
     60 H27        11.7928  -14.2438    5.6718 H         1 <0>         0.0980
@<TRIPOS>BOND
     1    1    2 1
     2    1   34 1
     3    1   35 1
     4    1   36 1
     5    2    7 ar
     6    2    3 ar
     7    3    4 ar
     8    3   37 1
     9    4    5 ar
    10    4   38 1
    11    5    6 ar
    12    5    8 1
    13    6    7 ar
    14    6   39 1
    15    7   40 1
    16    8   12 1
    17    8    9 2
    18    9   10 1
    19   10   11 2
    20   10   13 1
    21   11   12 1
    22   11   41 1
    23   13   14 1
    24   13   42 1
    25   13   43 1
    26   14   15 1
    27   14   44 1
    28   14   45 1
    29   15   16 1
    30   15   46 1
    31   15   47 1
    32   16   17 1
    33   16   48 1
    34   16   49 1
    35   17   18 1
    36   17   50 1
    37   17   51 1
    38   18   19 1
    39   18   23 am
    40   19   20 1
    41   19   52 1
    42   19   53 1
    43   20   21 2
    44   20   22 1
    45   23   24 2
    46   23   25 1
    47   25   26 1
    48   26   31 ar
    49   26   27 ar
    50   27   28 ar
    51   27   54 1
    52   28   29 ar
    53   28   55 1
    54   29   30 ar
    55   29   32 1
    56   30   31 ar
    57   30   56 1
    58   31   57 1
    59   32   33 1
    60   33   58 1
    61   33   59 1
    62   33   60 1
@<TRIPOS>MOLECULE
CHEMBL481683
   66    68     0     0     0
SMALL
USER_CHARGES

@<TRIPOS>ATOM
      1 C1         -0.4085    1.5675   -0.0767 C.3       1 <0>        -0.1186
      2 C2         -0.3680    0.0611   -0.0892 C.ar      1 <0>        -0.0688
      3 C3         -0.3927   -0.6186   -1.2940 C.ar      1 <0>        -0.1227
      4 C4         -0.3563   -1.9976   -1.3124 C.ar      1 <0>        -0.0866
      5 C5         -0.2940   -2.7070   -0.1121 C.ar      1 <0>        -0.0211
      6 C6         -0.2689   -2.0152    1.0998 C.ar      1 <0>        -0.0661
      7 C7         -0.3006   -0.6359    1.1040 C.ar      1 <0>        -0.1220
      8 C8         -0.2552   -4.1847   -0.1243 C.2       1 <0>         0.2253
      9 N1         -0.2015   -4.9585    0.9341 N.2       1 <0>        -0.4613
     10 C9         -0.1803   -6.2375    0.5297 C.2       1 <0>        -0.0010
     11 C10        -0.2222   -6.2454   -0.8151 C.2       1 <0>        -0.0453
     12 O1         -0.2748   -4.9614   -1.2213 O.3       1 <0>        -0.1965
     13 C11        -0.2172   -7.4637   -1.7021 C.3       1 <0>        -0.0683
     14 C12        -0.1198   -7.4498    1.4228 C.3       1 <0>        -0.0385
     15 C13        -1.5405   -7.8989    1.7702 C.3       1 <0>        -0.1126
     16 C14        -1.4791   -9.1297    2.6770 C.3       1 <0>        -0.1162
     17 C15        -2.8999   -9.5787    3.0243 C.3       1 <0>        -0.1153
     18 C16        -2.8384  -10.8095    3.9311 C.3       1 <0>        -0.1356
     19 C17        -4.2592  -11.2585    4.2785 C.3       1 <0>         0.1399
     20 N2         -4.2003  -12.4370    5.1467 N.am      1 <0>        -0.5560
     21 C18        -4.1592  -12.2734    6.6020 C.3       1 <0>         0.0398
     22 C19        -5.5647  -12.2554    7.1454 C.2       1 <0>         0.4812
     23 O2         -6.5129  -12.3688    6.3874 O.co2     1 <0>        -0.6837
     24 O3         -5.7536  -12.1275    8.3431 O.co2     1 <0>        -0.6982
     25 C20        -4.1840  -13.6717    4.6067 C.2       1 <0>         0.6562
     26 O4         -4.2182  -13.8075    3.3996 O.2       1 <0>        -0.5790
     27 O5         -4.1299  -14.7550    5.4048 O.3       1 <0>        -0.3012
     28 C21        -4.2184  -15.9814    4.8235 C.ar      1 <0>         0.0828
     29 C22        -3.1199  -16.5201    4.1703 C.ar      1 <0>        -0.0800
     30 C23        -3.2097  -17.7655    3.5800 C.ar      1 <0>        -0.1397
     31 C24        -4.3986  -18.4776    3.6404 C.ar      1 <0>         0.1204
     32 C25        -5.4972  -17.9387    4.2936 C.ar      1 <0>        -0.1937
     33 C26        -5.4056  -16.6957    4.8888 C.ar      1 <0>        -0.0745
     34 O6         -4.4872  -19.7034    3.0589 O.3       1 <0>        -0.3182
     35 C27        -5.7417  -20.3802    3.1599 C.3       1 <0>         0.0263
     36 H1          0.6081    1.9587   -0.1154 H         1 <0>         0.0740
     37 H2         -0.9678    1.9231   -0.9421 H         1 <0>         0.0688
     38 H3         -0.8952    1.9103    0.8363 H         1 <0>         0.0698
     39 H4         -0.4409   -0.0684   -2.2222 H         1 <0>         0.1296
     40 H5         -0.3763   -2.5270   -2.2536 H         1 <0>         0.1298
     41 H6         -0.2211   -2.5583    2.0321 H         1 <0>         0.1392
     42 H7         -0.2771   -0.0993    2.0410 H         1 <0>         0.1320
     43 H8         -1.2428   -7.7850   -1.8838 H         1 <0>         0.0865
     44 H9          0.2608   -7.2204   -2.6510 H         1 <0>         0.0774
     45 H10         0.3340   -8.2669   -1.2131 H         1 <0>         0.0944
     46 H11         0.4000   -8.2565    0.9058 H         1 <0>         0.0800
     47 H12         0.4165   -7.2002    2.3384 H         1 <0>         0.0820
     48 H13        -2.0603   -7.0922    2.2872 H         1 <0>         0.0660
     49 H14        -2.0767   -8.1485    0.8546 H         1 <0>         0.0620
     50 H15        -0.9593   -9.9363    2.1599 H         1 <0>         0.0626
     51 H16        -0.9429   -8.8800    3.5925 H         1 <0>         0.0637
     52 H17        -3.4196   -8.7721    3.5414 H         1 <0>         0.0642
     53 H18        -3.4361   -9.8283    2.1088 H         1 <0>         0.0640
     54 H19        -2.3186  -11.6161    3.4141 H         1 <0>         0.0648
     55 H20        -2.3022  -10.5598    4.8467 H         1 <0>         0.0634
     56 H21        -4.7789  -10.4519    4.7955 H         1 <0>         0.0819
     57 H22        -4.7954  -11.5081    3.3629 H         1 <0>         0.0814
     58 H23        -3.6087  -13.1031    7.0455 H         1 <0>         0.0814
     59 H24        -3.6624  -11.3349    6.8482 H         1 <0>         0.0784
     60 H25        -2.1943  -15.9656    4.1230 H         1 <0>         0.1335
     61 H26        -2.3544  -18.1849    3.0711 H         1 <0>         0.1351
     62 H27        -6.4230  -18.4929    4.3404 H         1 <0>         0.1341
     63 H28        -6.2596  -16.2781    5.4013 H         1 <0>         0.1382
     64 H29        -5.6761  -21.3441    2.6553 H         1 <0>         0.0981
     65 H30        -5.9870  -20.5360    4.2104 H         1 <0>         0.0559
     66 H31        -6.5188  -19.7767    2.6909 H         1 <0>         0.0560
@<TRIPOS>BOND
     1    1    2 1
     2    1   36 1
     3    1   37 1
     4    1   38 1
     5    2    7 ar
     6    2    3 ar
     7    3    4 ar
     8    3   39 1
     9    4    5 ar
    10    4   40 1
    11    5    6 ar
    12    5    8 1
    13    6    7 ar
    14    6   41 1
    15    7   42 1
    16    8   12 1
    17    8    9 2
    18    9   10 1
    19   10   11 2
    20   10   14 1
    21   11   12 1
    22   11   13 1
    23   13   43 1
    24   13   44 1
    25   13   45 1
    26   14   15 1
    27   14   46 1
    28   14   47 1
    29   15   16 1
    30   15   48 1
    31   15   49 1
    32   16   17 1
    33   16   50 1
    34   16   51 1
    35   17   18 1
    36   17   52 1
    37   17   53 1
    38   18   19 1
    39   18   54 1
    40   18   55 1
    41   19   20 1
    42   19   56 1
    43   19   57 1
    44   20   21 1
    45   20   25 am
    46   21   22 1
    47   21   58 1
    48   21   59 1
    49   22   23 2
    50   22   24 1
    51   25   26 2
    52   25   27 1
    53   27   28 1
    54   28   33 ar
    55   28   29 ar
    56   29   30 ar
    57   29   60 1
    58   30   31 ar
    59   30   61 1
    60   31   32 ar
    61   31   34 1
    62   32   33 ar
    63   32   62 1
    64   33   63 1
    65   34   35 1
    66   35   64 1
    67   35   65 1
    68   35   66 1
@<TRIPOS>MOLECULE
CHEMBL118756
   66    69     0     0     0
SMALL
USER_CHARGES

@<TRIPOS>ATOM
      1 C1         -0.0187    1.5258    0.0104 C.3       1 <0>        -0.1525
      2 C2          0.0021   -0.0041    0.0020 C.3       1 <0>        -0.1159
      3 C3          0.7182   -0.4975   -1.2568 C.3       1 <0>        -0.0713
      4 C4          0.7386   -2.0043   -1.2651 C.ar      1 <0>        -0.1073
      5 C5         -0.1719   -2.7039   -2.0335 C.ar      1 <0>        -0.0775
      6 C6         -0.1540   -4.0862   -2.0411 C.ar      1 <0>        -0.1072
      7 C7          0.7751   -4.7722   -1.2805 C.ar      1 <0>        -0.0789
      8 C8          1.6878   -4.0775   -0.5110 C.ar      1 <0>        -0.2036
      9 C9          1.6753   -2.6900   -0.5057 C.ar      1 <0>         0.1269
     10 O1          2.5758   -2.0041    0.2462 O.3       1 <0>        -0.3070
     11 C10         3.5108   -2.7757    1.0028 C.3       1 <0>         0.0645
     12 C11         4.4364   -1.8371    1.7794 C.3       1 <0>        -0.1197
     13 C12         5.4375   -2.6632    2.5895 C.3       1 <0>         0.0635
     14 O2          6.3020   -1.7865    3.3149 O.3       1 <0>        -0.3076
     15 C13         7.2566   -2.3642    4.0907 C.ar      1 <0>         0.1355
     16 C14         7.3628   -3.7464    4.1482 C.ar      1 <0>        -0.1910
     17 C15         8.3342   -4.3311    4.9372 C.ar      1 <0>        -0.0733
     18 C16         9.2004   -3.5400    5.6694 C.ar      1 <0>        -0.1312
     19 C17         9.0964   -2.1626    5.6142 C.ar      1 <0>        -0.0712
     20 C18         8.1301   -1.5728    4.8221 C.ar      1 <0>        -0.1182
     21 C19        10.0417   -1.3035    6.4139 C.3       1 <0>         0.0882
     22 C20        11.3657   -1.1570    5.6918 C.2       1 <0>         0.5126
     23 O3         11.5562   -0.6609    4.6022 O.2       1 <0>        -0.4339
     24 N1         12.2878   -1.6941    6.5166 N.am      1 <0>        -0.6837
     25 C21        11.7147   -2.1473    7.6390 C.2       1 <0>         0.6501
     26 O4         12.3265   -2.6760    8.5452 O.2       1 <0>        -0.4648
     27 O5         10.3870   -1.9501    7.6483 O.3       1 <0>        -0.2873
     28 C22        -1.1490   -4.8468   -2.8793 C.3       1 <0>        -0.0427
     29 C23        -1.9984   -5.7424   -1.9754 C.3       1 <0>        -0.1103
     30 C24        -3.0086   -6.5146   -2.8264 C.3       1 <0>        -0.1207
     31 C25        -2.2624   -7.3789   -3.8447 C.3       1 <0>        -0.1210
     32 C26        -1.4129   -6.4833   -4.7487 C.3       1 <0>        -0.1207
     33 C27        -0.4028   -5.7111   -3.8977 C.3       1 <0>        -0.1104
     34 H1          1.0039    1.9031    0.0027 H         1 <0>         0.0546
     35 H2         -0.5459    1.8868   -0.8726 H         1 <0>         0.0532
     36 H3         -0.5289    1.8773    0.9072 H         1 <0>         0.0539
     37 H4          0.5293   -0.3651    0.8851 H         1 <0>         0.0641
     38 H5         -1.0205   -0.3814    0.0098 H         1 <0>         0.0590
     39 H6          0.1910   -0.1364   -2.1398 H         1 <0>         0.0690
     40 H7          1.7408   -0.1202   -1.2645 H         1 <0>         0.0744
     41 H8         -0.8985   -2.1705   -2.6283 H         1 <0>         0.1271
     42 H9          0.7868   -5.8522   -1.2879 H         1 <0>         0.1224
     43 H10         2.4132   -4.6137    0.0829 H         1 <0>         0.1254
     44 H11         2.9724   -3.4154    1.7020 H         1 <0>         0.0653
     45 H12         4.1030   -3.3932    0.3275 H         1 <0>         0.0651
     46 H13         4.9749   -1.1973    1.0802 H         1 <0>         0.0881
     47 H14         3.8442   -1.2196    2.4548 H         1 <0>         0.0882
     48 H15         4.8990   -3.3029    3.2887 H         1 <0>         0.0685
     49 H16         6.0297   -3.2807    1.9142 H         1 <0>         0.0682
     50 H17         6.6863   -4.3647    3.5768 H         1 <0>         0.1340
     51 H18         8.4170   -5.4069    4.9825 H         1 <0>         0.1342
     52 H19         9.9593   -3.9990    6.2857 H         1 <0>         0.1252
     53 H20         8.0521   -0.4966    4.7758 H         1 <0>         0.1418
     54 H21         9.5987   -0.3262    6.6055 H         1 <0>         0.1634
     55 H22        13.2370   -1.7449    6.3233 H         1 <0>         0.4454
     56 H23        -1.7951   -4.1431   -3.4042 H         1 <0>         0.0766
     57 H24        -1.3523   -6.4461   -1.4505 H         1 <0>         0.0625
     58 H25        -2.5300   -5.1267   -1.2499 H         1 <0>         0.0625
     59 H26        -3.6137   -7.1526   -2.1824 H         1 <0>         0.0621
     60 H27        -3.6546   -5.8109   -3.3512 H         1 <0>         0.0620
     61 H28        -1.6163   -8.0826   -3.3199 H         1 <0>         0.0608
     62 H29        -2.9820   -7.9290   -4.4510 H         1 <0>         0.0610
     63 H30        -0.8813   -7.0990   -5.4742 H         1 <0>         0.0621
     64 H31        -2.0590   -5.7796   -5.2736 H         1 <0>         0.0620
     65 H32         0.2024   -5.0731   -4.5417 H         1 <0>         0.0625
     66 H33         0.2433   -6.4148   -3.3729 H         1 <0>         0.0625
@<TRIPOS>BOND
     1    1    2 1
     2    1   34 1
     3    1   35 1
     4    1   36 1
     5    2    3 1
     6    2   37 1
     7    2   38 1
     8    3    4 1
     9    3   39 1
    10    3   40 1
    11    4    9 ar
    12    4    5 ar
    13    5    6 ar
    14    5   41 1
    15    6    7 ar
    16    6   28 1
    17    7    8 ar
    18    7   42 1
    19    8    9 ar
    20    8   43 1
    21    9   10 1
    22   10   11 1
    23   11   12 1
    24   11   44 1
    25   11   45 1
    26   12   13 1
    27   12   46 1
    28   12   47 1
    29   13   14 1
    30   13   48 1
    31   13   49 1
    32   14   15 1
    33   15   20 ar
    34   15   16 ar
    35   16   17 ar
    36   16   50 1
    37   17   18 ar
    38   17   51 1
    39   18   19 ar
    40   18   52 1
    41   19   20 ar
    42   19   21 1
    43   20   53 1
    44   21   27 1
    45   21   22 1
    46   21   54 1
    47   22   23 2
    48   22   24 am
    49   24   25 am
    50   24   55 1
    51   25   26 2
    52   25   27 1
    53   28   33 1
    54   28   29 1
    55   28   56 1
    56   29   30 1
    57   29   57 1
    58   29   58 1
    59   30   31 1
    60   30   59 1
    61   30   60 1
    62   31   32 1
    63   31   61 1
    64   31   62 1
    65   32   33 1
    66   32   63 1
    67   32   64 1
    68   33   65 1
    69   33   66 1
@<TRIPOS>MOLECULE
CHEMBL118756__1
   66    69     0     0     0
SMALL
USER_CHARGES

@<TRIPOS>ATOM
      1 C1         -0.0187    1.5258    0.0104 C.3       1 <0>        -0.1524
      2 C2          0.0021   -0.0041    0.0020 C.3       1 <0>        -0.1160
      3 C3          0.7182   -0.4975   -1.2568 C.3       1 <0>        -0.0712
      4 C4          0.7386   -2.0043   -1.2651 C.ar      1 <0>        -0.1073
      5 C5         -0.1719   -2.7039   -2.0335 C.ar      1 <0>        -0.0775
      6 C6         -0.1540   -4.0862   -2.0411 C.ar      1 <0>        -0.1072
      7 C7          0.7751   -4.7722   -1.2805 C.ar      1 <0>        -0.0789
      8 C8          1.6878   -4.0775   -0.5110 C.ar      1 <0>        -0.2035
      9 C9          1.6753   -2.6900   -0.5057 C.ar      1 <0>         0.1269
     10 O1          2.5758   -2.0041    0.2462 O.3       1 <0>        -0.3070
     11 C10         3.5108   -2.7757    1.0028 C.3       1 <0>         0.0645
     12 C11         4.4364   -1.8371    1.7794 C.3       1 <0>        -0.1197
     13 C12         5.4375   -2.6632    2.5895 C.3       1 <0>         0.0635
     14 O2          6.3020   -1.7865    3.3149 O.3       1 <0>        -0.3076
     15 C13         7.2566   -2.3642    4.0907 C.ar      1 <0>         0.1354
     16 C14         7.3628   -3.7464    4.1482 C.ar      1 <0>        -0.1905
     17 C15         8.3342   -4.3311    4.9372 C.ar      1 <0>        -0.0730
     18 C16         9.2004   -3.5400    5.6694 C.ar      1 <0>        -0.1313
     19 C17         9.0964   -2.1626    5.6142 C.ar      1 <0>        -0.0705
     20 C18         8.1301   -1.5728    4.8221 C.ar      1 <0>        -0.1175
     21 C19        10.0417   -1.3035    6.4139 C.3       1 <0>         0.0879
     22 C20         9.6506   -1.3045    7.8777 C.2       1 <0>         0.5127
     23 O3          8.6082   -0.9154    8.3589 O.2       1 <0>        -0.4338
     24 N1         10.7060   -1.8301    8.5327 N.am      1 <0>        -0.6838
     25 C21        11.6850   -2.1498    7.6767 C.2       1 <0>         0.6498
     26 O4         12.7442   -2.6401    8.0128 O.2       1 <0>        -0.4649
     27 O5         11.3624   -1.8662    6.4050 O.3       1 <0>        -0.2872
     28 C22        -1.1490   -4.8468   -2.8793 C.3       1 <0>        -0.0427
     29 C23        -1.9984   -5.7424   -1.9754 C.3       1 <0>        -0.1103
     30 C24        -3.0086   -6.5146   -2.8264 C.3       1 <0>        -0.1207
     31 C25        -2.2624   -7.3789   -3.8447 C.3       1 <0>        -0.1210
     32 C26        -1.4129   -6.4833   -4.7487 C.3       1 <0>        -0.1207
     33 C27        -0.4028   -5.7111   -3.8977 C.3       1 <0>        -0.1104
     34 H1          1.0039    1.9031    0.0027 H         1 <0>         0.0546
     35 H2         -0.5459    1.8868   -0.8726 H         1 <0>         0.0532
     36 H3         -0.5289    1.8773    0.9072 H         1 <0>         0.0539
     37 H4          0.5293   -0.3651    0.8851 H         1 <0>         0.0641
     38 H5         -1.0205   -0.3814    0.0098 H         1 <0>         0.0590
     39 H6          0.1910   -0.1364   -2.1398 H         1 <0>         0.0690
     40 H7          1.7408   -0.1202   -1.2645 H         1 <0>         0.0744
     41 H8         -0.8985   -2.1705   -2.6283 H         1 <0>         0.1271
     42 H9          0.7868   -5.8522   -1.2879 H         1 <0>         0.1224
     43 H10         2.4132   -4.6137    0.0829 H         1 <0>         0.1254
     44 H11         2.9724   -3.4154    1.7020 H         1 <0>         0.0652
     45 H12         4.1030   -3.3932    0.3275 H         1 <0>         0.0652
     46 H13         4.9749   -1.1973    1.0802 H         1 <0>         0.0882
     47 H14         3.8442   -1.2196    2.4548 H         1 <0>         0.0882
     48 H15         4.8990   -3.3029    3.2887 H         1 <0>         0.0683
     49 H16         6.0297   -3.2807    1.9142 H         1 <0>         0.0686
     50 H17         6.6863   -4.3647    3.5768 H         1 <0>         0.1342
     51 H18         8.4170   -5.4069    4.9825 H         1 <0>         0.1343
     52 H19         9.9593   -3.9990    6.2857 H         1 <0>         0.1238
     53 H20         8.0521   -0.4966    4.7758 H         1 <0>         0.1419
     54 H21        10.0571   -0.2868    6.0212 H         1 <0>         0.1630
     55 H22        10.7497   -1.9593    9.4931 H         1 <0>         0.4454
     56 H23        -1.7951   -4.1431   -3.4042 H         1 <0>         0.0766
     57 H24        -1.3523   -6.4461   -1.4505 H         1 <0>         0.0625
     58 H25        -2.5300   -5.1267   -1.2499 H         1 <0>         0.0625
     59 H26        -3.6137   -7.1526   -2.1824 H         1 <0>         0.0621
     60 H27        -3.6546   -5.8109   -3.3512 H         1 <0>         0.0620
     61 H28        -1.6163   -8.0826   -3.3199 H         1 <0>         0.0608
     62 H29        -2.9820   -7.9290   -4.4510 H         1 <0>         0.0610
     63 H30        -0.8813   -7.0990   -5.4742 H         1 <0>         0.0621
     64 H31        -2.0590   -5.7796   -5.2736 H         1 <0>         0.0620
     65 H32         0.2024   -5.0731   -4.5417 H         1 <0>         0.0626
     66 H33         0.2433   -6.4148   -3.3729 H         1 <0>         0.0625
@<TRIPOS>BOND
     1    1    2 1
     2    1   34 1
     3    1   35 1
     4    1   36 1
     5    2    3 1
     6    2   37 1
     7    2   38 1
     8    3    4 1
     9    3   39 1
    10    3   40 1
    11    4    9 ar
    12    4    5 ar
    13    5    6 ar
    14    5   41 1
    15    6    7 ar
    16    6   28 1
    17    7    8 ar
    18    7   42 1
    19    8    9 ar
    20    8   43 1
    21    9   10 1
    22   10   11 1
    23   11   12 1
    24   11   44 1
    25   11   45 1
    26   12   13 1
    27   12   46 1
    28   12   47 1
    29   13   14 1
    30   13   48 1
    31   13   49 1
    32   14   15 1
    33   15   20 ar
    34   15   16 ar
    35   16   17 ar
    36   16   50 1
    37   17   18 ar
    38   17   51 1
    39   18   19 ar
    40   18   52 1
    41   19   20 ar
    42   19   21 1
    43   20   53 1
    44   21   27 1
    45   21   22 1
    46   21   54 1
    47   22   23 2
    48   22   24 am
    49   24   25 am
    50   24   55 1
    51   25   26 2
    52   25   27 1
    53   28   33 1
    54   28   29 1
    55   28   56 1
    56   29   30 1
    57   29   57 1
    58   29   58 1
    59   30   31 1
    60   30   59 1
    61   30   60 1
    62   31   32 1
    63   31   61 1
    64   31   62 1
    65   32   33 1
    66   32   63 1
    67   32   64 1
    68   33   65 1
    69   33   66 1
@<TRIPOS>MOLECULE
CHEMBL197866
   59    63     0     0     0
SMALL
USER_CHARGES

@<TRIPOS>ATOM
      1 C1          0.0525    1.4992    0.0805 C.3       1 <0>        -0.1540
      2 C2          0.0074   -0.0286    0.0134 C.3       1 <0>        -0.0950
      3 C3          0.6061   -0.4987   -1.3138 C.3       1 <0>        -0.1420
      4 C4          0.4006   -2.0078   -1.4600 C.3       1 <0>        -0.0212
      5 C5          0.9355   -2.4914   -2.8245 C.3       1 <0>        -0.1254
      6 C6         -0.3200   -2.4142   -3.7189 C.3       1 <0>        -0.0831
      7 C7         -1.4909   -2.5715   -2.7726 C.ar      1 <0>        -0.0567
      8 C8         -1.0769   -2.3378   -1.4738 C.ar      1 <0>        -0.1059
      9 C9         -1.9853   -2.4266   -0.4322 C.ar      1 <0>        -0.0698
     10 C10        -3.3040   -2.7483   -0.6839 C.ar      1 <0>        -0.2107
     11 C11        -3.7216   -2.9833   -1.9855 C.ar      1 <0>         0.1170
     12 C12        -2.8121   -2.8937   -3.0281 C.ar      1 <0>        -0.1425
     13 O1         -5.0186   -3.3011   -2.2382 O.3       1 <0>        -0.3168
     14 C13        -5.8988   -3.3759   -1.1149 C.3       1 <0>         0.0688
     15 C14        -7.3053   -3.7427   -1.5928 C.3       1 <0>        -0.0346
     16 C15        -8.2335   -3.8216   -0.4082 C.2       1 <0>        -0.0053
     17 C16        -8.4812   -4.9167    0.3323 C.2       1 <0>        -0.0281
     18 O2         -9.3634   -4.5627    1.2884 O.3       1 <0>        -0.1926
     19 C17        -9.6445   -3.2586    1.1222 C.2       1 <0>         0.2318
     20 N1         -8.9556   -2.8103    0.0988 N.2       1 <0>        -0.4536
     21 C18       -10.5687   -2.4621    1.9557 C.ar      1 <0>        -0.0064
     22 C19       -10.7787   -1.1113    1.6724 C.ar      1 <0>        -0.0555
     23 C20       -11.6415   -0.3696    2.4512 C.ar      1 <0>        -0.0999
     24 C21       -12.3031   -0.9611    3.5179 C.ar      1 <0>         0.0528
     25 C22       -12.0975   -2.3099    3.8061 C.ar      1 <0>         0.0310
     26 C23       -11.2384   -3.0599    3.0248 C.ar      1 <0>        -0.0723
     27 O3        -12.8565   -2.6444    4.8906 O.3       1 <0>        -0.3055
     28 C24       -13.2115   -1.3946    5.5112 C.3       1 <0>         0.2123
     29 O4        -13.1905   -0.4533    4.4220 O.3       1 <0>        -0.3046
     30 C25        -7.8840   -6.2855    0.1304 C.3       1 <0>        -0.0734
     31 C26         2.0804   -0.1878   -1.3380 C.2       1 <0>         0.4992
     32 O5          2.8330   -0.8552   -2.0271 O.co2     1 <0>        -0.6907
     33 O6          2.5208    0.7311   -0.6686 O.co2     1 <0>        -0.6891
     34 H1          1.0890    1.8294    0.1502 H         1 <0>         0.0957
     35 H2         -0.4019    1.9160   -0.8183 H         1 <0>         0.0340
     36 H3         -0.4973    1.8408    0.9575 H         1 <0>         0.0272
     37 H4          0.5832   -0.4458    0.8396 H         1 <0>         0.0490
     38 H5         -1.0269   -0.3651    0.0849 H         1 <0>         0.0419
     39 H6          0.1125    0.0167   -2.1378 H         1 <0>         0.0612
     40 H7          0.8987   -2.5371   -0.6477 H         1 <0>         0.0666
     41 H8          1.7154   -1.8251   -3.1932 H         1 <0>         0.1284
     42 H9          1.3003   -3.5163   -2.7565 H         1 <0>         0.0548
     43 H10        -0.3672   -1.4484   -4.2219 H         1 <0>         0.0772
     44 H11        -0.3135   -3.2224   -4.4503 H         1 <0>         0.0674
     45 H12        -1.6606   -2.2437    0.5815 H         1 <0>         0.1206
     46 H13        -4.0091   -2.8173    0.1313 H         1 <0>         0.1212
     47 H14        -3.1355   -3.0764   -4.0422 H         1 <0>         0.1232
     48 H15        -5.5402   -4.1375   -0.4225 H         1 <0>         0.0602
     49 H16        -5.9268   -2.4102   -0.6103 H         1 <0>         0.0650
     50 H17        -7.6638   -2.9811   -2.2852 H         1 <0>         0.0952
     51 H18        -7.2773   -4.7084   -2.0974 H         1 <0>         0.0928
     52 H19       -10.2650   -0.6471    0.8435 H         1 <0>         0.1564
     53 H20       -11.8027    0.6753    2.2305 H         1 <0>         0.1480
     54 H21       -11.0822   -4.1059    3.2440 H         1 <0>         0.1440
     55 H22       -14.2087   -1.4533    5.9474 H         1 <0>         0.1351
     56 H23       -12.4768   -1.1207    6.2683 H         1 <0>         0.0885
     57 H24        -6.9627   -6.3686    0.7070 H         1 <0>         0.0893
     58 H25        -8.5918   -7.0438    0.4653 H         1 <0>         0.0816
     59 H26        -7.6655   -6.4343   -0.9270 H         1 <0>         0.0971
@<TRIPOS>BOND
     1    1    2 1
     2    1   34 1
     3    1   35 1
     4    1   36 1
     5    2    3 1
     6    2   37 1
     7    2   38 1
     8    3    4 1
     9    3   31 1
    10    3   39 1
    11    4    8 1
    12    4    5 1
    13    4   40 1
    14    5    6 1
    15    5   41 1
    16    5   42 1
    17    6    7 1
    18    6   43 1
    19    6   44 1
    20    7   12 ar
    21    7    8 ar
    22    8    9 ar
    23    9   10 ar
    24    9   45 1
    25   10   11 ar
    26   10   46 1
    27   11   12 ar
    28   11   13 1
    29   12   47 1
    30   13   14 1
    31   14   15 1
    32   14   48 1
    33   14   49 1
    34   15   16 1
    35   15   50 1
    36   15   51 1
    37   16   20 1
    38   16   17 2
    39   17   18 1
    40   17   30 1
    41   18   19 1
    42   19   20 2
    43   19   21 1
    44   21   26 ar
    45   21   22 ar
    46   22   23 ar
    47   22   52 1
    48   23   24 ar
    49   23   53 1
    50   24   29 1
    51   24   25 ar
    52   25   26 ar
    53   25   27 1
    54   26   54 1
    55   27   28 1
    56   28   29 1
    57   28   55 1
    58   28   56 1
    59   30   57 1
    60   30   58 1
    61   30   59 1
    62   31   32 2
    63   31   33 1
@<TRIPOS>MOLECULE
CHEMBL197866__1
   59    63     0     0     0
SMALL
USER_CHARGES

@<TRIPOS>ATOM
      1 C1          0.0125    1.8056   -0.5483 C.3       1 <0>        -0.1445
      2 C2         -0.1995    0.3121   -0.2928 C.3       1 <0>        -0.1004
      3 C3          0.6046   -0.4987   -1.3110 C.3       1 <0>        -0.1486
      4 C4          0.3143   -1.9888   -1.1201 C.3       1 <0>        -0.0292
      5 C5         -1.1945   -2.2662   -1.2891 C.3       1 <0>        -0.1160
      6 C6         -1.2031   -3.6609   -1.9502 C.3       1 <0>        -0.0759
      7 C7          0.1178   -3.7601   -2.6829 C.ar      1 <0>        -0.0717
      8 C8          0.9903   -2.7989   -2.2057 C.ar      1 <0>        -0.1024
      9 C9          2.2671   -2.7015   -2.7334 C.ar      1 <0>        -0.0507
     10 C10         2.6742   -3.5604   -3.7346 C.ar      1 <0>        -0.2067
     11 C11         1.8009   -4.5251   -4.2149 C.ar      1 <0>         0.1168
     12 C12         0.5228   -4.6221   -3.6866 C.ar      1 <0>        -0.1478
     13 O1          2.1969   -5.3723   -5.2009 O.3       1 <0>        -0.3179
     14 C13         3.5275   -5.2133   -5.6973 C.3       1 <0>         0.0669
     15 C14         3.7897   -6.2477   -6.7937 C.3       1 <0>        -0.0331
     16 C15         5.1928   -6.0801   -7.3173 C.2       1 <0>        -0.0059
     17 C16         5.5683   -5.2872   -8.3368 C.2       1 <0>        -0.0263
     18 O2          6.9013   -5.4267   -8.4829 O.3       1 <0>        -0.1924
     19 C17         7.3249   -6.3010   -7.5535 C.2       1 <0>         0.2300
     20 N1          6.2907   -6.6909   -6.8454 N.2       1 <0>        -0.4530
     21 C18         8.7209   -6.7436   -7.3580 C.ar      1 <0>        -0.0045
     22 C19         9.0288   -7.6654   -6.3557 C.ar      1 <0>        -0.0559
     23 C20        10.3322   -8.0774   -6.1747 C.ar      1 <0>        -0.0999
     24 C21        11.3413   -7.5783   -6.9857 C.ar      1 <0>         0.0517
     25 C22        11.0403   -6.6572   -7.9886 C.ar      1 <0>         0.0310
     26 C23         9.7344   -6.2454   -8.1787 C.ar      1 <0>        -0.0722
     27 O3         12.1952   -6.3264   -8.6374 O.3       1 <0>        -0.3056
     28 C24        13.2600   -6.7389   -7.7605 C.3       1 <0>         0.2123
     29 O4         12.6838   -7.8229   -7.0084 O.3       1 <0>        -0.3051
     30 C25         4.6664   -4.4067   -9.1628 C.3       1 <0>        -0.0740
     31 C26         2.0758   -0.2435   -1.1071 C.2       1 <0>         0.5054
     32 O5          2.6291   -0.6408   -0.0959 O.co2     1 <0>        -0.6994
     33 O6          2.7128    0.3602   -1.9534 O.co2     1 <0>        -0.7025
     34 H1          1.0546    2.0624   -0.3581 H         1 <0>         0.0573
     35 H2         -0.2351    2.0357   -1.5846 H         1 <0>         0.0475
     36 H3         -0.6310    2.3828    0.1158 H         1 <0>         0.0407
     37 H4          0.1353    0.0647    0.7146 H         1 <0>         0.0603
     38 H5         -1.2583    0.0731   -0.3927 H         1 <0>         0.0475
     39 H6          0.3203   -0.1995   -2.3198 H         1 <0>         0.0584
     40 H7          0.6529   -2.3166   -0.1373 H         1 <0>         0.0874
     41 H8         -1.6943   -2.2935   -0.3208 H         1 <0>         0.0715
     42 H9         -1.6540   -1.5248   -1.9427 H         1 <0>         0.0700
     43 H10        -1.2736   -4.4392   -1.1904 H         1 <0>         0.0770
     44 H11        -2.0324   -3.7411   -2.6530 H         1 <0>         0.0700
     45 H12         2.9474   -1.9505   -2.3597 H         1 <0>         0.1424
     46 H13         3.6707   -3.4811   -4.1433 H         1 <0>         0.1219
     47 H14        -0.1585   -5.3727   -4.0594 H         1 <0>         0.1212
     48 H15         3.6445   -4.2106   -6.1083 H         1 <0>         0.0619
     49 H16         4.2385   -5.3579   -4.8839 H         1 <0>         0.0657
     50 H17         3.6727   -7.2505   -6.3828 H         1 <0>         0.0942
     51 H18         3.0787   -6.1032   -7.6072 H         1 <0>         0.0922
     52 H19         8.2462   -8.0556   -5.7219 H         1 <0>         0.1564
     53 H20        10.5684   -8.7906   -5.3988 H         1 <0>         0.1475
     54 H21         9.4992   -5.5359   -8.9582 H         1 <0>         0.1442
     55 H22        14.1178   -7.0859   -8.3366 H         1 <0>         0.1346
     56 H23        13.5477   -5.9231   -7.0973 H         1 <0>         0.0884
     57 H24         4.6018   -3.4203   -8.7036 H         1 <0>         0.0910
     58 H25         5.0731   -4.3128  -10.1697 H         1 <0>         0.0813
     59 H26         3.6719   -4.8502   -9.2125 H         1 <0>         0.0969
@<TRIPOS>BOND
     1    1    2 1
     2    1   34 1
     3    1   35 1
     4    1   36 1
     5    2    3 1
     6    2   37 1
     7    2   38 1
     8    3    4 1
     9    3   31 1
    10    3   39 1
    11    4    8 1
    12    4    5 1
    13    4   40 1
    14    5    6 1
    15    5   41 1
    16    5   42 1
    17    6    7 1
    18    6   43 1
    19    6   44 1
    20    7   12 ar
    21    7    8 ar
    22    8    9 ar
    23    9   10 ar
    24    9   45 1
    25   10   11 ar
    26   10   46 1
    27   11   12 ar
    28   11   13 1
    29   12   47 1
    30   13   14 1
    31   14   15 1
    32   14   48 1
    33   14   49 1
    34   15   16 1
    35   15   50 1
    36   15   51 1
    37   16   20 1
    38   16   17 2
    39   17   18 1
    40   17   30 1
    41   18   19 1
    42   19   20 2
    43   19   21 1
    44   21   26 ar
    45   21   22 ar
    46   22   23 ar
    47   22   52 1
    48   23   24 ar
    49   23   53 1
    50   24   29 1
    51   24   25 ar
    52   25   26 ar
    53   25   27 1
    54   26   54 1
    55   27   28 1
    56   28   29 1
    57   28   55 1
    58   28   56 1
    59   30   57 1
    60   30   58 1
    61   30   59 1
    62   31   32 2
    63   31   33 1
@<TRIPOS>MOLECULE
CHEMBL197866__2
   59    63     0     0     0
SMALL
USER_CHARGES

@<TRIPOS>ATOM
      1 C1         -0.0187    1.5258    0.0104 C.3       1 <0>        -0.1449
      2 C2          0.0021   -0.0041    0.0020 C.3       1 <0>        -0.1020
      3 C3          0.7182   -0.4975   -1.2568 C.3       1 <0>        -0.1439
      4 C4          0.8493   -2.0210   -1.2049 C.3       1 <0>        -0.0282
      5 C5          1.7201   -2.4429   -0.0026 C.3       1 <0>        -0.1211
      6 C6          3.1299   -2.5216   -0.6259 C.3       1 <0>        -0.0748
      7 C7          2.8988   -2.8144   -2.0930 C.ar      1 <0>        -0.0672
      8 C8          1.5876   -2.5265   -2.4260 C.ar      1 <0>        -0.0987
      9 C9          1.1461   -2.7193   -3.7246 C.ar      1 <0>        -0.0450
     10 C10         2.0092   -3.1986   -4.6895 C.ar      1 <0>        -0.2055
     11 C11         3.3245   -3.4881   -4.3579 C.ar      1 <0>         0.1179
     12 C12         3.7663   -3.2945   -3.0581 C.ar      1 <0>        -0.1458
     13 O1          4.1776   -3.9608   -5.3042 O.3       1 <0>        -0.3175
     14 C13         3.6526   -4.1360   -6.6217 C.3       1 <0>         0.0673
     15 C14         4.7516   -4.6716   -7.5416 C.3       1 <0>        -0.0338
     16 C15         4.1979   -4.8563   -8.9310 C.2       1 <0>        -0.0041
     17 C16         3.6150   -5.9698   -9.4097 C.2       1 <0>        -0.0293
     18 O2          3.2626   -5.7202  -10.6869 O.3       1 <0>        -0.1929
     19 C17         3.6331   -4.4602  -10.9741 C.2       1 <0>         0.2311
     20 N1          4.1936   -3.9369   -9.9087 N.2       1 <0>        -0.4523
     21 C18         3.4364   -3.7770  -12.2693 C.ar      1 <0>        -0.0054
     22 C19         3.8746   -2.4625  -12.4407 C.ar      1 <0>        -0.0550
     23 C20         3.6903   -1.8266  -13.6502 C.ar      1 <0>        -0.0995
     24 C21         3.0694   -2.4885  -14.6997 C.ar      1 <0>         0.0521
     25 C22         2.6293   -3.8015  -14.5348 C.ar      1 <0>         0.0304
     26 C23         2.8171   -4.4462  -13.3265 C.ar      1 <0>        -0.0723
     27 O3          2.0592   -4.2199  -15.7027 O.3       1 <0>        -0.3058
     28 C24         1.7871   -3.0192  -16.4491 C.3       1 <0>         0.2124
     29 O4          2.7745   -2.0872  -15.9704 O.3       1 <0>        -0.3049
     30 C25         3.3966   -7.2577   -8.6581 C.3       1 <0>        -0.0726
     31 C26        -0.0771   -0.1029   -2.4745 C.2       1 <0>         0.5064
     32 O5          0.4235    0.6153   -3.3231 O.co2     1 <0>        -0.7004
     33 O6         -1.2211   -0.5017   -2.6110 O.co2     1 <0>        -0.7024
     34 H1          1.0039    1.9031    0.0027 H         1 <0>         0.0458
     35 H2         -0.5459    1.8868   -0.8726 H         1 <0>         0.0580
     36 H3         -0.5289    1.8773    0.9072 H         1 <0>         0.0417
     37 H4          0.5293   -0.3651    0.8851 H         1 <0>         0.0479
     38 H5         -1.0205   -0.3814    0.0098 H         1 <0>         0.0626
     39 H6          1.7103   -0.0491   -1.3098 H         1 <0>         0.0578
     40 H7         -0.1360   -2.4827   -1.1407 H         1 <0>         0.0787
     41 H8          1.6858   -1.6893    0.7841 H         1 <0>         0.0786
     42 H9          1.4099   -3.4161    0.3779 H         1 <0>         0.0659
     43 H10         3.6495   -1.5708   -0.5072 H         1 <0>         0.0784
     44 H11         3.7027   -3.3265   -0.1652 H         1 <0>         0.0694
     45 H12         0.1221   -2.4940   -3.9832 H         1 <0>         0.1274
     46 H13         1.6607   -3.3482   -5.7008 H         1 <0>         0.1215
     47 H14         4.7901   -3.5193   -2.7981 H         1 <0>         0.1216
     48 H15         2.8258   -4.8457   -6.5919 H         1 <0>         0.0603
     49 H16         3.2960   -3.1784   -7.0009 H         1 <0>         0.0667
     50 H17         5.5784   -3.9619   -7.5714 H         1 <0>         0.0950
     51 H18         5.1082   -5.6292   -7.1623 H         1 <0>         0.0920
     52 H19         4.3577   -1.9437  -11.6259 H         1 <0>         0.1570
     53 H20         4.0300   -0.8098  -13.7809 H         1 <0>         0.1479
     54 H21         2.4812   -5.4647  -13.1991 H         1 <0>         0.1438
     55 H22         1.9130   -3.1955  -17.5174 H         1 <0>         0.1346
     56 H23         0.7820   -2.6553  -16.2360 H         1 <0>         0.0883
     57 H24         2.4290   -7.2266   -8.1573 H         1 <0>         0.0895
     58 H25         3.4175   -8.0941   -9.3567 H         1 <0>         0.0809
     59 H26         4.1856   -7.3839   -7.9166 H         1 <0>         0.0967
@<TRIPOS>BOND
     1    1    2 1
     2    1   34 1
     3    1   35 1
     4    1   36 1
     5    2    3 1
     6    2   37 1
     7    2   38 1
     8    3    4 1
     9    3   31 1
    10    3   39 1
    11    4    8 1
    12    4    5 1
    13    4   40 1
    14    5    6 1
    15    5   41 1
    16    5   42 1
    17    6    7 1
    18    6   43 1
    19    6   44 1
    20    7   12 ar
    21    7    8 ar
    22    8    9 ar
    23    9   10 ar
    24    9   45 1
    25   10   11 ar
    26   10   46 1
    27   11   12 ar
    28   11   13 1
    29   12   47 1
    30   13   14 1
    31   14   15 1
    32   14   48 1
    33   14   49 1
    34   15   16 1
    35   15   50 1
    36   15   51 1
    37   16   20 1
    38   16   17 2
    39   17   18 1
    40   17   30 1
    41   18   19 1
    42   19   20 2
    43   19   21 1
    44   21   26 ar
    45   21   22 ar
    46   22   23 ar
    47   22   52 1
    48   23   24 ar
    49   23   53 1
    50   24   29 1
    51   24   25 ar
    52   25   26 ar
    53   25   27 1
    54   26   54 1
    55   27   28 1
    56   28   29 1
    57   28   55 1
    58   28   56 1
    59   30   57 1
    60   30   58 1
    61   30   59 1
    62   31   32 2
    63   31   33 1
@<TRIPOS>MOLECULE
CHEMBL197866__3
   59    63     0     0     0
SMALL
USER_CHARGES

@<TRIPOS>ATOM
      1 C1         -0.0413    0.7206   -3.3017 C.3       1 <0>        -0.1439
      2 C2          0.1503   -0.6589   -2.6683 C.3       1 <0>        -0.0982
      3 C3          0.7182   -0.4975   -1.2568 C.3       1 <0>        -0.1523
      4 C4          0.7680   -1.8627   -0.5679 C.3       1 <0>        -0.0266
      5 C5          1.7514   -2.7979   -1.3030 C.3       1 <0>        -0.1291
      6 C6          2.3519   -3.6234   -0.1454 C.3       1 <0>        -0.0773
      7 C7          2.2355   -2.7364    1.0757 C.ar      1 <0>        -0.0611
      8 C8          1.3248   -1.7242    0.8330 C.ar      1 <0>        -0.0950
      9 C9          1.0556   -0.7864    1.8160 C.ar      1 <0>        -0.0382
     10 C10         1.6923   -0.8570    3.0388 C.ar      1 <0>        -0.2064
     11 C11         2.6061   -1.8711    3.2845 C.ar      1 <0>         0.1178
     12 C12         2.8756   -2.8096    2.3003 C.ar      1 <0>        -0.1446
     13 O1          3.2360   -1.9444    4.4865 O.3       1 <0>        -0.3178
     14 C13         2.9091   -0.9431    5.4523 C.3       1 <0>         0.0684
     15 C14         3.7109   -1.1879    6.7322 C.3       1 <0>        -0.0341
     16 C15         3.3662   -0.1320    7.7506 C.2       1 <0>        -0.0060
     17 C16         3.9822    1.0542    7.9012 C.2       1 <0>        -0.0240
     18 O2          3.3718    1.6963    8.9174 O.3       1 <0>        -0.1926
     19 C17         2.3921    0.8978    9.3756 C.2       1 <0>         0.2271
     20 N1          2.3864   -0.2056    8.6647 N.2       1 <0>        -0.4528
     21 C18         1.4722    1.2122   10.4883 C.ar      1 <0>        -0.0032
     22 C19         0.4972    0.2897   10.8721 C.ar      1 <0>        -0.0568
     23 C20        -0.3604    0.5848   11.9106 C.ar      1 <0>        -0.1000
     24 C21        -0.2586    1.7975   12.5771 C.ar      1 <0>         0.0509
     25 C22         0.7131    2.7233   12.1985 C.ar      1 <0>         0.0313
     26 C23         1.5796    2.4302   11.1621 C.ar      1 <0>        -0.0726
     27 O3          0.6046    3.8220   13.0018 O.3       1 <0>        -0.3055
     28 C24        -0.7008    3.7313   13.6025 C.3       1 <0>         0.2124
     29 O4         -0.9737    2.3177   13.6168 O.3       1 <0>        -0.3053
     30 C25         5.1400    1.5695    7.0857 C.3       1 <0>        -0.0752
     31 C26         2.1097    0.0754   -1.3376 C.2       1 <0>         0.5076
     32 O5          2.5237    0.7990   -0.4480 O.co2     1 <0>        -0.6959
     33 O6          2.8216   -0.1847   -2.2927 O.co2     1 <0>        -0.6974
     34 H1         -0.7336    1.3055   -2.6962 H         1 <0>         0.0399
     35 H2          0.9192    1.2335   -3.3529 H         1 <0>         0.0616
     36 H3         -0.4458    0.6056   -4.3073 H         1 <0>         0.0402
     37 H4         -0.8101   -1.1717   -2.6171 H         1 <0>         0.0376
     38 H5          0.8427   -1.2437   -3.2738 H         1 <0>         0.0686
     39 H6          0.0809    0.1757   -0.6835 H         1 <0>         0.0551
     40 H7         -0.2271   -2.3066   -0.5372 H         1 <0>         0.0673
     41 H8          1.2219   -3.4426   -2.0046 H         1 <0>         0.0636
     42 H9          2.5256   -2.2234   -1.8116 H         1 <0>         0.1090
     43 H10         1.7832   -4.5421   -0.0012 H         1 <0>         0.0718
     44 H11         3.3980   -3.8531   -0.3477 H         1 <0>         0.0705
     45 H12         0.3442    0.0035    1.6251 H         1 <0>         0.1167
     46 H13         1.4796   -0.1237    3.8026 H         1 <0>         0.1196
     47 H14         3.5868   -3.6000    2.4899 H         1 <0>         0.1208
     48 H15         3.1543    0.0410    5.0526 H         1 <0>         0.0619
     49 H16         1.8435   -0.9889    5.6767 H         1 <0>         0.0633
     50 H17         3.4658   -2.1719    7.1318 H         1 <0>         0.0939
     51 H18         4.7766   -1.1421    6.5077 H         1 <0>         0.0930
     52 H19         0.4144   -0.6550   10.3552 H         1 <0>         0.1562
     53 H20        -1.1140   -0.1302   12.2061 H         1 <0>         0.1472
     54 H21         2.3358    3.1443   10.8712 H         1 <0>         0.1443
     55 H22        -0.6836    4.1283   14.6175 H         1 <0>         0.1347
     56 H23        -1.4385    4.2576   12.9968 H         1 <0>         0.0881
     57 H24         4.7613    2.1197    6.2243 H         1 <0>         0.0920
     58 H25         5.7508    2.2313    7.6997 H         1 <0>         0.0814
     59 H26         5.7452    0.7302    6.7432 H         1 <0>         0.0980
@<TRIPOS>BOND
     1    1    2 1
     2    1   34 1
     3    1   35 1
     4    1   36 1
     5    2    3 1
     6    2   37 1
     7    2   38 1
     8    3    4 1
     9    3   31 1
    10    3   39 1
    11    4    8 1
    12    4    5 1
    13    4   40 1
    14    5    6 1
    15    5   41 1
    16    5   42 1
    17    6    7 1
    18    6   43 1
    19    6   44 1
    20    7   12 ar
    21    7    8 ar
    22    8    9 ar
    23    9   10 ar
    24    9   45 1
    25   10   11 ar
    26   10   46 1
    27   11   12 ar
    28   11   13 1
    29   12   47 1
    30   13   14 1
    31   14   15 1
    32   14   48 1
    33   14   49 1
    34   15   16 1
    35   15   50 1
    36   15   51 1
    37   16   20 1
    38   16   17 2
    39   17   18 1
    40   17   30 1
    41   18   19 1
    42   19   20 2
    43   19   21 1
    44   21   26 ar
    45   21   22 ar
    46   22   23 ar
    47   22   52 1
    48   23   24 ar
    49   23   53 1
    50   24   29 1
    51   24   25 ar
    52   25   26 ar
    53   25   27 1
    54   26   54 1
    55   27   28 1
    56   28   29 1
    57   28   55 1
    58   28   56 1
    59   30   57 1
    60   30   58 1
    61   30   59 1
    62   31   32 2
    63   31   33 1
@<TRIPOS>MOLECULE
CHEMBL558072
   61    63     0     0     0
SMALL
USER_CHARGES

@<TRIPOS>ATOM
      1 C1         -0.2484    1.6369   -0.3259 C.3       1 <0>        -0.1499
      2 C2         -0.2076    0.1113   -0.2175 C.3       1 <0>        -0.1242
      3 C3          0.5853   -0.4626   -1.3935 C.3       1 <0>        -0.1231
      4 C4          0.6260   -1.9882   -1.2851 C.3       1 <0>        -0.0813
      5 C5          1.4189   -2.5620   -2.4611 C.3       1 <0>        -0.1359
      6 C6          1.3557   -4.0672   -2.4227 C.2       1 <0>         0.5023
      7 O1          0.9717   -4.6863   -3.4004 O.co2     1 <0>        -0.6861
      8 O2          1.6886   -4.6658   -1.4141 O.co2     1 <0>        -0.6732
      9 S1          3.1480   -2.0262   -2.3434 S.3       1 <0>        -0.1148
     10 C7          3.8498   -2.5094   -3.8857 C.ar      1 <0>        -0.1052
     11 C8          3.0363   -3.0159   -4.8914 C.ar      1 <0>        -0.0734
     12 C9          3.5874   -3.3943   -6.0997 C.ar      1 <0>        -0.1284
     13 C10         4.9528   -3.2688   -6.3094 C.ar      1 <0>         0.1094
     14 C11         5.7661   -2.7631   -5.3059 C.ar      1 <0>        -0.1975
     15 C12         5.2163   -2.3787   -4.0989 C.ar      1 <0>        -0.0705
     16 O3          5.4946   -3.6422   -7.4996 O.3       1 <0>        -0.3140
     17 C13         6.9074   -3.4857   -7.6470 C.3       1 <0>         0.0654
     18 C14         7.3299   -3.9548   -9.0406 C.3       1 <0>        -0.1187
     19 C15         8.8425   -3.7872   -9.1983 C.3       1 <0>         0.0647
     20 O4          9.2371   -4.2254  -10.5000 O.3       1 <0>        -0.3090
     21 C16        10.5590   -4.1426  -10.8044 C.ar      1 <0>         0.1317
     22 C17        11.4521   -3.6552   -9.8651 C.ar      1 <0>        -0.2134
     23 C18        12.7952   -3.5711  -10.1764 C.ar      1 <0>        -0.0818
     24 C19        13.2377   -3.9701  -11.4211 C.ar      1 <0>        -0.1603
     25 C20        12.3454   -4.4584  -12.3672 C.ar      1 <0>        -0.0424
     26 C21        11.0079   -4.5542  -12.0579 C.ar      1 <0>        -0.1053
     27 C22         9.9880   -5.0940  -13.0260 C.3       1 <0>        -0.0719
     28 C23        10.5423   -5.0883  -14.4491 C.3       1 <0>        -0.1204
     29 C24        11.9106   -5.7801  -14.4382 C.3       1 <0>        -0.1210
     30 C25        12.8988   -4.8676  -13.7072 C.3       1 <0>        -0.0800
     31 H1          0.7681    2.0299   -0.3050 H         1 <0>         0.0526
     32 H2         -0.7290    1.9219   -1.2617 H         1 <0>         0.0512
     33 H3         -0.8132    2.0457    0.5119 H         1 <0>         0.0488
     34 H4          0.2730   -0.1738    0.7184 H         1 <0>         0.0605
     35 H5         -1.2241   -0.2817   -0.2383 H         1 <0>         0.0588
     36 H6          0.1046   -0.1775   -2.3293 H         1 <0>         0.0578
     37 H7          1.6017   -0.0695   -1.3726 H         1 <0>         0.0693
     38 H8          1.1066   -2.2732   -0.3492 H         1 <0>         0.0735
     39 H9         -0.3905   -2.3812   -1.3059 H         1 <0>         0.0697
     40 H10         0.9905   -2.2041   -3.3973 H         1 <0>         0.0812
     41 H11         1.9732   -3.1141   -4.7282 H         1 <0>         0.1496
     42 H12         2.9552   -3.7885   -6.8815 H         1 <0>         0.1300
     43 H13         6.8292   -2.6661   -5.4702 H         1 <0>         0.1247
     44 H14         5.8491   -1.9809   -3.3193 H         1 <0>         0.1251
     45 H15         7.1716   -2.4357   -7.5214 H         1 <0>         0.0628
     46 H16         7.4197   -4.0820   -6.8920 H         1 <0>         0.0636
     47 H17         7.0657   -5.0048   -9.1662 H         1 <0>         0.0866
     48 H18         6.8176   -3.3584   -9.7956 H         1 <0>         0.0856
     49 H19         9.1068   -2.7372   -9.0728 H         1 <0>         0.0658
     50 H20         9.3548   -4.3836   -8.4434 H         1 <0>         0.0664
     51 H21        11.0999   -3.3418   -8.8934 H         1 <0>         0.1279
     52 H22        13.4973   -3.1937   -9.4476 H         1 <0>         0.1240
     53 H23        14.2882   -3.9018  -11.6623 H         1 <0>         0.1210
     54 H24         9.7306   -6.1151  -12.7446 H         1 <0>         0.0740
     55 H25         9.0921   -4.4743  -12.9868 H         1 <0>         0.0772
     56 H26         9.8635   -5.6278  -15.1096 H         1 <0>         0.0678
     57 H27        10.6533   -4.0609  -14.7958 H         1 <0>         0.0646
     58 H28        11.8337   -6.7377  -13.9231 H         1 <0>         0.0669
     59 H29        12.2495   -5.9396  -15.4618 H         1 <0>         0.0672
     60 H30        13.0909   -3.9761  -14.3042 H         1 <0>         0.0787
     61 H31        13.8332   -5.4092  -13.5600 H         1 <0>         0.0751
@<TRIPOS>BOND
     1    1    2 1
     2    1   31 1
     3    1   32 1
     4    1   33 1
     5    2    3 1
     6    2   34 1
     7    2   35 1
     8    3    4 1
     9    3   36 1
    10    3   37 1
    11    4    5 1
    12    4   38 1
    13    4   39 1
    14    5    6 1
    15    5    9 1
    16    5   40 1
    17    6    7 2
    18    6    8 1
    19    9   10 1
    20   10   15 ar
    21   10   11 ar
    22   11   12 ar
    23   11   41 1
    24   12   13 ar
    25   12   42 1
    26   13   14 ar
    27   13   16 1
    28   14   15 ar
    29   14   43 1
    30   15   44 1
    31   16   17 1
    32   17   18 1
    33   17   45 1
    34   17   46 1
    35   18   19 1
    36   18   47 1
    37   18   48 1
    38   19   20 1
    39   19   49 1
    40   19   50 1
    41   20   21 1
    42   21   26 ar
    43   21   22 ar
    44   22   23 ar
    45   22   51 1
    46   23   24 ar
    47   23   52 1
    48   24   25 ar
    49   24   53 1
    50   25   30 1
    51   25   26 ar
    52   26   27 1
    53   27   28 1
    54   27   54 1
    55   27   55 1
    56   28   29 1
    57   28   56 1
    58   28   57 1
    59   29   30 1
    60   29   58 1
    61   29   59 1
    62   30   60 1
    63   30   61 1
@<TRIPOS>MOLECULE
CHEMBL558072__1
   61    63     0     0     0
SMALL
USER_CHARGES

@<TRIPOS>ATOM
      1 C1         -0.0187    1.5258    0.0104 C.3       1 <0>        -0.1499
      2 C2          0.0021   -0.0041    0.0020 C.3       1 <0>        -0.1245
      3 C3          0.7182   -0.4975   -1.2568 C.3       1 <0>        -0.1214
      4 C4          0.7390   -2.0273   -1.2652 C.3       1 <0>        -0.0829
      5 C5          1.4551   -2.5207   -2.5240 C.3       1 <0>        -0.1389
      6 C6          1.5842   -4.0213   -2.4729 C.2       1 <0>         0.4964
      7 O1          0.7531   -4.7237   -3.0229 O.co2     1 <0>        -0.6648
      8 O2          2.5197   -4.5330   -1.8817 O.co2     1 <0>        -0.6897
      9 S1          0.4978   -2.0457   -3.9898 S.3       1 <0>        -0.1067
     10 C7          1.5114   -2.5460   -5.3414 C.ar      1 <0>        -0.0880
     11 C8          2.7354   -3.1582   -5.1031 C.ar      1 <0>        -0.0798
     12 C9          3.5290   -3.5498   -6.1632 C.ar      1 <0>        -0.1267
     13 C10         3.1043   -3.3320   -7.4656 C.ar      1 <0>         0.1054
     14 C11         1.8823   -2.7208   -7.7048 C.ar      1 <0>        -0.1932
     15 C12         1.0845   -2.3336   -6.6463 C.ar      1 <0>        -0.0743
     16 O3          3.8869   -3.7177   -8.5089 O.3       1 <0>        -0.3144
     17 C13         3.3877   -3.4627   -9.8234 C.3       1 <0>         0.0656
     18 C14         4.3979   -3.9619  -10.8584 C.3       1 <0>        -0.1188
     19 C15         3.8634   -3.6889  -12.2657 C.3       1 <0>         0.0648
     20 O4          4.8069   -4.1552  -13.2324 O.3       1 <0>        -0.3090
     21 C16         4.4829   -3.9876  -14.5415 C.ar      1 <0>         0.1318
     22 C17         3.2850   -3.3820  -14.8816 C.ar      1 <0>        -0.2135
     23 C18         2.9569   -3.2131  -16.2127 C.ar      1 <0>        -0.0818
     24 C19         3.8227   -3.6510  -17.1941 C.ar      1 <0>        -0.1604
     25 C20         5.0249   -4.2604  -16.8578 C.ar      1 <0>        -0.0424
     26 C21         5.3610   -4.4212  -15.5330 C.ar      1 <0>        -0.1054
     27 C22         6.6565   -5.0529  -15.0957 C.3       1 <0>        -0.0718
     28 C23         7.2835   -5.8424  -16.2429 C.3       1 <0>        -0.1206
     29 C24         7.3456   -4.9352  -17.4774 C.3       1 <0>        -0.1208
     30 C25         5.9162   -4.7203  -17.9817 C.3       1 <0>        -0.0801
     31 H1          1.0039    1.9031    0.0027 H         1 <0>         0.0516
     32 H2         -0.5459    1.8868   -0.8726 H         1 <0>         0.0526
     33 H3         -0.5289    1.8773    0.9072 H         1 <0>         0.0490
     34 H4          0.5293   -0.3651    0.8851 H         1 <0>         0.0595
     35 H5         -1.0205   -0.3814    0.0098 H         1 <0>         0.0600
     36 H6          0.1910   -0.1364   -2.1398 H         1 <0>         0.0686
     37 H7          1.7408   -0.1202   -1.2645 H         1 <0>         0.0595
     38 H8          1.2661   -2.3884   -0.3821 H         1 <0>         0.0753
     39 H9         -0.2836   -2.4046   -1.2575 H         1 <0>         0.0668
     40 H10         2.4472   -2.0723   -2.5770 H         1 <0>         0.0813
     41 H11         3.0664   -3.3275   -4.0891 H         1 <0>         0.1379
     42 H12         4.4808   -4.0254   -5.9781 H         1 <0>         0.1291
     43 H13         1.5529   -2.5514   -8.7193 H         1 <0>         0.1245
     44 H14         0.1311   -1.8617   -6.8327 H         1 <0>         0.1251
     45 H15         2.4402   -3.9840   -9.9597 H         1 <0>         0.0635
     46 H16         3.2348   -2.3912   -9.9524 H         1 <0>         0.0627
     47 H17         5.3454   -3.4407  -10.7221 H         1 <0>         0.0856
     48 H18         4.5508   -5.0334  -10.7293 H         1 <0>         0.0863
     49 H19         2.9159   -4.2102  -12.4020 H         1 <0>         0.0663
     50 H20         3.7104   -2.6174  -12.3947 H         1 <0>         0.0659
     51 H21         2.6099   -3.0435  -14.1095 H         1 <0>         0.1280
     52 H22         2.0251   -2.7397  -16.4848 H         1 <0>         0.1240
     53 H23         3.5629   -3.5190  -18.2340 H         1 <0>         0.1209
     54 H24         7.3473   -4.2724  -14.7768 H         1 <0>         0.0737
     55 H25         6.4642   -5.7253  -14.2596 H         1 <0>         0.0774
     56 H26         8.2904   -6.1550  -15.9662 H         1 <0>         0.0678
     57 H27         6.6737   -6.7189  -16.4618 H         1 <0>         0.0648
     58 H28         7.7954   -3.9795  -17.2084 H         1 <0>         0.0666
     59 H29         7.9391   -5.4147  -18.2559 H         1 <0>         0.0672
     60 H30         5.5248   -5.6507  -18.3932 H         1 <0>         0.0788
     61 H31         5.9306   -3.9604  -18.7630 H         1 <0>         0.0750
@<TRIPOS>BOND
     1    1    2 1
     2    1   31 1
     3    1   32 1
     4    1   33 1
     5    2    3 1
     6    2   34 1
     7    2   35 1
     8    3    4 1
     9    3   36 1
    10    3   37 1
    11    4    5 1
    12    4   38 1
    13    4   39 1
    14    5    6 1
    15    5    9 1
    16    5   40 1
    17    6    7 2
    18    6    8 1
    19    9   10 1
    20   10   15 ar
    21   10   11 ar
    22   11   12 ar
    23   11   41 1
    24   12   13 ar
    25   12   42 1
    26   13   14 ar
    27   13   16 1
    28   14   15 ar
    29   14   43 1
    30   15   44 1
    31   16   17 1
    32   17   18 1
    33   17   45 1
    34   17   46 1
    35   18   19 1
    36   18   47 1
    37   18   48 1
    38   19   20 1
    39   19   49 1
    40   19   50 1
    41   20   21 1
    42   21   26 ar
    43   21   22 ar
    44   22   23 ar
    45   22   51 1
    46   23   24 ar
    47   23   52 1
    48   24   25 ar
    49   24   53 1
    50   25   30 1
    51   25   26 ar
    52   26   27 1
    53   27   28 1
    54   27   54 1
    55   27   55 1
    56   28   29 1
    57   28   56 1
    58   28   57 1
    59   29   30 1
    60   29   58 1
    61   29   59 1
    62   30   60 1
    63   30   61 1
@<TRIPOS>MOLECULE
CHEMBL202785
   62    65     0     0     0
SMALL
USER_CHARGES

@<TRIPOS>ATOM
      1 C1          2.6988    3.2629    4.9066 C.ar      1 <0>        -0.1431
      2 C2          3.9721    3.7743    4.7393 C.ar      1 <0>        -0.1240
      3 C3          5.0088    2.9395    4.3661 C.ar      1 <0>        -0.1258
      4 C4          4.7722    1.5931    4.1607 C.ar      1 <0>        -0.0215
      5 C5          3.4991    1.0815    4.3289 C.ar      1 <0>        -0.1022
      6 C6          2.4621    1.9166    4.7007 C.ar      1 <0>        -0.1222
      7 C7          5.9021    0.6831    3.7530 C.3       1 <0>        -0.1255
      8 C8          5.5791    0.0430    2.4014 C.3       1 <0>        -0.0427
      9 C9          6.7595   -0.7698    1.9356 C.ar      1 <0>        -0.1070
     10 C10         7.7440   -0.1784    1.1658 C.ar      1 <0>        -0.0850
     11 C11         8.8269   -0.9214    0.7371 C.ar      1 <0>        -0.1768
     12 C12         8.9262   -2.2620    1.0800 C.ar      1 <0>         0.1162
     13 C13         7.9372   -2.8530    1.8529 C.ar      1 <0>        -0.2306
     14 C14         6.8590   -2.1043    2.2834 C.ar      1 <0>         0.0211
     15 O1          9.9902   -2.9952    0.6592 O.3       1 <0>        -0.3197
     16 C15        10.0266   -4.3692    1.0501 C.3       1 <0>         0.0664
     17 C16        11.2885   -5.0264    0.4872 C.3       1 <0>        -0.1172
     18 C17        11.3274   -6.4975    0.9057 C.3       1 <0>         0.0618
     19 O2         12.5060   -7.1112    0.3800 O.3       1 <0>        -0.2984
     20 C18        12.6946   -8.4283    0.6620 C.ar      1 <0>         0.1172
     21 C19        11.7611   -9.1149    1.4239 C.ar      1 <0>        -0.1584
     22 C20        11.9526  -10.4523    1.7109 C.ar      1 <0>        -0.1465
     23 C21        13.0790  -11.1095    1.2372 C.ar      1 <0>         0.0939
     24 C22        14.0131  -10.4235    0.4751 C.ar      1 <0>        -0.0982
     25 C23        13.8185   -9.0866    0.1826 C.ar      1 <0>        -0.0346
     26 Cl1        14.9833   -8.2293   -0.7775 Cl        1 <0>        -0.0423
     27 O3         13.2673  -12.4259    1.5203 O.3       1 <0>        -0.2525
     28 C24        12.3225  -13.0603    2.2637 C.ar      1 <0>         0.0708
     29 C25        11.2522  -13.6848    1.6399 C.ar      1 <0>        -0.0950
     30 C26        10.2928  -14.3291    2.3967 C.ar      1 <0>        -0.1403
     31 C27        10.3989  -14.3517    3.7770 C.ar      1 <0>         0.1046
     32 C28        11.4663  -13.7285    4.4010 C.ar      1 <0>        -0.1398
     33 C29        12.4306  -13.0887    3.6465 C.ar      1 <0>        -0.0947
     34 F1          9.4598  -14.9822    4.5158 F         1 <0>        -0.1335
     35 C30         6.0778   -0.3956    4.7906 C.2       1 <0>         0.5022
     36 O4          6.4972   -1.4929    4.4641 O.co2     1 <0>        -0.6795
     37 O5          5.8006   -0.1710    5.9564 O.co2     1 <0>        -0.6873
     38 H1          1.8898    3.9143    5.2025 H         1 <0>         0.1115
     39 H2          4.1570    4.8262    4.8998 H         1 <0>         0.1125
     40 H3          6.0035    3.3392    4.2347 H         1 <0>         0.1131
     41 H4          3.3142    0.0297    4.1681 H         1 <0>         0.1143
     42 H5          1.4674    1.5170    4.8317 H         1 <0>         0.1133
     43 H6          6.8225    1.2612    3.6705 H         1 <0>         0.0714
     44 H7          4.7094   -0.6059    2.5053 H         1 <0>         0.0631
     45 H8          5.3648    0.8237    1.6716 H         1 <0>         0.0538
     46 H9          7.6663    0.8653    0.8991 H         1 <0>         0.1169
     47 H10         9.5953   -0.4592    0.1352 H         1 <0>         0.1175
     48 H11         8.0122   -3.8965    2.1212 H         1 <0>         0.1152
     49 H12         6.0911   -2.5628    2.8888 H         1 <0>         0.1407
     50 H13        10.0358   -4.4374    2.1379 H         1 <0>         0.0646
     51 H14         9.1462   -4.8810    0.6614 H         1 <0>         0.0623
     52 H15        11.2793   -4.9582   -0.6006 H         1 <0>         0.0855
     53 H16        12.1689   -4.5146    0.8759 H         1 <0>         0.0863
     54 H17        11.3366   -6.5657    1.9935 H         1 <0>         0.0698
     55 H18        10.4470   -7.0093    0.5170 H         1 <0>         0.0688
     56 H19        10.8844   -8.6036    1.7931 H         1 <0>         0.1442
     57 H20        11.2256  -10.9866    2.3045 H         1 <0>         0.1366
     58 H21        14.8902  -10.9348    0.1069 H         1 <0>         0.1503
     59 H22        11.1689  -13.6670    0.5633 H         1 <0>         0.1434
     60 H23         9.4592  -14.8151    1.9114 H         1 <0>         0.1452
     61 H24        11.5475  -13.7463    5.4778 H         1 <0>         0.1456
     62 H25        13.2656  -12.6067    4.1332 H         1 <0>         0.1438
@<TRIPOS>BOND
     1    1    6 ar
     2    1    2 ar
     3    1   38 1
     4    2    3 ar
     5    2   39 1
     6    3    4 ar
     7    3   40 1
     8    4    5 ar
     9    4    7 1
    10    5    6 ar
    11    5   41 1
    12    6   42 1
    13    7    8 1
    14    7   35 1
    15    7   43 1
    16    8    9 1
    17    8   44 1
    18    8   45 1
    19    9   14 ar
    20    9   10 ar
    21   10   11 ar
    22   10   46 1
    23   11   12 ar
    24   11   47 1
    25   12   13 ar
    26   12   15 1
    27   13   14 ar
    28   13   48 1
    29   14   49 1
    30   15   16 1
    31   16   17 1
    32   16   50 1
    33   16   51 1
    34   17   18 1
    35   17   52 1
    36   17   53 1
    37   18   19 1
    38   18   54 1
    39   18   55 1
    40   19   20 1
    41   20   25 ar
    42   20   21 ar
    43   21   22 ar
    44   21   56 1
    45   22   23 ar
    46   22   57 1
    47   23   24 ar
    48   23   27 1
    49   24   25 ar
    50   24   58 1
    51   25   26 1
    52   27   28 1
    53   28   33 ar
    54   28   29 ar
    55   29   30 ar
    56   29   59 1
    57   30   31 ar
    58   30   60 1
    59   31   32 ar
    60   31   34 1
    61   32   33 ar
    62   32   61 1
    63   33   62 1
    64   35   36 2
    65   35   37 1
@<TRIPOS>MOLECULE
CHEMBL202785__1
   62    65     0     0     0
SMALL
USER_CHARGES

@<TRIPOS>ATOM
      1 C1          2.6930    3.5594   -4.7087 C.ar      1 <0>        -0.1409
      2 C2          3.9369    4.0871   -4.4165 C.ar      1 <0>        -0.1297
      3 C3          4.9845    3.2469   -4.0887 C.ar      1 <0>        -0.1272
      4 C4          4.7882    1.8790   -4.0527 C.ar      1 <0>        -0.0437
      5 C5          3.5441    1.3514   -4.3440 C.ar      1 <0>        -0.0945
      6 C6          2.4969    2.1915   -4.6731 C.ar      1 <0>        -0.1281
      7 C7          5.9305    0.9630   -3.6963 C.3       1 <0>        -0.1212
      8 C8          5.5685    0.1590   -2.4460 C.3       1 <0>        -0.0507
      9 C9          6.7550   -0.6659   -2.0182 C.ar      1 <0>        -0.0965
     10 C10         6.9226   -1.9445   -2.5170 C.ar      1 <0>        -0.0541
     11 C11         8.0091   -2.7028   -2.1260 C.ar      1 <0>        -0.1458
     12 C12         8.9328   -2.1802   -1.2325 C.ar      1 <0>         0.1131
     13 C13         8.7626   -0.8968   -0.7339 C.ar      1 <0>        -0.2115
     14 C14         7.6772   -0.1406   -1.1319 C.ar      1 <0>        -0.0818
     15 O1         10.0023   -2.9243   -0.8461 O.3       1 <0>        -0.3149
     16 C15        10.9124   -2.3220    0.0763 C.3       1 <0>         0.0662
     17 C16        12.0432   -3.3033    0.3915 C.3       1 <0>        -0.1190
     18 C17        13.0177   -2.6584    1.3791 C.3       1 <0>         0.0628
     19 O2         14.0738   -3.5750    1.6734 O.3       1 <0>        -0.2977
     20 C18        15.0321   -3.1545    2.5420 C.ar      1 <0>         0.1169
     21 C19        14.9527   -1.8884    3.1024 C.ar      1 <0>        -0.1590
     22 C20        15.9262   -1.4608    3.9841 C.ar      1 <0>        -0.1472
     23 C21        16.9838   -2.2977    4.3097 C.ar      1 <0>         0.0944
     24 C22        17.0639   -3.5641    3.7496 C.ar      1 <0>        -0.0977
     25 C23        16.0865   -3.9945    2.8719 C.ar      1 <0>        -0.0342
     26 Cl1        16.1821   -5.5822    2.1766 Cl        1 <0>        -0.0407
     27 O3         17.9419   -1.8762    5.1773 O.3       1 <0>        -0.2523
     28 C24        17.8191   -0.6309    5.7080 C.ar      1 <0>         0.0711
     29 C25        17.1262   -0.4475    6.8958 C.ar      1 <0>        -0.0950
     30 C26        17.0021    0.8187    7.4339 C.ar      1 <0>        -0.1403
     31 C27        17.5690    1.9046    6.7884 C.ar      1 <0>         0.1044
     32 C28        18.2604    1.7232    5.6026 C.ar      1 <0>        -0.1400
     33 C29        18.3914    0.4573    5.0653 C.ar      1 <0>        -0.0947
     34 F1         17.4468    3.1423    7.3158 F         1 <0>        -0.1335
     35 C30         6.1939    0.0195   -4.8415 C.2       1 <0>         0.5101
     36 O4          7.2839    0.0130   -5.3878 O.co2     1 <0>        -0.6927
     37 O5          5.3170   -0.7375   -5.2217 O.co2     1 <0>        -0.6900
     38 H1          1.8734    4.2161   -4.9604 H         1 <0>         0.1112
     39 H2          4.0902    5.1557   -4.4447 H         1 <0>         0.1123
     40 H3          5.9564    3.6591   -3.8612 H         1 <0>         0.1140
     41 H4          3.3909    0.2827   -4.3162 H         1 <0>         0.1349
     42 H5          1.5250    1.7792   -4.9011 H         1 <0>         0.1142
     43 H6          6.8242    1.5557   -3.5010 H         1 <0>         0.0671
     44 H7          5.2919    0.8416   -1.6425 H         1 <0>         0.0577
     45 H8          4.7291   -0.4999   -2.6681 H         1 <0>         0.0764
     46 H9          6.2032   -2.3509   -3.2125 H         1 <0>         0.1357
     47 H10         8.1392   -3.7017   -2.5154 H         1 <0>         0.1263
     48 H11         9.4803   -0.4878   -0.0382 H         1 <0>         0.1197
     49 H12         7.5467    0.8601   -0.7474 H         1 <0>         0.1192
     50 H13        11.3296   -1.4163   -0.3639 H         1 <0>         0.0636
     51 H14        10.3840   -2.0692    0.9955 H         1 <0>         0.0622
     52 H15        11.6261   -4.2091    0.8316 H         1 <0>         0.0870
     53 H16        12.5716   -3.5562   -0.5277 H         1 <0>         0.0882
     54 H17        13.4348   -1.7527    0.9389 H         1 <0>         0.0690
     55 H18        12.4893   -2.4056    2.2983 H         1 <0>         0.0681
     56 H19        14.1298   -1.2365    2.8490 H         1 <0>         0.1433
     57 H20        15.8641   -0.4746    4.4200 H         1 <0>         0.1364
     58 H21        17.8875   -4.2154    4.0024 H         1 <0>         0.1508
     59 H22        16.6836   -1.2943    7.3994 H         1 <0>         0.1436
     60 H23        16.4625    0.9618    8.3584 H         1 <0>         0.1452
     61 H24        18.7014    2.5712    5.0998 H         1 <0>         0.1455
     62 H25        18.9349    0.3155    4.1428 H         1 <0>         0.1439
@<TRIPOS>BOND
     1    1    6 ar
     2    1    2 ar
     3    1   38 1
     4    2    3 ar
     5    2   39 1
     6    3    4 ar
     7    3   40 1
     8    4    5 ar
     9    4    7 1
    10    5    6 ar
    11    5   41 1
    12    6   42 1
    13    7    8 1
    14    7   35 1
    15    7   43 1
    16    8    9 1
    17    8   44 1
    18    8   45 1
    19    9   14 ar
    20    9   10 ar
    21   10   11 ar
    22   10   46 1
    23   11   12 ar
    24   11   47 1
    25   12   13 ar
    26   12   15 1
    27   13   14 ar
    28   13   48 1
    29   14   49 1
    30   15   16 1
    31   16   17 1
    32   16   50 1
    33   16   51 1
    34   17   18 1
    35   17   52 1
    36   17   53 1
    37   18   19 1
    38   18   54 1
    39   18   55 1
    40   19   20 1
    41   20   25 ar
    42   20   21 ar
    43   21   22 ar
    44   21   56 1
    45   22   23 ar
    46   22   57 1
    47   23   24 ar
    48   23   27 1
    49   24   25 ar
    50   24   58 1
    51   25   26 1
    52   27   28 1
    53   28   33 ar
    54   28   29 ar
    55   29   30 ar
    56   29   59 1
    57   30   31 ar
    58   30   60 1
    59   31   32 ar
    60   31   34 1
    61   32   33 ar
    62   32   61 1
    63   33   62 1
    64   35   36 2
    65   35   37 1
@<TRIPOS>MOLECULE
CHEMBL181644
   57    59     0     0     0
SMALL
USER_CHARGES

@<TRIPOS>ATOM
      1 C1         -1.2538    3.4451   -0.6190 C.3       1 <0>         0.0442
      2 O1         -0.8089    2.0897   -0.5359 O.3       1 <0>        -0.3705
      3 C2          0.0460    1.8258    0.5782 C.3       1 <0>         0.0304
      4 H1         -0.2127    2.4926    1.4007 H         1 <0>         0.0501
      5 C3         -0.1313    0.3730    1.0244 C.3       1 <0>        -0.0618
      6 C4         -1.5328    0.1738    1.5413 C.ar      1 <0>        -0.0834
      7 C5         -1.8108    0.3821    2.8797 C.ar      1 <0>        -0.0764
      8 C6         -3.0945    0.1999    3.3567 C.ar      1 <0>        -0.1978
      9 C7         -4.1056   -0.1921    2.4919 C.ar      1 <0>         0.1221
     10 C8         -3.8246   -0.4003    1.1485 C.ar      1 <0>        -0.0642
     11 C9         -2.5393   -0.2114    0.6755 C.ar      1 <0>        -0.0549
     12 Cl1        -5.0870   -0.8909    0.0626 Cl        1 <0>        -0.0657
     13 O2         -5.3692   -0.3724    2.9591 O.3       1 <0>        -0.3032
     14 C10        -5.5850   -0.1406    4.3525 C.3       1 <0>         0.0640
     15 C11        -7.0561   -0.3919    4.6896 C.3       1 <0>        -0.1195
     16 C12        -7.2871   -0.1436    6.1815 C.3       1 <0>         0.0614
     17 O3         -8.6611   -0.3784    6.4963 O.3       1 <0>        -0.3051
     18 C13        -9.0360   -0.2013    7.7883 C.ar      1 <0>         0.1686
     19 C14        -8.0977    0.1971    8.7340 C.ar      1 <0>        -0.2232
     20 C15        -8.4737    0.3780   10.0458 C.ar      1 <0>        -0.0370
     21 C16        -9.8018    0.1609   10.4267 C.ar      1 <0>        -0.2069
     22 C17       -10.7423   -0.2394    9.4721 C.ar      1 <0>        -0.0181
     23 C18       -10.3586   -0.4132    8.1616 C.ar      1 <0>        -0.1643
     24 C19       -10.2092    0.3529   11.8311 C.2       1 <0>         0.4432
     25 O4        -11.3263    0.0334   12.1891 O.2       1 <0>        -0.4516
     26 C20        -9.2595    0.9337   12.8031 C.ar      1 <0>        -0.1547
     27 C21        -8.3458    1.9078   12.3949 C.ar      1 <0>        -0.0873
     28 C22        -7.4626    2.4459   13.3075 C.ar      1 <0>        -0.1279
     29 C23        -7.4803    2.0224   14.6249 C.ar      1 <0>        -0.0938
     30 C24        -8.3826    1.0572   15.0361 C.ar      1 <0>        -0.1272
     31 C25        -9.2756    0.5151   14.1354 C.ar      1 <0>        -0.0680
     32 C26         1.4801    2.0564    0.1767 C.2       1 <0>         0.4774
     33 O5          2.3670    1.9748    1.0093 O.co2     1 <0>        -0.6994
     34 O6          1.7535    2.3247   -0.9808 O.co2     1 <0>        -0.6783
     35 H2         -0.3916    4.1055   -0.7117 H         1 <0>         0.0397
     36 H3         -1.8975    3.5635   -1.4906 H         1 <0>         0.0730
     37 H4         -1.8116    3.7003    0.2820 H         1 <0>         0.0231
     38 H5          0.0413   -0.2908    0.1772 H         1 <0>         0.0778
     39 H6          0.5834    0.1460    1.8154 H         1 <0>         0.0914
     40 H7         -1.0234    0.6873    3.5530 H         1 <0>         0.1323
     41 H8         -3.3105    0.3622    4.4024 H         1 <0>         0.1318
     42 H9         -2.3205   -0.3692   -0.3703 H         1 <0>         0.1428
     43 H10        -4.9583   -0.8163    4.9346 H         1 <0>         0.0663
     44 H11        -5.3282    0.8910    4.5932 H         1 <0>         0.0663
     45 H12        -7.6828    0.2838    4.1075 H         1 <0>         0.0884
     46 H13        -7.3129   -1.4235    4.4489 H         1 <0>         0.0882
     47 H14        -6.6604   -0.8193    6.7636 H         1 <0>         0.0708
     48 H15        -7.0303    0.8880    6.4222 H         1 <0>         0.0709
     49 H16        -7.0724    0.3646    8.4390 H         1 <0>         0.1369
     50 H17        -7.7442    0.6868   10.7798 H         1 <0>         0.1424
     51 H18       -11.7688   -0.4085    9.7621 H         1 <0>         0.1418
     52 H19       -11.0851   -0.7182    7.4230 H         1 <0>         0.1401
     53 H20        -8.3305    2.2387   11.3670 H         1 <0>         0.1355
     54 H21        -6.7555    3.1993   12.9932 H         1 <0>         0.1308
     55 H22        -6.7863    2.4469   15.3352 H         1 <0>         0.1280
     56 H23        -8.3905    0.7307   16.0655 H         1 <0>         0.1297
     57 H24        -9.9823   -0.2349   14.4586 H         1 <0>         0.1308
@<TRIPOS>BOND
     1    1    2 1
     2    1   35 1
     3    1   36 1
     4    1   37 1
     5    2    3 1
     6    3    4 1
     7    3    5 1
     8    3   32 1
     9    5    6 1
    10    5   38 1
    11    5   39 1
    12    6   11 ar
    13    6    7 ar
    14    7    8 ar
    15    7   40 1
    16    8    9 ar
    17    8   41 1
    18    9   10 ar
    19    9   13 1
    20   10   11 ar
    21   10   12 1
    22   11   42 1
    23   13   14 1
    24   14   15 1
    25   14   43 1
    26   14   44 1
    27   15   16 1
    28   15   45 1
    29   15   46 1
    30   16   17 1
    31   16   47 1
    32   16   48 1
    33   17   18 1
    34   18   23 ar
    35   18   19 ar
    36   19   20 ar
    37   19   49 1
    38   20   21 ar
    39   20   50 1
    40   21   22 ar
    41   21   24 1
    42   22   23 ar
    43   22   51 1
    44   23   52 1
    45   24   25 2
    46   24   26 1
    47   26   31 ar
    48   26   27 ar
    49   27   28 ar
    50   27   53 1
    51   28   29 ar
    52   28   54 1
    53   29   30 ar
    54   29   55 1
    55   30   31 ar
    56   30   56 1
    57   31   57 1
    58   32   33 2
    59   32   34 1
@<TRIPOS>MOLECULE
CHEMBL370024
   50    52     0     0     0
SMALL
USER_CHARGES

@<TRIPOS>ATOM
      1 C1         -0.0187    1.5258    0.0104 C.3       1 <0>        -0.1454
      2 C2          0.0021   -0.0041    0.0020 C.3       1 <0>        -0.0931
      3 C3          0.7182   -0.4975   -1.2568 C.3       1 <0>         0.0363
      4 C4          0.7599   -2.0435   -1.2932 C.3       1 <0>        -0.0852
      5 C5          2.1208   -2.3060   -1.9092 C.ar      1 <0>        -0.2061
      6 C6          2.6784   -3.4337   -2.4712 C.ar      1 <0>        -0.0342
      7 C7          3.9654   -3.3924   -2.9745 C.ar      1 <0>        -0.2519
      8 C8          4.6913   -2.2112   -2.9107 C.ar      1 <0>         0.1577
      9 C9          4.1323   -1.0794   -2.3428 C.ar      1 <0>        -0.1806
     10 C10         2.8381   -1.1186   -1.8320 C.ar      1 <0>         0.1811
     11 O1          2.1109   -0.1421   -1.2228 O.3       1 <0>        -0.2784
     12 O2          5.9556   -2.1658   -3.4070 O.3       1 <0>        -0.3112
     13 C11         6.4717   -3.3694   -3.9787 C.3       1 <0>         0.0667
     14 C12         7.8966   -3.1258   -4.4800 C.3       1 <0>        -0.1202
     15 C13         8.4492   -4.4146   -5.0922 C.3       1 <0>         0.0608
     16 O3          9.7800   -4.1871   -5.5604 O.3       1 <0>        -0.2948
     17 C14        10.4202   -5.2396   -6.1365 C.ar      1 <0>         0.1322
     18 C15         9.7775   -6.4628   -6.2531 C.ar      1 <0>        -0.1623
     19 C16        10.4274   -7.5319   -6.8387 C.ar      1 <0>        -0.0740
     20 C17        11.7234   -7.3825   -7.3100 C.ar      1 <0>         0.0762
     21 C18        12.3670   -6.1597   -7.1939 C.ar      1 <0>        -0.1447
     22 C19        11.7148   -5.0880   -6.6131 C.ar      1 <0>        -0.0334
     23 Cl1        12.5174   -3.5549   -6.4739 Cl        1 <0>        -0.0362
     24 O4         12.3631   -8.4354   -7.8856 O.3       1 <0>        -0.3053
     25 C20        13.6961   -8.2104   -8.3486 C.3       1 <0>         0.6027
     26 F1         14.5035   -7.8217   -7.2743 F         1 <0>        -0.1638
     27 F2         14.2006   -9.3890   -8.9085 F         1 <0>        -0.1296
     28 F3         13.6893   -7.2001   -9.3163 F         1 <0>        -0.1636
     29 C21         0.0571    0.0519   -2.4946 C.2       1 <0>         0.5001
     30 O5          0.6895    0.7585   -3.2609 O.co2     1 <0>        -0.6724
     31 O6         -1.1101   -0.2103   -2.7298 O.co2     1 <0>        -0.6855
     32 H1          1.0039    1.9031    0.0027 H         1 <0>         0.0555
     33 H2         -0.5459    1.8868   -0.8726 H         1 <0>         0.0618
     34 H3         -0.5289    1.8773    0.9072 H         1 <0>         0.0471
     35 H4          0.5293   -0.3651    0.8851 H         1 <0>         0.0576
     36 H5         -1.0205   -0.3814    0.0098 H         1 <0>         0.0824
     37 H6          0.7012   -2.4585   -0.2870 H         1 <0>         0.0768
     38 H7         -0.0360   -2.4399   -1.9236 H         1 <0>         0.0917
     39 H8          2.1098   -4.3507   -2.5183 H         1 <0>         0.1222
     40 H9          4.4040   -4.2755   -3.4151 H         1 <0>         0.1251
     41 H10         4.7020   -0.1631   -2.2959 H         1 <0>         0.1321
     42 H11         6.4816   -4.1553   -3.2235 H         1 <0>         0.0649
     43 H12         5.8403   -3.6753   -4.8130 H         1 <0>         0.0660
     44 H13         7.8866   -2.3400   -5.2353 H         1 <0>         0.0893
     45 H14         8.5279   -2.8200   -3.6458 H         1 <0>         0.0882
     46 H15         8.4591   -5.2004   -4.3369 H         1 <0>         0.0714
     47 H16         7.8178   -4.7204   -5.9264 H         1 <0>         0.0721
     48 H17         8.7687   -6.5798   -5.8857 H         1 <0>         0.1545
     49 H18         9.9265   -8.4844   -6.9293 H         1 <0>         0.1502
     50 H19        13.3761   -6.0434   -7.5608 H         1 <0>         0.1496
@<TRIPOS>BOND
     1    1    2 1
     2    1   32 1
     3    1   33 1
     4    1   34 1
     5    2    3 1
     6    2   35 1
     7    2   36 1
     8    3   11 1
     9    3    4 1
    10    3   29 1
    11    4    5 1
    12    4   37 1
    13    4   38 1
    14    5   10 ar
    15    5    6 ar
    16    6    7 ar
    17    6   39 1
    18    7    8 ar
    19    7   40 1
    20    8    9 ar
    21    8   12 1
    22    9   10 ar
    23    9   41 1
    24   10   11 1
    25   12   13 1
    26   13   14 1
    27   13   42 1
    28   13   43 1
    29   14   15 1
    30   14   44 1
    31   14   45 1
    32   15   16 1
    33   15   46 1
    34   15   47 1
    35   16   17 1
    36   17   22 ar
    37   17   18 ar
    38   18   19 ar
    39   18   48 1
    40   19   20 ar
    41   19   49 1
    42   20   21 ar
    43   20   24 1
    44   21   22 ar
    45   21   50 1
    46   22   23 1
    47   24   25 1
    48   25   26 1
    49   25   27 1
    50   25   28 1
    51   29   30 2
    52   29   31 1
@<TRIPOS>MOLECULE
CHEMBL370024__1
   50    52     0     0     0
SMALL
USER_CHARGES

@<TRIPOS>ATOM
      1 C1         -0.0187    1.5258    0.0104 C.3       1 <0>        -0.1430
      2 C2          0.0021   -0.0041    0.0020 C.3       1 <0>        -0.1151
      3 C3          0.7182   -0.4975   -1.2568 C.3       1 <0>         0.0390
      4 C4          0.6435   -2.0392   -1.3611 C.3       1 <0>        -0.0788
      5 C5         -0.5959   -2.2360   -2.2129 C.ar      1 <0>        -0.2073
      6 C6         -1.3823   -3.3405   -2.4583 C.ar      1 <0>        -0.0340
      7 C7         -2.4826   -3.2362   -3.2888 C.ar      1 <0>        -0.2512
      8 C8         -2.7903   -2.0154   -3.8729 C.ar      1 <0>         0.1578
      9 C9         -1.9981   -0.9068   -3.6291 C.ar      1 <0>        -0.1850
     10 C10        -0.8876   -1.0093   -2.7962 C.ar      1 <0>         0.1604
     11 O1          0.0254   -0.0644   -2.4397 O.3       1 <0>        -0.2630
     12 O2         -3.8728   -1.9081   -4.6875 O.3       1 <0>        -0.3113
     13 C11        -4.6469   -3.0909   -4.8968 C.3       1 <0>         0.0668
     14 C12        -5.8146   -2.7770   -5.8342 C.3       1 <0>        -0.1204
     15 C13        -6.6434   -4.0434   -6.0583 C.3       1 <0>         0.0608
     16 O3         -7.7340   -3.7501   -6.9338 O.3       1 <0>        -0.2950
     17 C14        -8.5746   -4.7752   -7.2379 C.ar      1 <0>         0.1315
     18 C15        -8.3559   -6.0343   -6.6995 C.ar      1 <0>        -0.1622
     19 C16        -9.2097   -7.0755   -7.0078 C.ar      1 <0>        -0.0741
     20 C17       -10.2860   -6.8623   -7.8566 C.ar      1 <0>         0.0768
     21 C18       -10.5055   -5.6035   -8.3955 C.ar      1 <0>        -0.1447
     22 C19        -9.6545   -4.5600   -8.0826 C.ar      1 <0>        -0.0331
     23 Cl1        -9.9329   -2.9823   -8.7512 Cl        1 <0>        -0.0360
     24 O4        -11.1257   -7.8878   -8.1605 O.3       1 <0>        -0.3053
     25 C20       -12.2131   -7.5968   -9.0408 C.3       1 <0>         0.6027
     26 F1        -11.7127   -7.1448  -10.2665 F         1 <0>        -0.1636
     27 F2        -12.9707   -8.7550   -9.2449 F         1 <0>        -0.1293
     28 F3        -13.0205   -6.6056   -8.4726 F         1 <0>        -0.1637
     29 C21         2.1495   -0.0262   -1.2737 C.2       1 <0>         0.5169
     30 O5          2.9119   -0.3603   -0.3828 O.co2     1 <0>        -0.6801
     31 O6          2.5451    0.6893   -2.1782 O.co2     1 <0>        -0.6693
     32 H1          1.0039    1.9031    0.0027 H         1 <0>         0.0614
     33 H2         -0.5459    1.8868   -0.8726 H         1 <0>         0.0546
     34 H3         -0.5289    1.8773    0.9072 H         1 <0>         0.0463
     35 H4          0.5293   -0.3651    0.8851 H         1 <0>         0.0805
     36 H5         -1.0205   -0.3814    0.0098 H         1 <0>         0.0524
     37 H6          1.5264   -2.4391   -1.8597 H         1 <0>         0.0850
     38 H7          0.5156   -2.4904   -0.3772 H         1 <0>         0.0846
     39 H8         -1.1387   -4.2885   -2.0018 H         1 <0>         0.1230
     40 H9         -3.0999   -4.1010   -3.4824 H         1 <0>         0.1255
     41 H10        -2.2424    0.0406   -4.0865 H         1 <0>         0.1326
     42 H11        -4.0190   -3.8616   -5.3440 H         1 <0>         0.0658
     43 H12        -5.0332   -3.4461   -3.9415 H         1 <0>         0.0656
     44 H13        -6.4424   -2.0063   -5.3870 H         1 <0>         0.0886
     45 H14        -5.4283   -2.4218   -6.7895 H         1 <0>         0.0889
     46 H15        -6.0156   -4.8141   -6.5055 H         1 <0>         0.0717
     47 H16        -7.0297   -4.3986   -5.1030 H         1 <0>         0.0715
     48 H17        -7.5177   -6.2010   -6.0392 H         1 <0>         0.1542
     49 H18        -9.0391   -8.0559   -6.5883 H         1 <0>         0.1503
     50 H19       -11.3434   -5.4376   -9.0564 H         1 <0>         0.1498
@<TRIPOS>BOND
     1    1    2 1
     2    1   32 1
     3    1   33 1
     4    1   34 1
     5    2    3 1
     6    2   35 1
     7    2   36 1
     8    3   11 1
     9    3    4 1
    10    3   29 1
    11    4    5 1
    12    4   37 1
    13    4   38 1
    14    5   10 ar
    15    5    6 ar
    16    6    7 ar
    17    6   39 1
    18    7    8 ar
    19    7   40 1
    20    8    9 ar
    21    8   12 1
    22    9   10 ar
    23    9   41 1
    24   10   11 1
    25   12   13 1
    26   13   14 1
    27   13   42 1
    28   13   43 1
    29   14   15 1
    30   14   44 1
    31   14   45 1
    32   15   16 1
    33   15   46 1
    34   15   47 1
    35   16   17 1
    36   17   22 ar
    37   17   18 ar
    38   18   19 ar
    39   18   48 1
    40   19   20 ar
    41   19   49 1
    42   20   21 ar
    43   20   24 1
    44   21   22 ar
    45   21   50 1
    46   22   23 1
    47   24   25 1
    48   25   26 1
    49   25   27 1
    50   25   28 1
    51   29   30 2
    52   29   31 1
@<TRIPOS>MOLECULE
CHEMBL191275
   41    43     0     0     0
SMALL
USER_CHARGES

@<TRIPOS>ATOM
      1 C1          0.4773    1.6723   -0.7083 C.ar      1 <0>        -0.1329
      2 C2          1.7107    2.2745   -0.5441 C.ar      1 <0>        -0.1226
      3 C3          2.8379    1.4988   -0.3474 C.ar      1 <0>        -0.1036
      4 C4          2.7315    0.1209   -0.3145 C.ar      1 <0>        -0.0701
      5 C5          1.4979   -0.4812   -0.4778 C.ar      1 <0>        -0.1197
      6 C6          0.3710    0.2945   -0.6759 C.ar      1 <0>        -0.1230
      7 C7          3.9604   -0.7248   -0.1010 C.3       1 <0>        -0.0637
      8 C8          4.1634   -0.9605    1.3970 C.3       1 <0>         0.0228
      9 H1          3.2583   -1.3939    1.8225 H         1 <0>         0.0669
     10 C9          5.3186   -1.9057    1.6048 C.2       1 <0>         0.4808
     11 O1          6.3296   -1.5188    2.1659 O.co2     1 <0>        -0.6698
     12 O2          5.2423   -3.0573    1.2118 O.co2     1 <0>        -0.6893
     13 O3          4.4442    0.2837    2.0412 O.3       1 <0>        -0.2884
     14 C10         4.1526    0.3724    3.3653 C.ar      1 <0>         0.1785
     15 C11         3.7180   -0.7509    4.0557 C.ar      1 <0>        -0.2007
     16 C12         3.4213   -0.6640    5.3997 C.ar      1 <0>        -0.0621
     17 C13         3.5584    0.5531    6.0649 C.ar      1 <0>        -0.1177
     18 C14         3.9953    1.6791    5.3692 C.ar      1 <0>        -0.0679
     19 C15         4.2952    1.5849    4.0264 C.ar      1 <0>        -0.1656
     20 C16         3.2395    0.6501    7.5105 C.ar      1 <0>        -0.0147
     21 C17         2.8077   -0.4761    8.2085 C.ar      1 <0>        -0.1226
     22 C18         2.5128   -0.3803    9.5534 C.ar      1 <0>        -0.1151
     23 C19         2.6448    0.8309   10.2084 C.ar      1 <0>        -0.1359
     24 C20         3.0726    1.9521    9.5204 C.ar      1 <0>        -0.1163
     25 C21         3.3762    1.8664    8.1768 C.ar      1 <0>        -0.1232
     26 H2         -0.4040    2.2786   -0.8575 H         1 <0>         0.1153
     27 H3          1.7938    3.3510   -0.5698 H         1 <0>         0.1172
     28 H4          3.8016    1.9692   -0.2198 H         1 <0>         0.1227
     29 H5          1.4149   -1.5577   -0.4524 H         1 <0>         0.1213
     30 H6         -0.5927   -0.1760   -0.8039 H         1 <0>         0.1171
     31 H7          3.8345   -1.6827   -0.6058 H         1 <0>         0.0964
     32 H8          4.8306   -0.2107   -0.5092 H         1 <0>         0.0787
     33 H9          3.6120   -1.6937    3.5398 H         1 <0>         0.1296
     34 H10         3.0826   -1.5380    5.9361 H         1 <0>         0.1215
     35 H11         4.1022    2.6236    5.8819 H         1 <0>         0.1248
     36 H12         4.6374    2.4561    3.4876 H         1 <0>         0.1273
     37 H13         2.7036   -1.4221    7.6979 H         1 <0>         0.1241
     38 H14         2.1781   -1.2524   10.0953 H         1 <0>         0.1198
     39 H15         2.4127    0.9015   11.2608 H         1 <0>         0.1173
     40 H16         3.1733    2.8954   10.0367 H         1 <0>         0.1194
     41 H17         3.7147    2.7413    7.6417 H         1 <0>         0.1235
@<TRIPOS>BOND
     1    1    6 ar
     2    1    2 ar
     3    1   26 1
     4    2    3 ar
     5    2   27 1
     6    3    4 ar
     7    3   28 1
     8    4    5 ar
     9    4    7 1
    10    5    6 ar
    11    5   29 1
    12    6   30 1
    13    7    8 1
    14    7   31 1
    15    7   32 1
    16    8    9 1
    17    8   10 1
    18    8   13 1
    19   10   11 2
    20   10   12 1
    21   13   14 1
    22   14   19 ar
    23   14   15 ar
    24   15   16 ar
    25   15   33 1
    26   16   17 ar
    27   16   34 1
    28   17   18 ar
    29   17   20 1
    30   18   19 ar
    31   18   35 1
    32   19   36 1
    33   20   25 ar
    34   20   21 ar
    35   21   22 ar
    36   21   37 1
    37   22   23 ar
    38   22   38 1
    39   23   24 ar
    40   23   39 1
    41   24   25 ar
    42   24   40 1
    43   25   41 1
@<TRIPOS>MOLECULE
CHEMBL252675
   46    48     0     0     0
SMALL
USER_CHARGES

@<TRIPOS>ATOM
      1 C1         -0.0167    1.3786    0.0096 C.ar      1 <0>        -0.0568
      2 C2          1.1689    2.0869    0.0021 C.ar      1 <0>        -0.1747
      3 C3          2.3811    1.4088   -0.0131 C.ar      1 <0>         0.2860
      4 C4          2.3964    0.0198   -0.0206 C.ar      1 <0>        -0.2596
      5 C5          1.2071   -0.6823   -0.0130 C.ar      1 <0>        -0.0431
      6 C6          0.0021   -0.0041    0.0020 C.ar      1 <0>        -0.2189
      7 C7         -1.2936   -0.7736    0.0107 C.3       1 <0>         0.1796
      8 N1         -1.7272   -1.0155   -1.3676 N.am      1 <0>        -0.7144
      9 C8         -2.8689   -1.6908   -1.6062 C.2       1 <0>         0.5511
     10 O1         -3.5390   -2.0991   -0.6777 O.2       1 <0>        -0.5441
     11 C9         -3.3060   -1.9347   -2.9959 C.ar      1 <0>        -0.1249
     12 C10        -2.5333   -1.4706   -4.0635 C.ar      1 <0>        -0.0812
     13 C11        -2.9416   -1.6985   -5.3582 C.ar      1 <0>        -0.1143
     14 C12        -4.1265   -2.3925   -5.6046 C.ar      1 <0>        -0.0302
     15 C13        -4.8989   -2.8564   -4.5393 C.ar      1 <0>        -0.1175
     16 C14        -4.4895   -2.6347   -3.2439 C.ar      1 <0>        -0.0581
     17 C15        -4.5655   -2.6369   -6.9994 C.ar      1 <0>        -0.0406
     18 C16        -3.7933   -2.1792   -8.0661 C.ar      1 <0>        -0.0957
     19 C17        -4.2060   -2.4097   -9.3623 C.ar      1 <0>        -0.1071
     20 C18        -5.3852   -3.0937   -9.6046 C.ar      1 <0>        -0.0344
     21 C19        -6.1558   -3.5503   -8.5488 C.ar      1 <0>        -0.1081
     22 C20        -5.7491   -3.3301   -7.2489 C.ar      1 <0>        -0.0968
     23 Cl1        -5.8995   -3.3794  -11.2379 Cl        1 <0>        -0.0707
     24 N2          3.5820    2.1220   -0.0212 N.2       1 <0>        -1.0566
     25 S1          5.0262    1.3117   -0.0392 S.o2      1 <0>         2.5058
     26 O2          5.0593    0.6024    1.1916 O.2       1 <0>        -0.9567
     27 O3          5.0354    0.6147   -1.2775 O.2       1 <0>        -0.9575
     28 C21         6.2905    2.6125   -0.0450 C.3       1 <0>        -0.0070
     29 F1          6.1538    3.4008    1.1026 F         1 <0>        -0.1644
     30 F2          7.5613    2.0275   -0.0603 F         1 <0>        -0.1838
     31 F3          6.1316    3.4122   -1.1818 F         1 <0>        -0.1647
     32 H1         -0.9595    1.9052    0.0260 H         1 <0>         0.1101
     33 H2          1.1535    3.1668    0.0077 H         1 <0>         0.1183
     34 H3          3.3371   -0.5105   -0.0328 H         1 <0>         0.1016
     35 H4          1.2182   -1.7622   -0.0189 H         1 <0>         0.1065
     36 H5         -1.1466   -1.7270    0.5180 H         1 <0>         0.0676
     37 H6         -2.0553   -0.1966    0.5352 H         1 <0>         0.0688
     38 H7         -1.1925   -0.6897   -2.1085 H         1 <0>         0.4015
     39 H8         -1.6162   -0.9330   -3.8729 H         1 <0>         0.1335
     40 H9         -2.3447   -1.3395   -6.1835 H         1 <0>         0.1328
     41 H10        -5.8161   -3.3933   -4.7312 H         1 <0>         0.1316
     42 H11        -5.0852   -2.9978   -2.4194 H         1 <0>         0.1393
     43 H12        -2.8737   -1.6450   -7.8782 H         1 <0>         0.1383
     44 H13        -3.6085   -2.0556  -10.1893 H         1 <0>         0.1366
     45 H14        -7.0750   -4.0831   -8.7431 H         1 <0>         0.1358
     46 H15        -6.3486   -3.6906   -6.4261 H         1 <0>         0.1371
@<TRIPOS>BOND
     1    1    6 ar
     2    1    2 ar
     3    1   32 1
     4    2    3 ar
     5    2   33 1
     6    3    4 ar
     7    3   24 1
     8    4    5 ar
     9    4   34 1
    10    5    6 ar
    11    5   35 1
    12    6    7 1
    13    7    8 1
    14    7   36 1
    15    7   37 1
    16    8    9 am
    17    8   38 1
    18    9   10 2
    19    9   11 1
    20   11   16 ar
    21   11   12 ar
    22   12   13 ar
    23   12   39 1
    24   13   14 ar
    25   13   40 1
    26   14   15 ar
    27   14   17 1
    28   15   16 ar
    29   15   41 1
    30   16   42 1
    31   17   22 ar
    32   17   18 ar
    33   18   19 ar
    34   18   43 1
    35   19   20 ar
    36   19   44 1
    37   20   21 ar
    38   20   23 1
    39   21   22 ar
    40   21   45 1
    41   22   46 1
    42   24   25 1
    43   25   26 2
    44   25   27 2
    45   25   28 1
    46   28   29 1
    47   28   30 1
    48   28   31 1
@<TRIPOS>MOLECULE
CHEMBL252675__1
   47    49     0     0     0
SMALL
USER_CHARGES

@<TRIPOS>ATOM
      1 C1         -0.0020    1.3267   -0.1107 C.ar      1 <0>        -0.0821
      2 C2          1.1723    2.0534   -0.0949 C.ar      1 <0>        -0.1150
      3 C3          2.3940    1.3949   -0.0369 C.ar      1 <0>         0.1212
      4 C4          2.4301    0.0069    0.0049 C.ar      1 <0>        -0.1394
      5 C5          1.2520   -0.7137   -0.0112 C.ar      1 <0>        -0.0753
      6 C6          0.0375   -0.0550   -0.0690 C.ar      1 <0>        -0.1057
      7 C7         -1.2460   -0.8446   -0.0860 C.3       1 <0>         0.1594
      8 N1         -1.6187   -1.1409   -1.4714 N.am      1 <0>        -0.7237
      9 C8         -2.7395   -1.8424   -1.7324 C.2       1 <0>         0.5595
     10 O1         -3.4412   -2.2293   -0.8181 O.2       1 <0>        -0.5314
     11 C9         -3.1153   -2.1412   -3.1293 C.ar      1 <0>        -0.1346
     12 C10        -2.3063   -1.7017   -4.1802 C.ar      1 <0>        -0.0811
     13 C11        -2.6575   -1.9807   -5.4816 C.ar      1 <0>        -0.1171
     14 C12        -3.8209   -2.7019   -5.7515 C.ar      1 <0>        -0.0183
     15 C13        -4.6295   -3.1412   -4.7029 C.ar      1 <0>        -0.1167
     16 C14        -4.2771   -2.8684   -3.4004 C.ar      1 <0>        -0.0531
     17 C15        -4.1984   -3.0013   -7.1536 C.ar      1 <0>        -0.0498
     18 C16        -3.3896   -2.5683   -8.2034 C.ar      1 <0>        -0.0940
     19 C17        -3.7452   -2.8499   -9.5064 C.ar      1 <0>        -0.1080
     20 C18        -4.9031   -3.5610   -9.7723 C.ar      1 <0>        -0.0304
     21 C19        -5.7098   -3.9933   -8.7333 C.ar      1 <0>        -0.1075
     22 C20        -5.3603   -3.7219   -7.4265 C.ar      1 <0>        -0.0935
     23 Cl1        -5.3454   -3.9111  -11.4141 Cl        1 <0>        -0.0648
     24 N2          3.5836    2.1267   -0.0212 N.pl3     1 <0>        -1.0227
     25 S1          4.7753    1.7467    1.0640 S.o2      1 <0>         2.6046
     26 O2          5.0284    0.3641    0.8552 O.2       1 <0>        -0.8660
     27 O3          5.7933    2.7119    0.8375 O.2       1 <0>        -0.8755
     28 C21         4.0213    2.0046    2.6936 C.3       1 <0>        -0.0370
     29 F1          2.9831    1.0851    2.8779 F         1 <0>        -0.1548
     30 F2          4.9877    1.8225    3.6887 F         1 <0>        -0.1580
     31 F3          3.5116    3.3051    2.7711 F         1 <0>        -0.1580
     32 H1         -0.9523    1.8382   -0.1512 H         1 <0>         0.1359
     33 H2          1.1408    3.1324   -0.1279 H         1 <0>         0.1375
     34 H3          3.3783   -0.5082    0.0497 H         1 <0>         0.1596
     35 H4          1.2793   -1.7929    0.0213 H         1 <0>         0.1384
     36 H5         -1.1059   -1.7775    0.4601 H         1 <0>         0.0833
     37 H6         -2.0371   -0.2623    0.3865 H         1 <0>         0.0826
     38 H7         -1.0588   -0.8322   -2.2009 H         1 <0>         0.4020
     39 H8         -1.4059   -1.1431   -3.9715 H         1 <0>         0.1287
     40 H9         -2.0324   -1.6408   -6.2941 H         1 <0>         0.1337
     41 H10        -5.5300   -3.6992   -4.9129 H         1 <0>         0.1350
     42 H11        -4.9009   -3.2124   -2.5887 H         1 <0>         0.1408
     43 H12        -2.4866   -2.0130   -7.9971 H         1 <0>         0.1369
     44 H13        -3.1193   -2.5150  -10.3204 H         1 <0>         0.1378
     45 H14        -6.6122   -4.5472   -8.9460 H         1 <0>         0.1380
     46 H15        -5.9878   -4.0634   -6.6166 H         1 <0>         0.1376
     47 H16         3.7117    2.8576   -0.6460 H         1 <0>         0.4410
@<TRIPOS>BOND
     1    1    6 ar
     2    1    2 ar
     3    1   32 1
     4    2    3 ar
     5    2   33 1
     6    3    4 ar
     7    3   24 1
     8    4    5 ar
     9    4   34 1
    10    5    6 ar
    11    5   35 1
    12    6    7 1
    13    7    8 1
    14    7   36 1
    15    7   37 1
    16    8    9 am
    17    8   38 1
    18    9   10 2
    19    9   11 1
    20   11   16 ar
    21   11   12 ar
    22   12   13 ar
    23   12   39 1
    24   13   14 ar
    25   13   40 1
    26   14   15 ar
    27   14   17 1
    28   15   16 ar
    29   15   41 1
    30   16   42 1
    31   17   22 ar
    32   17   18 ar
    33   18   19 ar
    34   18   43 1
    35   19   20 ar
    36   19   44 1
    37   20   21 ar
    38   20   23 1
    39   21   22 ar
    40   21   45 1
    41   22   46 1
    42   24   25 1
    43   24   47 1
    44   25   26 2
    45   25   27 2
    46   25   28 1
    47   28   29 1
    48   28   30 1
    49   28   31 1
@<TRIPOS>MOLECULE
CHEMBL380070
   59    62     0     0     0
SMALL
USER_CHARGES

@<TRIPOS>ATOM
      1 C1         -0.0187    1.5258    0.0104 C.3       1 <0>        -0.1422
      2 C2          0.0021   -0.0041    0.0020 C.3       1 <0>         0.0661
      3 O1          0.6709   -0.4649   -1.1737 O.3       1 <0>        -0.3659
      4 C3          0.7457   -1.8880   -1.2798 C.3       1 <0>         0.0340
      5 C4          2.0114   -2.2764   -2.0467 C.3       1 <0>        -0.0596
      6 C5          3.2252   -1.8716   -1.2507 C.ar      1 <0>        -0.0868
      7 C6          3.7758   -0.6096   -1.4284 C.ar      1 <0>        -0.0719
      8 C7          4.8854   -0.2198   -0.7113 C.ar      1 <0>        -0.1527
      9 C8          5.4618   -1.0977    0.2013 C.ar      1 <0>         0.0918
     10 C9          4.8999   -2.3751    0.3780 C.ar      1 <0>        -0.1065
     11 C10         3.7718   -2.7475   -0.3558 C.ar      1 <0>        -0.0736
     12 C11         5.7232   -3.0432    1.3887 C.2       1 <0>        -0.2022
     13 C12         6.6848   -2.1775    1.7463 C.2       1 <0>         0.0503
     14 N1          6.5446   -1.0097    1.0472 N.pl3     1 <0>        -0.4830
     15 C13         7.4164    0.1603    1.1795 C.3       1 <0>         0.2003
     16 C14         6.8096    1.1306    2.1600 C.2       1 <0>        -0.0406
     17 C15         5.9542    2.1259    1.8634 C.2       1 <0>        -0.0061
     18 O2          5.6548    2.7535    3.0179 O.3       1 <0>        -0.1912
     19 C16         6.3282    2.1371    4.0046 C.2       1 <0>         0.2280
     20 N2          7.0217    1.1520    3.4845 N.2       1 <0>        -0.4524
     21 C17         6.2896    2.5039    5.4361 C.ar      1 <0>        -0.0059
     22 C18         7.0437    1.7846    6.3645 C.ar      1 <0>        -0.0778
     23 C19         7.0036    2.1324    7.6990 C.ar      1 <0>        -0.0833
     24 C20         6.2180    3.1916    8.1176 C.ar      1 <0>        -0.1036
     25 C21         5.4681    3.9087    7.2024 C.ar      1 <0>        -0.0820
     26 C22         5.5034    3.5746    5.8643 C.ar      1 <0>        -0.0969
     27 C23         4.6150    5.0606    7.6675 C.3       1 <0>        -0.1152
     28 C24         7.8167    1.3566    8.7029 C.3       1 <0>        -0.1143
     29 C25         5.4288    2.4745    0.4946 C.3       1 <0>        -0.0853
     30 C26        -0.4650   -2.4012   -2.0158 C.2       1 <0>         0.4772
     31 O3         -1.2670   -1.6161   -2.4921 O.co2     1 <0>        -0.6811
     32 O4         -0.6427   -3.6015   -2.1348 O.co2     1 <0>        -0.7005
     33 H1          1.0039    1.9031    0.0027 H         1 <0>         0.0527
     34 H2         -0.5459    1.8868   -0.8726 H         1 <0>         0.0627
     35 H3         -0.5289    1.8773    0.9072 H         1 <0>         0.0586
     36 H4          0.5293   -0.3651    0.8851 H         1 <0>         0.0287
     37 H5         -1.0205   -0.3814    0.0098 H         1 <0>         0.0450
     38 H6          0.7769   -2.3256   -0.2819 H         1 <0>         0.0479
     39 H7          2.0237   -3.3548   -2.2050 H         1 <0>         0.0858
     40 H8          2.0227   -1.7676   -3.0106 H         1 <0>         0.0727
     41 H9          3.3299    0.0733   -2.1364 H         1 <0>         0.1268
     42 H10         5.3068    0.7638   -0.8572 H         1 <0>         0.1204
     43 H11         3.3352   -3.7259   -0.2194 H         1 <0>         0.1204
     44 H12         5.5829   -4.0425    1.7734 H         1 <0>         0.1428
     45 H13         7.4553   -2.3739    2.4773 H         1 <0>         0.1621
     46 H14         8.3957   -0.1552    1.5394 H         1 <0>         0.1051
     47 H15         7.5246    0.6444    0.2089 H         1 <0>         0.1008
     48 H16         7.6570    0.9574    6.0391 H         1 <0>         0.1370
     49 H17         6.1899    3.4596    9.1635 H         1 <0>         0.1274
     50 H18         4.9210    4.1380    5.1503 H         1 <0>         0.1299
     51 H19         5.1985    5.9808    7.6363 H         1 <0>         0.0727
     52 H20         3.7481    5.1578    7.0139 H         1 <0>         0.0692
     53 H21         4.2812    4.8765    8.6887 H         1 <0>         0.0694
     54 H22         8.8024    1.8114    8.8015 H         1 <0>         0.0727
     55 H23         7.3117    1.3712    9.6687 H         1 <0>         0.0689
     56 H24         7.9243    0.3260    8.3648 H         1 <0>         0.0698
     57 H25         4.5098    1.9196    0.3060 H         1 <0>         0.1035
     58 H26         5.2242    3.5439    0.4455 H         1 <0>         0.0843
     59 H27         6.1726    2.2119   -0.2577 H         1 <0>         0.0955
@<TRIPOS>BOND
     1    1    2 1
     2    1   33 1
     3    1   34 1
     4    1   35 1
     5    2    3 1
     6    2   36 1
     7    2   37 1
     8    3    4 1
     9    4    5 1
    10    4   30 1
    11    4   38 1
    12    5    6 1
    13    5   39 1
    14    5   40 1
    15    6   11 ar
    16    6    7 ar
    17    7    8 ar
    18    7   41 1
    19    8    9 ar
    20    8   42 1
    21    9   14 1
    22    9   10 ar
    23   10   11 ar
    24   10   12 1
    25   11   43 1
    26   12   13 2
    27   12   44 1
    28   13   14 1
    29   13   45 1
    30   14   15 1
    31   15   16 1
    32   15   46 1
    33   15   47 1
    34   16   20 1
    35   16   17 2
    36   17   18 1
    37   17   29 1
    38   18   19 1
    39   19   20 2
    40   19   21 1
    41   21   26 ar
    42   21   22 ar
    43   22   23 ar
    44   22   48 1
    45   23   24 ar
    46   23   28 1
    47   24   25 ar
    48   24   49 1
    49   25   26 ar
    50   25   27 1
    51   26   50 1
    52   27   51 1
    53   27   52 1
    54   27   53 1
    55   28   54 1
    56   28   55 1
    57   28   56 1
    58   29   57 1
    59   29   58 1
    60   29   59 1
    61   30   31 2
    62   30   32 1
@<TRIPOS>MOLECULE
CHEMBL380070__1
   59    62     0     0     0
SMALL
USER_CHARGES

@<TRIPOS>ATOM
      1 C1         -0.0187    1.5258    0.0104 C.3       1 <0>        -0.1432
      2 C2          0.0021   -0.0041    0.0020 C.3       1 <0>         0.0677
      3 O1          0.6709   -0.4649   -1.1737 O.3       1 <0>        -0.3657
      4 C3          0.7457   -1.8880   -1.2798 C.3       1 <0>         0.0340
      5 C4          0.7554   -2.2896   -2.7561 C.3       1 <0>        -0.0589
      6 C5         -0.5593   -1.9112   -3.3882 C.ar      1 <0>        -0.0908
      7 C6         -1.6123   -2.8159   -3.3813 C.ar      1 <0>        -0.0911
      8 C7         -2.8221   -2.4903   -3.9539 C.ar      1 <0>        -0.1524
      9 C8         -2.9931   -1.2427   -4.5454 C.ar      1 <0>         0.0910
     10 C9         -1.9232   -0.3295   -4.5493 C.ar      1 <0>        -0.1058
     11 C10        -0.7071   -0.6785   -3.9586 C.ar      1 <0>        -0.0516
     12 C11        -2.4155    0.8679   -5.2348 C.2       1 <0>        -0.2001
     13 C12        -3.6874    0.6231   -5.5873 C.2       1 <0>         0.0497
     14 N1         -4.0498   -0.6331   -5.1837 N.pl3     1 <0>        -0.4833
     15 C13        -5.3663   -1.2390   -5.3984 C.3       1 <0>         0.2002
     16 C14        -6.2234   -1.0237   -4.1777 C.2       1 <0>        -0.0395
     17 C15        -6.3078   -1.8435   -3.1141 C.2       1 <0>        -0.0077
     18 O2         -7.1797   -1.2884   -2.2492 O.3       1 <0>        -0.1915
     19 C16        -7.6176   -0.1390   -2.7917 C.2       1 <0>         0.2286
     20 N2         -7.0336    0.0223   -3.9556 N.2       1 <0>        -0.4523
     21 C17        -8.5896    0.7901   -2.1775 C.ar      1 <0>        -0.0062
     22 C18        -8.9687    1.9530   -2.8497 C.ar      1 <0>        -0.0776
     23 C19        -9.8767    2.8157   -2.2711 C.ar      1 <0>        -0.0832
     24 C20       -10.4112    2.5301   -1.0273 C.ar      1 <0>        -0.1034
     25 C21       -10.0396    1.3789   -0.3557 C.ar      1 <0>        -0.0820
     26 C22        -9.1366    0.5052   -0.9254 C.ar      1 <0>        -0.0970
     27 C23       -10.6266    1.0762    0.9989 C.3       1 <0>        -0.1152
     28 C24       -10.2868    4.0721   -2.9952 C.3       1 <0>        -0.1143
     29 C25        -5.5656   -3.1413   -2.9253 C.3       1 <0>        -0.0849
     30 C26         2.0091   -2.3753   -0.6184 C.2       1 <0>         0.4772
     31 O3          2.7745   -1.5779   -0.1038 O.co2     1 <0>        -0.6811
     32 O4          2.2658   -3.5670   -0.5978 O.co2     1 <0>        -0.7009
     33 H1          1.0039    1.9031    0.0027 H         1 <0>         0.0624
     34 H2         -0.5459    1.8868   -0.8726 H         1 <0>         0.0541
     35 H3         -0.5289    1.8773    0.9072 H         1 <0>         0.0584
     36 H4          0.5293   -0.3651    0.8851 H         1 <0>         0.0460
     37 H5         -1.0205   -0.3814    0.0098 H         1 <0>         0.0272
     38 H6         -0.1179   -2.3349   -0.7873 H         1 <0>         0.0471
     39 H7          1.5669   -1.7723   -3.2680 H         1 <0>         0.0716
     40 H8          0.9017   -3.3665   -2.8387 H         1 <0>         0.0867
     41 H9         -1.4815   -3.7849   -2.9227 H         1 <0>         0.1242
     42 H10        -3.6350   -3.2013   -3.9441 H         1 <0>         0.1204
     43 H11         0.1150    0.0219   -3.9560 H         1 <0>         0.1227
     44 H12        -1.8606    1.7755   -5.4208 H         1 <0>         0.1430
     45 H13        -4.3295    1.3150   -6.1122 H         1 <0>         0.1620
     46 H14        -5.8425   -0.7765   -6.2629 H         1 <0>         0.1052
     47 H15        -5.2496   -2.3080   -5.5764 H         1 <0>         0.1007
     48 H16        -8.5519    2.1773   -3.8204 H         1 <0>         0.1371
     49 H17       -11.1213    3.2088   -0.5786 H         1 <0>         0.1275
     50 H18        -8.8508   -0.3952   -0.4021 H         1 <0>         0.1297
     51 H19       -11.5392    0.4928    0.8772 H         1 <0>         0.0727
     52 H20        -9.9072    0.5070    1.5876 H         1 <0>         0.0691
     53 H21       -10.8579    2.0099    1.5116 H         1 <0>         0.0695
     54 H22       -11.1565    3.8647   -3.6186 H         1 <0>         0.0727
     55 H23       -10.5366    4.8451   -2.2685 H         1 <0>         0.0690
     56 H24        -9.4638    4.4151   -3.6222 H         1 <0>         0.0699
     57 H25        -4.6153   -2.9474   -2.4279 H         1 <0>         0.1022
     58 H26        -6.1643   -3.8167   -2.3142 H         1 <0>         0.0842
     59 H27        -5.3803   -3.5987   -3.8972 H         1 <0>         0.0958
@<TRIPOS>BOND
     1    1    2 1
     2    1   33 1
     3    1   34 1
     4    1   35 1
     5    2    3 1
     6    2   36 1
     7    2   37 1
     8    3    4 1
     9    4    5 1
    10    4   30 1
    11    4   38 1
    12    5    6 1
    13    5   39 1
    14    5   40 1
    15    6   11 ar
    16    6    7 ar
    17    7    8 ar
    18    7   41 1
    19    8    9 ar
    20    8   42 1
    21    9   14 1
    22    9   10 ar
    23   10   11 ar
    24   10   12 1
    25   11   43 1
    26   12   13 2
    27   12   44 1
    28   13   14 1
    29   13   45 1
    30   14   15 1
    31   15   16 1
    32   15   46 1
    33   15   47 1
    34   16   20 1
    35   16   17 2
    36   17   18 1
    37   17   29 1
    38   18   19 1
    39   19   20 2
    40   19   21 1
    41   21   26 ar
    42   21   22 ar
    43   22   23 ar
    44   22   48 1
    45   23   24 ar
    46   23   28 1
    47   24   25 ar
    48   24   49 1
    49   25   26 ar
    50   25   27 1
    51   26   50 1
    52   27   51 1
    53   27   52 1
    54   27   53 1
    55   28   54 1
    56   28   55 1
    57   28   56 1
    58   29   57 1
    59   29   58 1
    60   29   59 1
    61   30   31 2
    62   30   32 1
@<TRIPOS>MOLECULE
CHEMBL403637
   45    47     0     0     0
SMALL
USER_CHARGES

@<TRIPOS>ATOM
      1 C1         -0.0184    1.5028    0.0103 C.3       1 <0>        -0.0839
      2 C2          0.0021   -0.0041    0.0020 C.2       1 <0>         0.0581
      3 C3          0.0053   -0.6795   -1.1798 C.2       1 <0>        -0.2080
      4 S1          0.0319   -2.3690   -0.5936 S.3       1 <0>         0.0173
      5 C4          0.0359   -1.9926    1.1543 C.2       1 <0>         0.1569
      6 N1          0.0223   -0.6667    1.1327 N.2       1 <0>        -0.4949
      7 C5          0.0548   -2.9113    2.3111 C.ar      1 <0>        -0.0003
      8 C6          0.0482   -2.3982    3.6107 C.ar      1 <0>        -0.0777
      9 C7          0.0653   -3.2537    4.6883 C.ar      1 <0>        -0.0619
     10 C8          0.0895   -4.6358    4.4827 C.ar      1 <0>        -0.1089
     11 C9          0.0961   -5.1488    3.1828 C.ar      1 <0>        -0.0832
     12 C10         0.0736   -4.2932    2.1055 C.ar      1 <0>        -0.0965
     13 C11         0.1084   -5.5542    5.6392 C.2       1 <0>         0.5505
     14 O1          0.1030   -5.1079    6.7700 O.2       1 <0>        -0.5405
     15 N2          0.1317   -6.8871    5.4409 N.am      1 <0>        -0.7134
     16 C12         0.1505   -7.7981    6.5881 C.3       1 <0>         0.1794
     17 C13         0.1747   -9.2229    6.0977 C.ar      1 <0>        -0.2193
     18 C14        -1.0125   -9.8946    5.8706 C.ar      1 <0>        -0.0567
     19 C15        -0.9939  -11.2003    5.4212 C.ar      1 <0>        -0.1747
     20 C16         0.2192  -11.8389    5.1974 C.ar      1 <0>         0.2861
     21 C17         1.4100  -11.1613    5.4266 C.ar      1 <0>        -0.2596
     22 C18         1.3841   -9.8538    5.8706 C.ar      1 <0>        -0.0430
     23 N3          0.2417  -13.1596    4.7434 N.2       1 <0>        -1.0568
     24 S2          1.6889  -13.9192    4.4772 S.o2      1 <0>         2.5062
     25 O2          2.2947  -13.1856    3.4217 O.2       1 <0>        -0.9575
     26 O3          2.3029  -13.9882    5.7568 O.2       1 <0>        -0.9567
     27 C19         1.2443  -15.5828    3.9069 C.3       1 <0>        -0.0070
     28 F1          0.4869  -15.4871    2.7347 F         1 <0>        -0.1647
     29 F2          2.4088  -16.3149    3.6512 F         1 <0>        -0.1839
     30 F3          0.4945  -16.2297    4.8951 F         1 <0>        -0.1645
     31 H1          1.0042    1.8801    0.0026 H         1 <0>         0.0745
     32 H2         -0.5455    1.8639   -0.8728 H         1 <0>         0.0738
     33 H3         -0.5286    1.8543    0.9071 H         1 <0>         0.0752
     34 H4         -0.0057   -0.3004   -2.1910 H         1 <0>         0.1988
     35 H5          0.0299   -1.3301    3.7695 H         1 <0>         0.1416
     36 H6          0.0605   -2.8571    5.6928 H         1 <0>         0.1453
     37 H7          0.1147   -6.2169    3.0238 H         1 <0>         0.1394
     38 H8          0.0746   -4.6896    1.1009 H         1 <0>         0.1338
     39 H9          0.1360   -7.2432    4.5387 H         1 <0>         0.4019
     40 H10         1.0385   -7.6059    7.1902 H         1 <0>         0.0683
     41 H11        -0.7412   -7.6376    7.1942 H         1 <0>         0.0696
     42 H12        -1.9554   -9.3976    6.0451 H         1 <0>         0.1103
     43 H13        -1.9215  -11.7244    5.2443 H         1 <0>         0.1182
     44 H14         2.3548  -11.6550    5.2540 H         1 <0>         0.1016
     45 H15         2.3095   -9.3249    6.0448 H         1 <0>         0.1067
@<TRIPOS>BOND
     1    1    2 1
     2    1   31 1
     3    1   32 1
     4    1   33 1
     5    2    6 1
     6    2    3 2
     7    3    4 1
     8    3   34 1
     9    4    5 1
    10    5    6 2
    11    5    7 1
    12    7   12 ar
    13    7    8 ar
    14    8    9 ar
    15    8   35 1
    16    9   10 ar
    17    9   36 1
    18   10   11 ar
    19   10   13 1
    20   11   12 ar
    21   11   37 1
    22   12   38 1
    23   13   14 2
    24   13   15 am
    25   15   16 1
    26   15   39 1
    27   16   17 1
    28   16   40 1
    29   16   41 1
    30   17   22 ar
    31   17   18 ar
    32   18   19 ar
    33   18   42 1
    34   19   20 ar
    35   19   43 1
    36   20   21 ar
    37   20   23 1
    38   21   22 ar
    39   21   44 1
    40   22   45 1
    41   23   24 1
    42   24   25 2
    43   24   26 2
    44   24   27 1
    45   27   28 1
    46   27   29 1
    47   27   30 1
@<TRIPOS>MOLECULE
CHEMBL403637__1
   46    48     0     0     0
SMALL
USER_CHARGES

@<TRIPOS>ATOM
      1 C1         -0.2980    1.5739    0.2719 C.3       1 <0>        -0.0856
      2 C2         -0.2756    0.0675    0.2377 C.2       1 <0>         0.0576
      3 C3         -0.3344   -0.5885   -0.9535 C.2       1 <0>        -0.1990
      4 S1         -0.2737   -2.2873   -0.3975 S.3       1 <0>         0.0180
      5 C4         -0.1770   -1.9396    1.3537 C.2       1 <0>         0.1445
      6 N1         -0.1939   -0.6135    1.3547 N.2       1 <0>        -0.4886
      7 C5         -0.0948   -2.8769    2.4925 C.ar      1 <0>         0.0121
      8 C6         -0.0328   -2.3853    3.7989 C.ar      1 <0>        -0.0772
      9 C7          0.0433   -3.2582    4.8597 C.ar      1 <0>        -0.0566
     10 C8          0.0587   -4.6367    4.6305 C.ar      1 <0>        -0.1190
     11 C9         -0.0033   -5.1284    3.3238 C.ar      1 <0>        -0.0832
     12 C10        -0.0848   -4.2552    2.2634 C.ar      1 <0>        -0.0994
     13 C11         0.1409   -5.5738    5.7690 C.2       1 <0>         0.5595
     14 O1          0.1952   -5.1461    6.9057 O.2       1 <0>        -0.5277
     15 N2          0.1557   -6.9033    5.5479 N.am      1 <0>        -0.7235
     16 C12         0.2372   -7.8328    6.6772 C.3       1 <0>         0.1596
     17 C13         0.2375   -9.2494    6.1629 C.ar      1 <0>        -0.1060
     18 C14        -0.9591   -9.9202    5.9884 C.ar      1 <0>        -0.0820
     19 C15        -0.9624  -11.2184    5.5172 C.ar      1 <0>        -0.1149
     20 C16         0.2381  -11.8502    5.2185 C.ar      1 <0>         0.1211
     21 C17         1.4383  -11.1734    5.3949 C.ar      1 <0>        -0.1393
     22 C18         1.4341   -9.8734    5.8611 C.ar      1 <0>        -0.0752
     23 N3          0.2384  -13.1632    4.7422 N.pl3     1 <0>        -1.0224
     24 S2          1.1730  -13.5704    3.4372 S.o2      1 <0>         2.6038
     25 O2          2.4856  -13.1532    3.7869 O.2       1 <0>        -0.8656
     26 O3          0.8878  -14.9423    3.2009 O.2       1 <0>        -0.8753
     27 C19         0.5374  -12.5563    2.0740 C.3       1 <0>        -0.0370
     28 F1          0.7737  -11.2050    2.3486 F         1 <0>        -0.1559
     29 F2          1.1865  -12.9114    0.8867 F         1 <0>        -0.1579
     30 F3         -0.8381  -12.7704    1.9356 F         1 <0>        -0.1578
     31 H1          0.7221    1.9539    0.2158 H         1 <0>         0.0762
     32 H2         -0.8722    1.9481   -0.5757 H         1 <0>         0.0757
     33 H3         -0.7601    1.9095    1.2003 H         1 <0>         0.0763
     34 H4         -0.4000   -0.1929   -1.9563 H         1 <0>         0.2012
     35 H5         -0.0443   -1.3199    3.9760 H         1 <0>         0.1449
     36 H6          0.0915   -2.8781    5.8695 H         1 <0>         0.1470
     37 H7          0.0085   -6.1936    3.1465 H         1 <0>         0.1343
     38 H8         -0.1368   -4.6352    1.2538 H         1 <0>         0.1344
     39 H9          0.1123   -7.2446    4.6409 H         1 <0>         0.4024
     40 H10         1.1558   -7.6483    7.2341 H         1 <0>         0.0841
     41 H11        -0.6210   -7.6845    7.3326 H         1 <0>         0.0835
     42 H12        -1.8920   -9.4285    6.2212 H         1 <0>         0.1361
     43 H13        -1.8972  -11.7419    5.3815 H         1 <0>         0.1374
     44 H14         2.3734  -11.6619    5.1640 H         1 <0>         0.1595
     45 H15         2.3666   -9.3451    5.9943 H         1 <0>         0.1386
     46 H16        -0.3088  -13.8366    5.1759 H         1 <0>         0.4412
@<TRIPOS>BOND
     1    1    2 1
     2    1   31 1
     3    1   32 1
     4    1   33 1
     5    2    6 1
     6    2    3 2
     7    3    4 1
     8    3   34 1
     9    4    5 1
    10    5    6 2
    11    5    7 1
    12    7   12 ar
    13    7    8 ar
    14    8    9 ar
    15    8   35 1
    16    9   10 ar
    17    9   36 1
    18   10   11 ar
    19   10   13 1
    20   11   12 ar
    21   11   37 1
    22   12   38 1
    23   13   14 2
    24   13   15 am
    25   15   16 1
    26   15   39 1
    27   16   17 1
    28   16   40 1
    29   16   41 1
    30   17   22 ar
    31   17   18 ar
    32   18   19 ar
    33   18   42 1
    34   19   20 ar
    35   19   43 1
    36   20   21 ar
    37   20   23 1
    38   21   22 ar
    39   21   44 1
    40   22   45 1
    41   23   24 1
    42   23   46 1
    43   24   25 2
    44   24   26 2
    45   24   27 1
    46   27   28 1
    47   27   29 1
    48   27   30 1
@<TRIPOS>MOLECULE
CHEMBL396696
   68    72     0     0     0
SMALL
USER_CHARGES

@<TRIPOS>ATOM
      1 C1          0.2131    0.9183   -0.2563 C.3       1 <0>        -0.0724
      2 C2          0.3923   -0.5437   -0.5751 C.2       1 <0>        -0.0317
      3 C3         -0.5834   -1.4655   -0.6673 C.2       1 <0>        -0.0119
      4 N1         -0.0110   -2.6413   -0.9666 N.2       1 <0>        -0.4617
      5 C4          1.2859   -2.4649   -1.0599 C.2       1 <0>         0.2375
      6 O1          1.5591   -1.1695   -0.8266 O.3       1 <0>        -0.1916
      7 C5          2.2792   -3.5134   -1.3750 C.ar      1 <0>        -0.0234
      8 C6          1.8635   -4.8250   -1.6094 C.ar      1 <0>        -0.0698
      9 C7          2.7956   -5.7987   -1.9035 C.ar      1 <0>        -0.1203
     10 C8          4.1398   -5.4773   -1.9663 C.ar      1 <0>        -0.0975
     11 C9          4.5586   -4.1792   -1.7345 C.ar      1 <0>        -0.1205
     12 C10         3.6363   -3.1949   -1.4452 C.ar      1 <0>        -0.0893
     13 C11        -2.0571   -1.2208   -0.4691 C.3       1 <0>        -0.0337
     14 C12        -2.6968   -0.8482   -1.8081 C.3       1 <0>         0.0646
     15 O2         -4.0943   -0.6161   -1.6202 O.3       1 <0>        -0.3065
     16 C13        -4.8160   -0.2726   -2.7193 C.ar      1 <0>         0.1616
     17 C14        -4.1930   -0.1669   -3.9544 C.ar      1 <0>        -0.2082
     18 C15        -4.9289    0.1820   -5.0702 C.ar      1 <0>        -0.0496
     19 C16        -6.2851    0.4260   -4.9568 C.ar      1 <0>        -0.1864
     20 C17        -6.9083    0.3217   -3.7270 C.ar      1 <0>        -0.0525
     21 C18        -6.1780   -0.0328   -2.6092 C.ar      1 <0>        -0.1480
     22 C19        -7.0854    0.8069   -6.1757 C.3       1 <0>         0.0404
     23 N2         -7.6068   -0.4070   -6.8181 N.4       1 <0>        -0.3563
     24 C20        -8.2848   -0.0457   -8.0701 C.3       1 <0>         0.0394
     25 C21        -7.2785    0.5118   -9.0436 C.ar      1 <0>        -0.1399
     26 C22        -7.1098    1.8918   -9.1416 C.ar      1 <0>        -0.1102
     27 C23        -6.2101    2.4278  -10.0106 C.ar      1 <0>        -0.0986
     28 C24        -5.4375    1.5800  -10.8227 C.ar      1 <0>        -0.0395
     29 C25        -4.4981    2.0964  -11.7314 C.ar      1 <0>        -0.1130
     30 C26        -3.7675    1.2448  -12.5014 C.ar      1 <0>        -0.1025
     31 C27        -3.9360   -0.1353  -12.4033 C.ar      1 <0>        -0.1138
     32 C28        -4.8361   -0.6712  -11.5345 C.ar      1 <0>        -0.0983
     33 C29        -5.6088    0.1767  -10.7228 C.ar      1 <0>        -0.0577
     34 C30        -6.5442   -0.3400   -9.8100 C.ar      1 <0>        -0.0609
     35 C31        -8.5612   -1.0665   -5.9170 C.3       1 <0>        -0.0896
     36 C32        -8.9727   -2.3920   -6.5041 C.2       1 <0>         0.4889
     37 O3         -8.4311   -2.8054   -7.5152 O.co2     1 <0>        -0.6744
     38 O4         -9.8473   -3.0510   -5.9681 O.co2     1 <0>        -0.6406
     39 H1          1.1848    1.4121   -0.2570 H         1 <0>         0.0824
     40 H2         -0.4287    1.3780   -1.0078 H         1 <0>         0.0896
     41 H3         -0.2464    1.0221    0.7267 H         1 <0>         0.0938
     42 H4          0.8145   -5.0771   -1.5603 H         1 <0>         0.1384
     43 H5          2.4752   -6.8140   -2.0847 H         1 <0>         0.1340
     44 H6          4.8655   -6.2433   -2.1969 H         1 <0>         0.1302
     45 H7          5.6095   -3.9351   -1.7844 H         1 <0>         0.1321
     46 H8          3.9640   -2.1810   -1.2692 H         1 <0>         0.1302
     47 H9         -2.5266   -2.1248   -0.0812 H         1 <0>         0.0975
     48 H10        -2.1979   -0.4052    0.2402 H         1 <0>         0.0947
     49 H11        -2.2274    0.0558   -2.1960 H         1 <0>         0.0660
     50 H12        -2.5561   -1.6637   -2.5174 H         1 <0>         0.0713
     51 H13        -3.1336   -0.3567   -4.0433 H         1 <0>         0.1351
     52 H14        -4.4444    0.2644   -6.0319 H         1 <0>         0.1311
     53 H15        -7.9677    0.5132   -3.6409 H         1 <0>         0.1391
     54 H16        -6.6660   -0.1185   -1.6496 H         1 <0>         0.1422
     55 H17        -7.9166    1.4467   -5.8793 H         1 <0>         0.1271
     56 H18        -6.4462    1.3432   -6.8770 H         1 <0>         0.1282
     57 H19        -8.7526   -0.9320   -8.4988 H         1 <0>         0.1559
     58 H20        -9.0480    0.7054   -7.8664 H         1 <0>         0.1219
     59 H21        -7.7022    2.5456   -8.5187 H         1 <0>         0.1283
     60 H22        -6.0906    3.4992  -10.0762 H         1 <0>         0.1333
     61 H23        -4.3571    3.1636  -11.8186 H         1 <0>         0.1303
     62 H24        -3.0465    1.6443  -13.1993 H         1 <0>         0.1272
     63 H25        -3.3436   -0.7891  -13.0262 H         1 <0>         0.1281
     64 H26        -4.9561   -1.7426  -11.4695 H         1 <0>         0.1335
     65 H27        -6.6823   -1.4074   -9.7200 H         1 <0>         0.1447
     66 H28        -8.0921   -1.2289   -4.9466 H         1 <0>         0.1265
     67 H29        -9.4409   -0.4348   -5.7941 H         1 <0>         0.1224
     68 H30        -6.8435   -1.0359   -7.0183 H         1 <0>         0.4227
@<TRIPOS>BOND
     1    1    2 1
     2    1   39 1
     3    1   40 1
     4    1   41 1
     5    2    6 1
     6    2    3 2
     7    3    4 1
     8    3   13 1
     9    4    5 2
    10    5    6 1
    11    5    7 1
    12    7   12 ar
    13    7    8 ar
    14    8    9 ar
    15    8   42 1
    16    9   10 ar
    17    9   43 1
    18   10   11 ar
    19   10   44 1
    20   11   12 ar
    21   11   45 1
    22   12   46 1
    23   13   14 1
    24   13   47 1
    25   13   48 1
    26   14   15 1
    27   14   49 1
    28   14   50 1
    29   15   16 1
    30   16   21 ar
    31   16   17 ar
    32   17   18 ar
    33   17   51 1
    34   18   19 ar
    35   18   52 1
    36   19   20 ar
    37   19   22 1
    38   20   21 ar
    39   20   53 1
    40   21   54 1
    41   22   23 1
    42   22   55 1
    43   22   56 1
    44   23   24 1
    45   23   35 1
    46   23   68 1
    47   24   25 1
    48   24   57 1
    49   24   58 1
    50   25   34 ar
    51   25   26 ar
    52   26   27 ar
    53   26   59 1
    54   27   28 ar
    55   27   60 1
    56   28   33 ar
    57   28   29 ar
    58   29   30 ar
    59   29   61 1
    60   30   31 ar
    61   30   62 1
    62   31   32 ar
    63   31   63 1
    64   32   33 ar
    65   32   64 1
    66   33   34 ar
    67   34   65 1
    68   35   36 1
    69   35   66 1
    70   35   67 1
    71   36   37 2
    72   36   38 1
@<TRIPOS>MOLECULE
CHEMBL247926
   68    72     0     0     0
SMALL
USER_CHARGES

@<TRIPOS>ATOM
      1 C1         -0.0571    0.4841    0.4028 C.3       1 <0>        -0.0724
      2 C2          0.2384   -0.8678   -0.1939 C.2       1 <0>        -0.0316
      3 C3         -0.6639   -1.8138   -0.5120 C.2       1 <0>        -0.0120
      4 N1          0.0020   -2.8644   -1.0147 N.2       1 <0>        -0.4617
      5 C4          1.2847   -2.5879   -1.0131 C.2       1 <0>         0.2375
      6 O1          1.4550   -1.3516   -0.5134 O.3       1 <0>        -0.1916
      7 C5          2.3613   -3.4832   -1.4871 C.ar      1 <0>        -0.0233
      8 C6          2.0501   -4.7444   -1.9975 C.ar      1 <0>        -0.0698
      9 C7          3.0595   -5.5749   -2.4387 C.ar      1 <0>        -0.1203
     10 C8          4.3779   -5.1600   -2.3761 C.ar      1 <0>        -0.0975
     11 C9          4.6932   -3.9111   -1.8709 C.ar      1 <0>        -0.1205
     12 C10         3.6928   -3.0687   -1.4317 C.ar      1 <0>        -0.0893
     13 C11        -2.1569   -1.7117   -0.3346 C.3       1 <0>        -0.0337
     14 C12        -2.7813   -1.1182   -1.5990 C.3       1 <0>         0.0645
     15 O2         -4.1971   -1.0213   -1.4308 O.3       1 <0>        -0.3063
     16 C13        -4.9083   -0.5103   -2.4700 C.ar      1 <0>         0.1618
     17 C14        -4.2577   -0.1156   -3.6299 C.ar      1 <0>        -0.2079
     18 C15        -4.9830    0.4031   -4.6850 C.ar      1 <0>        -0.0494
     19 C16        -6.3562    0.5295   -4.5855 C.ar      1 <0>        -0.1865
     20 C17        -7.0070    0.1373   -3.4304 C.ar      1 <0>        -0.0524
     21 C18        -6.2870   -0.3877   -2.3748 C.ar      1 <0>        -0.1479
     22 C19        -7.1449    1.0961   -5.7379 C.3       1 <0>         0.0401
     23 N2         -7.5562    0.0062   -6.6327 N.4       1 <0>        -0.3582
     24 C20        -8.2206    0.5685   -7.8161 C.3       1 <0>         0.0366
     25 C21        -7.2491    1.4376   -8.5722 C.ar      1 <0>        -0.1298
     26 C22        -7.3160    2.7929   -8.4641 C.ar      1 <0>        -0.0828
     27 C23        -6.4265    3.6126   -9.1555 C.ar      1 <0>        -0.1288
     28 C24        -5.4648    3.0819   -9.9597 C.ar      1 <0>        -0.0765
     29 C25        -5.3648    1.6872  -10.0963 C.ar      1 <0>        -0.0553
     30 C26        -6.2658    0.8531   -9.3880 C.ar      1 <0>        -0.0376
     31 C27        -6.1618   -0.5423   -9.5203 C.ar      1 <0>        -0.1371
     32 C28        -5.1966   -1.0729  -10.3196 C.ar      1 <0>        -0.0967
     33 C29        -4.3065   -0.2529  -11.0110 C.ar      1 <0>        -0.1094
     34 C30        -4.3854    1.1026  -10.9177 C.ar      1 <0>        -0.1080
     35 C31        -8.4866   -0.8836   -5.9252 C.3       1 <0>        -0.0914
     36 C32        -8.7853   -2.0845   -6.7852 C.2       1 <0>         0.4909
     37 O3         -8.1880   -2.2456   -7.8359 O.co2     1 <0>        -0.6731
     38 O4         -9.6243   -2.8949   -6.4304 O.co2     1 <0>        -0.6370
     39 H1          0.8754    1.0306    0.5441 H         1 <0>         0.0824
     40 H2         -0.7078    1.0436   -0.2693 H         1 <0>         0.0896
     41 H3         -0.5526    0.3561    1.3652 H         1 <0>         0.0938
     42 H4          1.0214   -5.0696   -2.0466 H         1 <0>         0.1384
     43 H5          2.8201   -6.5512   -2.8335 H         1 <0>         0.1340
     44 H6          5.1644   -5.8139   -2.7227 H         1 <0>         0.1302
     45 H7          5.7244   -3.5935   -1.8240 H         1 <0>         0.1321
     46 H8          3.9399   -2.0922   -1.0420 H         1 <0>         0.1302
     47 H9         -2.5705   -2.7044   -0.1567 H         1 <0>         0.0975
     48 H10        -2.3785   -1.0679    0.5166 H         1 <0>         0.0948
     49 H11        -2.3678   -0.1255   -1.7769 H         1 <0>         0.0660
     50 H12        -2.5598   -1.7619   -2.4502 H         1 <0>         0.0713
     51 H13        -3.1849   -0.2135   -3.7079 H         1 <0>         0.1353
     52 H14        -4.4769    0.7105   -5.5882 H         1 <0>         0.1308
     53 H15        -8.0797    0.2374   -3.3550 H         1 <0>         0.1393
     54 H16        -6.7963   -0.6980   -1.4744 H         1 <0>         0.1425
     55 H17        -8.0294    1.6066   -5.3567 H         1 <0>         0.1281
     56 H18        -6.5258    1.8043   -6.2886 H         1 <0>         0.1278
     57 H19        -8.5613   -0.2417   -8.4608 H         1 <0>         0.1583
     58 H20        -9.0758    1.1672   -7.5025 H         1 <0>         0.1247
     59 H21        -8.0702    3.2395   -7.8331 H         1 <0>         0.1296
     60 H22        -6.5012    4.6850   -9.0522 H         1 <0>         0.1305
     61 H23        -4.7825    3.7296  -10.4901 H         1 <0>         0.1322
     62 H24        -6.8442   -1.1902   -8.9901 H         1 <0>         0.1656
     63 H25        -5.1190   -2.1454  -10.4194 H         1 <0>         0.1297
     64 H26        -3.5495   -0.6996  -11.6385 H         1 <0>         0.1267
     65 H27        -3.6894    1.7255  -11.4599 H         1 <0>         0.1297
     66 H28        -8.0352   -1.2107   -4.9886 H         1 <0>         0.1275
     67 H29        -9.4124   -0.3481   -5.7148 H         1 <0>         0.1237
     68 H30        -6.7432   -0.5176   -6.9206 H         1 <0>         0.4221
@<TRIPOS>BOND
     1    1    2 1
     2    1   39 1
     3    1   40 1
     4    1   41 1
     5    2    6 1
     6    2    3 2
     7    3    4 1
     8    3   13 1
     9    4    5 2
    10    5    6 1
    11    5    7 1
    12    7   12 ar
    13    7    8 ar
    14    8    9 ar
    15    8   42 1
    16    9   10 ar
    17    9   43 1
    18   10   11 ar
    19   10   44 1
    20   11   12 ar
    21   11   45 1
    22   12   46 1
    23   13   14 1
    24   13   47 1
    25   13   48 1
    26   14   15 1
    27   14   49 1
    28   14   50 1
    29   15   16 1
    30   16   21 ar
    31   16   17 ar
    32   17   18 ar
    33   17   51 1
    34   18   19 ar
    35   18   52 1
    36   19   20 ar
    37   19   22 1
    38   20   21 ar
    39   20   53 1
    40   21   54 1
    41   22   23 1
    42   22   55 1
    43   22   56 1
    44   23   24 1
    45   23   35 1
    46   23   68 1
    47   24   25 1
    48   24   57 1
    49   24   58 1
    50   25   30 ar
    51   25   26 ar
    52   26   27 ar
    53   26   59 1
    54   27   28 ar
    55   27   60 1
    56   28   29 ar
    57   28   61 1
    58   29   34 ar
    59   29   30 ar
    60   30   31 ar
    61   31   32 ar
    62   31   62 1
    63   32   33 ar
    64   32   63 1
    65   33   34 ar
    66   33   64 1
    67   34   65 1
    68   35   36 1
    69   35   66 1
    70   35   67 1
    71   36   37 2
    72   36   38 1
@<TRIPOS>MOLECULE
CHEMBL552240
   60    63     0     0     0
SMALL
USER_CHARGES

@<TRIPOS>ATOM
      1 C1         -1.9069   -2.2407   -1.4617 C.3       1 <0>        -0.1475
      2 C2         -2.1583   -0.7391   -1.3098 C.3       1 <0>        -0.1030
      3 C3         -1.5042    0.0079   -2.4739 C.3       1 <0>         0.0153
      4 H1         -1.8671   -0.4003   -3.4172 H         1 <0>         0.0631
      5 C4         -1.8545    1.4713   -2.3919 C.2       1 <0>         0.4796
      6 O1         -0.9803    2.2970   -2.1908 O.co2     1 <0>        -0.6745
      7 O2         -3.0121    1.8295   -2.5265 O.co2     1 <0>        -0.6878
      8 O3         -0.0855   -0.1471   -2.4022 O.3       1 <0>        -0.2909
      9 C5          0.6086   -0.0198   -3.5637 C.ar      1 <0>         0.1696
     10 C6          1.9732   -0.2695   -3.5887 C.ar      1 <0>        -0.1552
     11 C7          2.6762   -0.1399   -4.7706 C.ar      1 <0>        -0.0842
     12 C8          2.0211    0.2383   -5.9282 C.ar      1 <0>        -0.1580
     13 C9          0.6616    0.4881   -5.9058 C.ar      1 <0>        -0.0824
     14 C10        -0.0472    0.3544   -4.7273 C.ar      1 <0>        -0.1773
     15 C11        -0.0490    0.9006   -7.1691 C.3       1 <0>         0.1429
     16 N1         -0.5278   -0.2923   -7.8718 N.pl3     1 <0>        -0.4522
     17 C12         0.1824   -0.9812   -8.7968 C.2       1 <0>         0.1473
     18 C13        -0.5548   -2.0368   -9.2525 C.2       1 <0>        -0.2559
     19 C14        -1.8427   -1.9873   -8.5344 C.ar      1 <0>        -0.0831
     20 C15        -1.7639   -0.8758   -7.6800 C.ar      1 <0>         0.1336
     21 C16        -2.8422   -0.5687   -6.8579 C.ar      1 <0>        -0.1236
     22 C17        -3.9769   -1.3586   -6.8859 C.ar      1 <0>         0.1235
     23 C18        -4.0496   -2.4610   -7.7318 C.ar      1 <0>        -0.2022
     24 C19        -2.9922   -2.7726   -8.5578 C.ar      1 <0>        -0.0382
     25 O4         -5.0293   -1.0559   -6.0805 O.3       1 <0>        -0.3013
     26 C20        -6.1717   -1.9110   -6.1568 C.3       1 <0>         0.6045
     27 F1         -5.8008   -3.2162   -5.8161 F         1 <0>        -0.1658
     28 F2         -7.1533   -1.4583   -5.2687 F         1 <0>        -0.1296
     29 F3         -6.6794   -1.8957   -7.4604 F         1 <0>        -0.1673
     30 C21        -0.1467   -3.0247  -10.2580 C.2       1 <0>         0.4861
     31 O5         -0.3000   -2.7872  -11.4417 O.2       1 <0>        -0.4416
     32 C22         0.4506   -4.3084   -9.8331 C.ar      1 <0>        -0.1564
     33 C23         0.7240   -4.5418   -8.4838 C.ar      1 <0>        -0.0443
     34 C24         1.2808   -5.7413   -8.0935 C.ar      1 <0>        -0.1234
     35 C25         1.5689   -6.7139   -9.0369 C.ar      1 <0>        -0.0060
     36 C26         1.3000   -6.4882  -10.3769 C.ar      1 <0>        -0.1263
     37 C27         0.7384   -5.2947  -10.7788 C.ar      1 <0>        -0.0511
     38 Cl1         2.2704   -8.2214   -8.5379 Cl        1 <0>        -0.0648
     39 C28         1.5758   -0.6349   -9.2545 C.3       1 <0>        -0.1054
     40 H2         -2.3350   -2.5874   -2.4023 H         1 <0>         0.0482
     41 H3         -0.8337   -2.4315   -1.4587 H         1 <0>         0.0549
     42 H4         -2.3728   -2.7728   -0.6324 H         1 <0>         0.0512
     43 H5         -3.2314   -0.5483   -1.3127 H         1 <0>         0.0845
     44 H6         -1.7302   -0.3924   -0.3692 H         1 <0>         0.0666
     45 H7          2.4853   -0.5646   -2.6848 H         1 <0>         0.1266
     46 H8          3.7385   -0.3338   -4.7905 H         1 <0>         0.1244
     47 H9          2.5726    0.3391   -6.8513 H         1 <0>         0.1167
     48 H10        -1.1100    0.5453   -4.7113 H         1 <0>         0.1270
     49 H11        -0.8961    1.5388   -6.9176 H         1 <0>         0.1030
     50 H12         0.6405    1.4485   -7.8114 H         1 <0>         0.1042
     51 H13        -2.7935    0.2850   -6.1983 H         1 <0>         0.1411
     52 H14        -4.9407   -3.0711   -7.7451 H         1 <0>         0.1354
     53 H15        -3.0500   -3.6296   -9.2126 H         1 <0>         0.1306
     54 H16         0.5001   -3.7841   -7.7474 H         1 <0>         0.1432
     55 H17         1.4930   -5.9228   -7.0502 H         1 <0>         0.1402
     56 H18         1.5268   -7.2502  -11.1078 H         1 <0>         0.1390
     57 H19         0.5254   -5.1215  -11.8233 H         1 <0>         0.1430
     58 H20         2.3031   -1.1446   -8.6226 H         1 <0>         0.0890
     59 H21         1.7078   -0.9520  -10.2890 H         1 <0>         0.0855
     60 H22         1.7244    0.4426   -9.1831 H         1 <0>         0.0794
@<TRIPOS>BOND
     1    1    2 1
     2    1   40 1
     3    1   41 1
     4    1   42 1
     5    2    3 1
     6    2   43 1
     7    2   44 1
     8    3    4 1
     9    3    5 1
    10    3    8 1
    11    5    6 2
    12    5    7 1
    13    8    9 1
    14    9   14 ar
    15    9   10 ar
    16   10   11 ar
    17   10   45 1
    18   11   12 ar
    19   11   46 1
    20   12   13 ar
    21   12   47 1
    22   13   14 ar
    23   13   15 1
    24   14   48 1
    25   15   16 1
    26   15   49 1
    27   15   50 1
    28   16   20 1
    29   16   17 1
    30   17   18 2
    31   17   39 1
    32   18   19 1
    33   18   30 1
    34   19   24 ar
    35   19   20 ar
    36   20   21 ar
    37   21   22 ar
    38   21   51 1
    39   22   23 ar
    40   22   25 1
    41   23   24 ar
    42   23   52 1
    43   24   53 1
    44   25   26 1
    45   26   27 1
    46   26   28 1
    47   26   29 1
    48   30   31 2
    49   30   32 1
    50   32   37 ar
    51   32   33 ar
    52   33   34 ar
    53   33   54 1
    54   34   35 ar
    55   34   55 1
    56   35   36 ar
    57   35   38 1
    58   36   37 ar
    59   36   56 1
    60   37   57 1
    61   39   58 1
    62   39   59 1
    63   39   60 1
@<TRIPOS>MOLECULE
CHEMBL461533
   63    65     0     0     0
SMALL
USER_CHARGES

@<TRIPOS>ATOM
      1 C1          1.0975    1.6268    0.0214 C.3       1 <0>        -0.0963
      2 C2          0.8345    0.1429    0.0266 C.ar      1 <0>        -0.1423
      3 C3          0.7570   -0.5498   -1.1663 C.ar      1 <0>        -0.0731
      4 C4          0.5152   -1.9109   -1.1622 C.ar      1 <0>        -0.1704
      5 C5          0.3507   -2.5827    0.0352 C.ar      1 <0>        -0.0780
      6 C6          0.4276   -1.8949    1.2305 C.ar      1 <0>        -0.1559
      7 C7          0.6755   -0.5296    1.2293 C.ar      1 <0>         0.1828
      8 O1          0.7572    0.1484    2.4043 O.3       1 <0>        -0.2976
      9 C8          0.7093   -0.6256    3.6046 C.3       1 <0>         0.0290
     10 C9          1.8632   -1.6302    3.6100 C.3       1 <0>        -0.1733
     11 C10         0.8349    0.3020    4.8149 C.3       1 <0>        -0.1152
     12 C11        -0.6016   -1.3659    3.6730 C.2       1 <0>         0.4816
     13 O2         -1.4190   -1.2421    2.7769 O.co2     1 <0>        -0.6689
     14 O3         -0.8447   -2.0885    4.6244 O.co2     1 <0>        -0.6848
     15 C12         0.4303   -2.6637   -2.4650 C.3       1 <0>         0.1761
     16 N1          1.7618   -3.1490   -2.8362 N.am      1 <0>        -0.7033
     17 C13         1.9294   -3.8540   -3.9726 C.2       1 <0>         0.5892
     18 O4          0.9941   -4.0121   -4.7338 O.2       1 <0>        -0.5437
     19 C14         3.2446   -4.4325   -4.2925 C.2       1 <0>        -0.0315
     20 C15         4.3705   -4.4205   -3.4917 C.2       1 <0>        -0.1725
     21 C16         5.3602   -5.0920   -4.2325 C.2       1 <0>         0.0622
     22 N2          4.8212   -5.4569   -5.3766 N.2       1 <0>        -0.2655
     23 N3          3.5912   -5.0928   -5.4378 N.pl3     1 <0>        -0.2522
     24 C17         2.6944   -5.3439   -6.5687 C.3       1 <0>         0.0811
     25 C18         6.7587   -5.3427   -3.8023 C.ar      1 <0>        -0.0076
     26 C19         7.1962   -4.9020   -2.5553 C.ar      1 <0>        -0.0966
     27 C20         8.4974   -5.1381   -2.1601 C.ar      1 <0>        -0.1154
     28 C21         9.3666   -5.8107   -2.9999 C.ar      1 <0>        -0.0743
     29 C22         8.9376   -6.2500   -4.2393 C.ar      1 <0>        -0.1156
     30 C23         7.6367   -6.0246   -4.6419 C.ar      1 <0>        -0.0937
     31 C24        10.7863   -6.0652   -2.5633 C.3       1 <0>        -0.0581
     32 C25        11.0483   -7.5723   -2.5336 C.3       1 <0>        -0.1448
     33 C26        11.7498   -5.3993   -3.5477 C.3       1 <0>        -0.1446
     34 H1          2.1723    1.8053    0.0536 H         1 <0>         0.0589
     35 H2          0.6833    2.0660   -0.8861 H         1 <0>         0.0571
     36 H3          0.6273    2.0822    0.8929 H         1 <0>         0.0676
     37 H4          0.8852   -0.0273   -2.1029 H         1 <0>         0.1190
     38 H5          0.1615   -3.6460    0.0358 H         1 <0>         0.1156
     39 H6          0.2990   -2.4200    2.1655 H         1 <0>         0.1414
     40 H7          2.8040   -1.1021    3.7651 H         1 <0>         0.0510
     41 H8          1.7141   -2.3505    4.4144 H         1 <0>         0.0754
     42 H9          1.8936   -2.1538    2.6545 H         1 <0>         0.0671
     43 H10         0.0627    1.0698    4.7659 H         1 <0>         0.0570
     44 H11         0.7141   -0.2770    5.7304 H         1 <0>         0.0786
     45 H12         1.8174    0.7740    4.8104 H         1 <0>         0.0507
     46 H13        -0.2465   -3.5106   -2.3517 H         1 <0>         0.0755
     47 H14         0.0550   -2.0003   -3.2442 H         1 <0>         0.0757
     48 H15         2.5228   -2.9629   -2.2642 H         1 <0>         0.4054
     49 H16         4.4696   -3.9879   -2.5071 H         1 <0>         0.1635
     50 H17         2.7938   -4.5390   -7.2970 H         1 <0>         0.0847
     51 H18         2.9572   -6.2924   -7.0372 H         1 <0>         0.0928
     52 H19         1.6648   -5.3873   -6.2134 H         1 <0>         0.1170
     53 H20         6.5185   -4.3761   -1.8991 H         1 <0>         0.1273
     54 H21         8.8375   -4.7969   -1.1935 H         1 <0>         0.1251
     55 H22         9.6204   -6.7744   -4.8914 H         1 <0>         0.1219
     56 H23         7.3013   -6.3723   -5.6078 H         1 <0>         0.1269
     57 H24        10.9400   -5.6500   -1.5672 H         1 <0>         0.0780
     58 H25        10.8946   -7.9875   -3.5296 H         1 <0>         0.0564
     59 H26        12.0752   -7.7564   -2.2178 H         1 <0>         0.0571
     60 H27        10.3619   -8.0467   -1.8323 H         1 <0>         0.0566
     61 H28        11.5961   -5.8145   -4.5437 H         1 <0>         0.0564
     62 H29        11.5632   -4.3256   -3.5688 H         1 <0>         0.0564
     63 H30        12.7767   -5.5834   -3.2318 H         1 <0>         0.0570
@<TRIPOS>BOND
     1    1    2 1
     2    1   34 1
     3    1   35 1
     4    1   36 1
     5    2    7 ar
     6    2    3 ar
     7    3    4 ar
     8    3   37 1
     9    4    5 ar
    10    4   15 1
    11    5    6 ar
    12    5   38 1
    13    6    7 ar
    14    6   39 1
    15    7    8 1
    16    8    9 1
    17    9   10 1
    18    9   11 1
    19    9   12 1
    20   10   40 1
    21   10   41 1
    22   10   42 1
    23   11   43 1
    24   11   44 1
    25   11   45 1
    26   12   13 2
    27   12   14 1
    28   15   16 1
    29   15   46 1
    30   15   47 1
    31   16   17 am
    32   16   48 1
    33   17   18 2
    34   17   19 1
    35   19   23 1
    36   19   20 2
    37   20   21 1
    38   20   49 1
    39   21   22 2
    40   21   25 1
    41   22   23 1
    42   23   24 1
    43   24   50 1
    44   24   51 1
    45   24   52 1
    46   25   30 ar
    47   25   26 ar
    48   26   27 ar
    49   26   53 1
    50   27   28 ar
    51   27   54 1
    52   28   29 ar
    53   28   31 1
    54   29   30 ar
    55   29   55 1
    56   30   56 1
    57   31   32 1
    58   31   33 1
    59   31   57 1
    60   32   58 1
    61   32   59 1
    62   32   60 1
    63   33   61 1
    64   33   62 1
    65   33   63 1
@<TRIPOS>MOLECULE
CHEMBL394968
   69    72     0     0     0
SMALL
USER_CHARGES

@<TRIPOS>ATOM
      1 C1          0.0434    1.5558    0.0438 C.3       1 <0>        -0.0723
      2 C2          0.2692    0.0829   -0.1809 C.2       1 <0>        -0.0319
      3 C3         -0.6803   -0.8674   -0.2560 C.2       1 <0>        -0.0117
      4 N1         -0.0692   -2.0436   -0.4629 N.2       1 <0>        -0.4616
      5 C4          1.2260   -1.8398   -0.5163 C.2       1 <0>         0.2376
      6 O1          1.4594   -0.5265   -0.3497 O.3       1 <0>        -0.1916
      7 C5          2.2553   -2.8791   -0.7303 C.ar      1 <0>        -0.0234
      8 C6          1.8799   -4.2123   -0.9026 C.ar      1 <0>        -0.0697
      9 C7          2.8454   -5.1773   -1.1024 C.ar      1 <0>        -0.1203
     10 C8          4.1833   -4.8259   -1.1321 C.ar      1 <0>        -0.0975
     11 C9          4.5621   -3.5062   -0.9615 C.ar      1 <0>        -0.1205
     12 C10         3.6063   -2.5306   -0.7666 C.ar      1 <0>        -0.0893
     13 C11        -2.1661   -0.6493   -0.1298 C.3       1 <0>        -0.0339
     14 C12        -2.7601   -0.3717   -1.5121 C.3       1 <0>         0.0646
     15 O2         -4.1690   -0.1649   -1.3924 O.3       1 <0>        -0.3064
     16 C13        -4.8538    0.0955   -2.5370 C.ar      1 <0>         0.1620
     17 C14        -4.1845    0.1452   -3.7512 C.ar      1 <0>        -0.2083
     18 C15        -4.8830    0.4096   -4.9133 C.ar      1 <0>        -0.0487
     19 C16        -6.2480    0.6251   -4.8670 C.ar      1 <0>        -0.1875
     20 C17        -6.9173    0.5766   -3.6581 C.ar      1 <0>        -0.0520
     21 C18        -6.2243    0.3064   -2.4940 C.ar      1 <0>        -0.1483
     22 C19        -7.0074    0.9138   -6.1363 C.3       1 <0>         0.0397
     23 N2         -7.4742   -0.3483   -6.7255 N.4       1 <0>        -0.3574
     24 C20        -8.1098   -0.0779   -8.0220 C.3       1 <0>        -0.0046
     25 C21        -7.0590    0.4376   -9.0074 C.3       1 <0>         0.0359
     26 O3         -6.0979   -0.5894   -9.2595 O.3       1 <0>        -0.3750
     27 C22        -5.1314   -0.2491  -10.2556 C.3       1 <0>         0.1068
     28 C23        -4.2488   -1.4402  -10.5267 C.ar      1 <0>        -0.0985
     29 C24        -3.1490   -1.6821   -9.7250 C.ar      1 <0>        -0.0976
     30 C25        -2.3393   -2.7746   -9.9737 C.ar      1 <0>        -0.1234
     31 C26        -2.6298   -3.6254  -11.0237 C.ar      1 <0>        -0.1086
     32 C27        -3.7302   -3.3840  -11.8248 C.ar      1 <0>        -0.1207
     33 C28        -4.5423   -2.2939  -11.5735 C.ar      1 <0>        -0.0943
     34 C29        -8.4484   -0.9785   -5.8245 C.3       1 <0>        -0.0895
     35 C30        -8.8034   -2.3469   -6.3465 C.2       1 <0>         0.4856
     36 O4         -8.2119   -2.8044   -7.3095 O.co2     1 <0>        -0.6645
     37 O5         -9.6820   -2.9966   -5.8057 O.co2     1 <0>        -0.6445
     38 H1          1.0027    2.0735    0.0514 H         1 <0>         0.0824
     39 H2         -0.5782    1.9546   -0.7578 H         1 <0>         0.0895
     40 H3         -0.4574    1.7049    1.0004 H         1 <0>         0.0937
     41 H4          0.8359   -4.4879   -0.8793 H         1 <0>         0.1385
     42 H5          2.5563   -6.2093   -1.2355 H         1 <0>         0.1340
     43 H6          4.9352   -5.5851   -1.2887 H         1 <0>         0.1302
     44 H7          5.6082   -3.2386   -0.9850 H         1 <0>         0.1321
     45 H8          3.9030   -1.5001   -0.6384 H         1 <0>         0.1302
     46 H9         -2.6296   -1.5409    0.2925 H         1 <0>         0.0975
     47 H10        -2.3541    0.2022    0.5242 H         1 <0>         0.0947
     48 H11        -2.2966    0.5200   -1.9344 H         1 <0>         0.0660
     49 H12        -2.5721   -1.2232   -2.1661 H         1 <0>         0.0714
     50 H13        -3.1182   -0.0224   -3.7877 H         1 <0>         0.1352
     51 H14        -4.3624    0.4483   -5.8587 H         1 <0>         0.1315
     52 H15        -7.9835    0.7456   -3.6246 H         1 <0>         0.1390
     53 H16        -6.7483    0.2643   -1.5505 H         1 <0>         0.1423
     54 H17        -7.8644    1.5483   -5.9105 H         1 <0>         0.1275
     55 H18        -6.3532    1.4246   -6.8429 H         1 <0>         0.1255
     56 H19        -8.5510   -0.9965   -8.4089 H         1 <0>         0.1574
     57 H20        -8.8887    0.6739   -7.8950 H         1 <0>         0.1287
     58 H21        -7.5444    0.7185   -9.9421 H         1 <0>         0.0893
     59 H22        -6.5582    1.3075   -8.5824 H         1 <0>         0.0646
     60 H23        -5.6425    0.0408  -11.1736 H         1 <0>         0.0645
     61 H24        -4.5216    0.5819   -9.9012 H         1 <0>         0.0611
     62 H25        -2.9220   -1.0174   -8.9046 H         1 <0>         0.1196
     63 H26        -1.4796   -2.9632   -9.3478 H         1 <0>         0.1237
     64 H27        -1.9969   -4.4786  -11.2184 H         1 <0>         0.1243
     65 H28        -3.9570   -4.0485  -12.6454 H         1 <0>         0.1258
     66 H29        -5.4041   -2.1074  -12.1971 H         1 <0>         0.1237
     67 H30        -8.0155   -1.0706   -4.8284 H         1 <0>         0.1251
     68 H31        -9.3474   -0.3642   -5.7745 H         1 <0>         0.1206
     69 H32        -6.6891   -0.9681   -6.8585 H         1 <0>         0.4315
@<TRIPOS>BOND
     1    1    2 1
     2    1   38 1
     3    1   39 1
     4    1   40 1
     5    2    6 1
     6    2    3 2
     7    3    4 1
     8    3   13 1
     9    4    5 2
    10    5    6 1
    11    5    7 1
    12    7   12 ar
    13    7    8 ar
    14    8    9 ar
    15    8   41 1
    16    9   10 ar
    17    9   42 1
    18   10   11 ar
    19   10   43 1
    20   11   12 ar
    21   11   44 1
    22   12   45 1
    23   13   14 1
    24   13   46 1
    25   13   47 1
    26   14   15 1
    27   14   48 1
    28   14   49 1
    29   15   16 1
    30   16   21 ar
    31   16   17 ar
    32   17   18 ar
    33   17   50 1
    34   18   19 ar
    35   18   51 1
    36   19   20 ar
    37   19   22 1
    38   20   21 ar
    39   20   52 1
    40   21   53 1
    41   22   23 1
    42   22   54 1
    43   22   55 1
    44   23   24 1
    45   23   34 1
    46   23   69 1
    47   24   25 1
    48   24   56 1
    49   24   57 1
    50   25   26 1
    51   25   58 1
    52   25   59 1
    53   26   27 1
    54   27   28 1
    55   27   60 1
    56   27   61 1
    57   28   33 ar
    58   28   29 ar
    59   29   30 ar
    60   29   62 1
    61   30   31 ar
    62   30   63 1
    63   31   32 ar
    64   31   64 1
    65   32   33 ar
    66   32   65 1
    67   33   66 1
    68   34   35 1
    69   34   67 1
    70   34   68 1
    71   35   36 2
    72   35   37 1
@<TRIPOS>MOLECULE
CHEMBL395191
   73    77     0     0     0
SMALL
USER_CHARGES

@<TRIPOS>ATOM
      1 C1          1.2395    1.5465   -0.7416 C.3       1 <0>        -0.0723
      2 C2          1.2910    0.0413   -0.7935 C.2       1 <0>        -0.0318
      3 C3          0.2594   -0.7995   -0.5961 C.2       1 <0>        -0.0120
      4 N1          0.7195   -2.0528   -0.7283 N.2       1 <0>        -0.4617
      5 C4          2.0021   -2.0022   -1.0007 C.2       1 <0>         0.2378
      6 O1          2.3779   -0.7126   -1.0519 O.3       1 <0>        -0.1915
      7 C5          2.8844   -3.1678   -1.2206 C.ar      1 <0>        -0.0234
      8 C6          2.3664   -4.4619   -1.1511 C.ar      1 <0>        -0.0697
      9 C7          3.1952   -5.5453   -1.3578 C.ar      1 <0>        -0.1203
     10 C8          4.5370   -5.3511   -1.6334 C.ar      1 <0>        -0.0974
     11 C9          5.0569   -4.0709   -1.7033 C.ar      1 <0>        -0.1205
     12 C10         4.2378   -2.9787   -1.5043 C.ar      1 <0>        -0.0892
     13 C11        -1.1604   -0.4039   -0.2820 C.3       1 <0>        -0.0337
     14 C12        -1.9422   -0.2313   -1.5858 C.3       1 <0>         0.0644
     15 O2         -3.2885    0.1439   -1.2879 O.3       1 <0>        -0.3063
     16 C13        -4.1226    0.3383   -2.3430 C.ar      1 <0>         0.1623
     17 C14        -3.6565    0.1659   -3.6382 C.ar      1 <0>        -0.2080
     18 C15        -4.5066    0.3637   -4.7090 C.ar      1 <0>        -0.0494
     19 C16        -5.8208    0.7337   -4.4908 C.ar      1 <0>        -0.1876
     20 C17        -6.2877    0.9066   -3.2009 C.ar      1 <0>        -0.0522
     21 C18        -5.4433    0.7040   -2.1265 C.ar      1 <0>        -0.1480
     22 C19        -6.7458    0.9493   -5.6608 C.3       1 <0>         0.0397
     23 N2         -7.4145   -0.3151   -5.9958 N.4       1 <0>        -0.3570
     24 C20        -8.2239   -0.1347   -7.2084 C.3       1 <0>         0.0389
     25 C21        -7.3189    0.1560   -8.3778 C.ar      1 <0>        -0.1235
     26 C22        -7.0871    1.4636   -8.7637 C.ar      1 <0>        -0.1017
     27 C23        -6.2571    1.7338   -9.8357 C.ar      1 <0>        -0.1021
     28 C24        -5.6571    0.6974  -10.5247 C.ar      1 <0>        -0.1018
     29 C25        -5.8879   -0.6153  -10.1397 C.ar      1 <0>         0.0925
     30 C26        -6.7171   -0.8835   -9.0596 C.ar      1 <0>        -0.1053
     31 O3         -5.2992   -1.6365  -10.8157 O.3       1 <0>        -0.2583
     32 C27        -6.0636   -2.3536  -11.6805 C.ar      1 <0>         0.1165
     33 C28        -7.3795   -1.9825  -11.9172 C.ar      1 <0>        -0.1925
     34 C29        -8.1544   -2.7133  -12.7967 C.ar      1 <0>        -0.0808
     35 C30        -7.6201   -3.8140  -13.4406 C.ar      1 <0>        -0.1479
     36 C31        -6.3092   -4.1863  -13.2062 C.ar      1 <0>        -0.0815
     37 C32        -5.5279   -3.4550  -12.3327 C.ar      1 <0>        -0.1423
     38 C33        -8.2837   -0.7193   -4.8826 C.3       1 <0>        -0.0895
     39 C34        -8.8460   -2.0903   -5.1566 C.2       1 <0>         0.4883
     40 O4         -8.4737   -2.7179   -6.1333 O.co2     1 <0>        -0.6734
     41 O5         -9.6732   -2.5720   -4.4015 O.co2     1 <0>        -0.6397
     42 H1          2.2304    1.9514   -0.9473 H         1 <0>         0.0825
     43 H2          0.5353    1.9119   -1.4891 H         1 <0>         0.0895
     44 H3          0.9154    1.8651    0.2491 H         1 <0>         0.0937
     45 H4          1.3192   -4.6149   -0.9357 H         1 <0>         0.1384
     46 H5          2.7957   -6.5473   -1.3040 H         1 <0>         0.1340
     47 H6          5.1815   -6.2026   -1.7945 H         1 <0>         0.1303
     48 H7          6.1054   -3.9261   -1.9181 H         1 <0>         0.1321
     49 H8          4.6439   -1.9797   -1.5638 H         1 <0>         0.1302
     50 H9         -1.6288   -1.1807    0.3224 H         1 <0>         0.0975
     51 H10        -1.1620    0.5362    0.2698 H         1 <0>         0.0947
     52 H11        -1.4738    0.5455   -2.1902 H         1 <0>         0.0662
     53 H12        -1.9406   -1.1713   -2.1375 H         1 <0>         0.0715
     54 H13        -2.6299   -0.1224   -3.8093 H         1 <0>         0.1355
     55 H14        -4.1442    0.2296   -5.7176 H         1 <0>         0.1313
     56 H15        -7.3146    1.1960   -3.0330 H         1 <0>         0.1391
     57 H16        -5.8096    0.8349   -1.1190 H         1 <0>         0.1424
     58 H17        -7.4938    1.6978   -5.3995 H         1 <0>         0.1282
     59 H18        -6.1707    1.2948   -6.5198 H         1 <0>         0.1274
     60 H19        -8.7911   -1.0444   -7.4053 H         1 <0>         0.1587
     61 H20        -8.9118    0.6987   -7.0654 H         1 <0>         0.1252
     62 H21        -7.5557    2.2752   -8.2268 H         1 <0>         0.1357
     63 H22        -6.0777    2.7559  -10.1351 H         1 <0>         0.1401
     64 H23        -5.0093    0.9089  -11.3626 H         1 <0>         0.1390
     65 H24        -6.8951   -1.9043   -8.7552 H         1 <0>         0.1477
     66 H25        -7.7975   -1.1232  -11.4139 H         1 <0>         0.1260
     67 H26        -9.1787   -2.4248  -12.9813 H         1 <0>         0.1275
     68 H27        -8.2278   -4.3842  -14.1276 H         1 <0>         0.1273
     69 H28        -5.8943   -5.0467  -13.7102 H         1 <0>         0.1331
     70 H29        -4.5027   -3.7434  -12.1536 H         1 <0>         0.1331
     71 H30        -7.7047   -0.7419   -3.9593 H         1 <0>         0.1274
     72 H31        -9.1008   -0.0050   -4.7817 H         1 <0>         0.1231
     73 H32        -6.7210   -1.0298   -6.1576 H         1 <0>         0.4235
@<TRIPOS>BOND
     1    1    2 1
     2    1   42 1
     3    1   43 1
     4    1   44 1
     5    2    6 1
     6    2    3 2
     7    3    4 1
     8    3   13 1
     9    4    5 2
    10    5    6 1
    11    5    7 1
    12    7   12 ar
    13    7    8 ar
    14    8    9 ar
    15    8   45 1
    16    9   10 ar
    17    9   46 1
    18   10   11 ar
    19   10   47 1
    20   11   12 ar
    21   11   48 1
    22   12   49 1
    23   13   14 1
    24   13   50 1
    25   13   51 1
    26   14   15 1
    27   14   52 1
    28   14   53 1
    29   15   16 1
    30   16   21 ar
    31   16   17 ar
    32   17   18 ar
    33   17   54 1
    34   18   19 ar
    35   18   55 1
    36   19   20 ar
    37   19   22 1
    38   20   21 ar
    39   20   56 1
    40   21   57 1
    41   22   23 1
    42   22   58 1
    43   22   59 1
    44   23   24 1
    45   23   38 1
    46   23   73 1
    47   24   25 1
    48   24   60 1
    49   24   61 1
    50   25   30 ar
    51   25   26 ar
    52   26   27 ar
    53   26   62 1
    54   27   28 ar
    55   27   63 1
    56   28   29 ar
    57   28   64 1
    58   29   30 ar
    59   29   31 1
    60   30   65 1
    61   31   32 1
    62   32   37 ar
    63   32   33 ar
    64   33   34 ar
    65   33   66 1
    66   34   35 ar
    67   34   67 1
    68   35   36 ar
    69   35   68 1
    70   36   37 ar
    71   36   69 1
    72   37   70 1
    73   38   39 1
    74   38   71 1
    75   38   72 1
    76   39   40 2
    77   39   41 1
@<TRIPOS>MOLECULE
CHEMBL394948
   76    80     0     0     0
SMALL
USER_CHARGES

@<TRIPOS>ATOM
      1 C1          0.2470    0.9318   -0.3212 C.3       1 <0>        -0.0724
      2 C2          0.4185   -0.5335   -0.6285 C.2       1 <0>        -0.0316
      3 C3         -0.5615   -1.4520   -0.7082 C.2       1 <0>        -0.0119
      4 N1          0.0046   -2.6327   -1.0002 N.2       1 <0>        -0.4616
      5 C4          1.3018   -2.4626   -1.1012 C.2       1 <0>         0.2374
      6 O1          1.5815   -1.1664   -0.8802 O.3       1 <0>        -0.1916
      7 C5          2.2891   -3.5179   -1.4120 C.ar      1 <0>        -0.0233
      8 C6          1.8668   -4.8296   -1.6333 C.ar      1 <0>        -0.0698
      9 C7          2.7934   -5.8097   -1.9235 C.ar      1 <0>        -0.1203
     10 C8          4.1387   -5.4946   -1.9953 C.ar      1 <0>        -0.0975
     11 C9          4.5640   -4.1964   -1.7766 C.ar      1 <0>        -0.1205
     12 C10         3.6472   -3.2058   -1.4913 C.ar      1 <0>        -0.0893
     13 C11        -2.0332   -1.1993   -0.5052 C.3       1 <0>        -0.0338
     14 C12        -2.6777   -0.8353   -1.8443 C.3       1 <0>         0.0647
     15 O2         -4.0733   -0.5958   -1.6517 O.3       1 <0>        -0.3065
     16 C13        -4.7987   -0.2586   -2.7503 C.ar      1 <0>         0.1613
     17 C14        -4.1812   -0.1659   -3.9892 C.ar      1 <0>        -0.2083
     18 C15        -4.9209    0.1765   -5.1045 C.ar      1 <0>        -0.0498
     19 C16        -6.2755    0.4273   -4.9868 C.ar      1 <0>        -0.1860
     20 C17        -6.8932    0.3361   -3.7531 C.ar      1 <0>        -0.0525
     21 C18        -6.1591   -0.0121   -2.6359 C.ar      1 <0>        -0.1480
     22 C19        -7.0799    0.8012   -6.2050 C.3       1 <0>         0.0401
     23 N2         -7.6094   -0.4158   -6.8346 N.4       1 <0>        -0.3566
     24 C20        -8.2919   -0.0623   -8.0865 C.3       1 <0>         0.0451
     25 C21        -7.2878    0.4821   -9.0696 C.ar      1 <0>        -0.1812
     26 C22        -7.1068    1.8479   -9.1863 C.ar      1 <0>        -0.0593
     27 C23        -6.1873    2.3495  -10.0870 C.ar      1 <0>        -0.1536
     28 C24        -5.4450    1.4816  -10.8746 C.ar      1 <0>         0.1551
     29 C25        -5.6282    0.1116  -10.7553 C.ar      1 <0>        -0.2098
     30 C26        -6.5452   -0.3852   -9.8494 C.ar      1 <0>        -0.0447
     31 O3         -4.5402    1.9726  -11.7618 O.3       1 <0>        -0.3045
     32 C27        -3.8116    1.0205  -12.5394 C.3       1 <0>         0.1006
     33 C28        -2.8629    1.7443  -13.4598 C.ar      1 <0>        -0.1020
     34 C29        -3.2782    2.1209  -14.7234 C.ar      1 <0>        -0.0941
     35 C30        -2.4079    2.7849  -15.5677 C.ar      1 <0>        -0.1222
     36 C31        -1.1226    3.0726  -15.1482 C.ar      1 <0>        -0.1065
     37 C32        -0.7076    2.6968  -13.8843 C.ar      1 <0>        -0.1228
     38 C33        -1.5792    2.0366  -13.0385 C.ar      1 <0>        -0.0949
     39 C34        -8.5624   -1.0637   -5.9235 C.3       1 <0>        -0.0893
     40 C35        -8.9822   -2.3923   -6.4974 C.2       1 <0>         0.4889
     41 O4         -8.4470   -2.8167   -7.5073 O.co2     1 <0>        -0.6745
     42 O5         -9.8571   -3.0430   -5.9517 O.co2     1 <0>        -0.6412
     43 H1          1.2208    1.4215   -0.3308 H         1 <0>         0.0824
     44 H2         -0.3964    1.3879   -1.0736 H         1 <0>         0.0897
     45 H3         -0.2074    1.0459    0.6629 H         1 <0>         0.0938
     46 H4          0.8170   -5.0769   -1.5771 H         1 <0>         0.1385
     47 H5          2.4679   -6.8252   -2.0945 H         1 <0>         0.1340
     48 H6          4.8600   -6.2656   -2.2228 H         1 <0>         0.1302
     49 H7          5.6156   -3.9571   -1.8335 H         1 <0>         0.1321
     50 H8          3.9800   -2.1918   -1.3255 H         1 <0>         0.1302
     51 H9         -2.5047   -2.0980   -0.1074 H         1 <0>         0.0975
     52 H10        -2.1671   -0.3772    0.1979 H         1 <0>         0.0947
     53 H11        -2.2063    0.0633   -2.2420 H         1 <0>         0.0660
     54 H12        -2.5438   -1.6575   -2.5473 H         1 <0>         0.0712
     55 H13        -3.1230   -0.3610   -4.0815 H         1 <0>         0.1349
     56 H14        -4.4406    0.2488   -6.0691 H         1 <0>         0.1310
     57 H15        -7.9514    0.5328   -3.6637 H         1 <0>         0.1391
     58 H16        -6.6429   -0.0875   -1.6732 H         1 <0>         0.1421
     59 H17        -7.9070    1.4470   -5.9101 H         1 <0>         0.1269
     60 H18        -6.4418    1.3289   -6.9139 H         1 <0>         0.1279
     61 H19        -8.7658   -0.9501   -8.5052 H         1 <0>         0.1547
     62 H20        -9.0507    0.6940   -7.8856 H         1 <0>         0.1203
     63 H21        -7.6849    2.5231   -8.5729 H         1 <0>         0.1354
     64 H22        -6.0468    3.4164  -10.1783 H         1 <0>         0.1377
     65 H23        -5.0515   -0.5661  -11.3674 H         1 <0>         0.1360
     66 H24        -6.6850   -1.4517   -9.7530 H         1 <0>         0.1428
     67 H25        -3.2460    0.3662  -11.8761 H         1 <0>         0.0748
     68 H26        -4.5077    0.4251  -13.1303 H         1 <0>         0.0759
     69 H27        -4.2824    1.8961  -15.0511 H         1 <0>         0.1249
     70 H28        -2.7322    3.0785  -16.5551 H         1 <0>         0.1271
     71 H29        -0.4425    3.5907  -15.8081 H         1 <0>         0.1260
     72 H30         0.2967    2.9213  -13.5567 H         1 <0>         0.1265
     73 H31        -1.2562    1.7463  -12.0496 H         1 <0>         0.1237
     74 H32        -8.0893   -1.2198   -4.9540 H         1 <0>         0.1259
     75 H33        -9.4388   -0.4272   -5.8018 H         1 <0>         0.1222
     76 H34        -6.8498   -1.0496   -7.0331 H         1 <0>         0.4225
@<TRIPOS>BOND
     1    1    2 1
     2    1   43 1
     3    1   44 1
     4    1   45 1
     5    2    6 1
     6    2    3 2
     7    3    4 1
     8    3   13 1
     9    4    5 2
    10    5    6 1
    11    5    7 1
    12    7   12 ar
    13    7    8 ar
    14    8    9 ar
    15    8   46 1
    16    9   10 ar
    17    9   47 1
    18   10   11 ar
    19   10   48 1
    20   11   12 ar
    21   11   49 1
    22   12   50 1
    23   13   14 1
    24   13   51 1
    25   13   52 1
    26   14   15 1
    27   14   53 1
    28   14   54 1
    29   15   16 1
    30   16   21 ar
    31   16   17 ar
    32   17   18 ar
    33   17   55 1
    34   18   19 ar
    35   18   56 1
    36   19   20 ar
    37   19   22 1
    38   20   21 ar
    39   20   57 1
    40   21   58 1
    41   22   23 1
    42   22   59 1
    43   22   60 1
    44   23   24 1
    45   23   39 1
    46   23   76 1
    47   24   25 1
    48   24   61 1
    49   24   62 1
    50   25   30 ar
    51   25   26 ar
    52   26   27 ar
    53   26   63 1
    54   27   28 ar
    55   27   64 1
    56   28   29 ar
    57   28   31 1
    58   29   30 ar
    59   29   65 1
    60   30   66 1
    61   31   32 1
    62   32   33 1
    63   32   67 1
    64   32   68 1
    65   33   38 ar
    66   33   34 ar
    67   34   35 ar
    68   34   69 1
    69   35   36 ar
    70   35   70 1
    71   36   37 ar
    72   36   71 1
    73   37   38 ar
    74   37   72 1
    75   38   73 1
    76   39   40 1
    77   39   74 1
    78   39   75 1
    79   40   41 2
    80   40   42 1
@<TRIPOS>MOLECULE
CHEMBL257345
   74    77     0     0     0
SMALL
USER_CHARGES

@<TRIPOS>ATOM
      1 C1         -0.5022    1.0056    0.4951 C.3       1 <0>        -0.0716
      2 C2         -0.3652   -0.4842    0.3145 C.2       1 <0>        -0.0329
      3 C3         -1.3711   -1.3666    0.1737 C.2       1 <0>        -0.0067
      4 N1         -0.8311   -2.5873    0.0390 N.2       1 <0>        -0.4585
      5 C4          0.4753   -2.4765    0.0934 C.2       1 <0>         0.2298
      6 O1          0.7880   -1.1796    0.2581 O.3       1 <0>        -0.1932
      7 C5          1.4412   -3.5903   -0.0148 C.ar      1 <0>        -0.0173
      8 C6          0.9865   -4.8972   -0.1970 C.ar      1 <0>        -0.0701
      9 C7          1.8933   -5.9321   -0.2976 C.ar      1 <0>        -0.1203
     10 C8          3.2507   -5.6767   -0.2184 C.ar      1 <0>        -0.1011
     11 C9          3.7081   -4.3835   -0.0374 C.ar      1 <0>        -0.1215
     12 C10         2.8121   -3.3389    0.0591 C.ar      1 <0>        -0.0906
     13 C11        -2.8426   -1.0416    0.1687 C.3       1 <0>        -0.0330
     14 C12        -3.2964   -0.7536   -1.2638 C.3       1 <0>         0.0672
     15 O2         -4.6918   -0.4454   -1.2685 O.3       1 <0>        -0.3176
     16 C13        -5.2572   -0.1629   -2.4716 C.ar      1 <0>         0.1147
     17 C14        -4.4861   -0.1877   -3.6246 C.ar      1 <0>        -0.2040
     18 C15        -5.0633    0.0994   -4.8465 C.ar      1 <0>        -0.0673
     19 C16        -6.4082    0.4115   -4.9207 C.ar      1 <0>        -0.1012
     20 C17        -7.1787    0.4373   -3.7730 C.ar      1 <0>        -0.0824
     21 C18        -6.6076    0.1450   -2.5495 C.ar      1 <0>        -0.1528
     22 C19        -7.0351    0.7247   -6.2549 C.3       1 <0>        -0.0730
     23 C20        -7.5615   -0.5656   -6.8865 C.3       1 <0>        -0.0633
     24 C21        -8.1884   -0.2524   -8.2206 C.2       1 <0>        -0.1705
     25 C22        -7.4469   -0.3726   -9.3040 C.2       1 <0>        -0.1304
     26 C23        -7.9282   -0.0796  -10.6941 C.3       1 <0>        -0.0885
     27 C24        -9.4582   -0.0884  -10.7422 C.3       1 <0>         0.1137
     28 N2         -9.9539    0.6845   -9.5904 N.am      1 <0>        -0.5886
     29 C25        -9.6295    0.1754   -8.2490 C.3       1 <0>         0.1796
     30 C26       -10.6776    1.8087   -9.7603 C.2       1 <0>         0.6540
     31 O3        -11.0745    2.4277   -8.7930 O.2       1 <0>        -0.5788
     32 O4        -10.9606    2.2460  -11.0018 O.3       1 <0>        -0.3622
     33 C27       -11.7318    3.4443  -11.1075 C.3       1 <0>         0.0890
     34 C28       -11.9507    3.7814  -12.5838 C.3       1 <0>        -0.0951
     35 C29       -12.8793    4.9920  -12.6983 C.3       1 <0>        -0.1448
     36 C30       -10.6061    4.1064  -13.2375 C.3       1 <0>        -0.1483
     37 C31        -6.0602   -0.8218   -9.1392 C.2       1 <0>         0.5253
     38 O5         -5.7962   -2.0164   -9.1701 O.co2     1 <0>        -0.6918
     39 O6         -5.1673   -0.0021   -8.9708 O.co2     1 <0>        -0.6884
     40 H1          0.4878    1.4544    0.5764 H         1 <0>         0.0804
     41 H2         -1.0238    1.4292   -0.3632 H         1 <0>         0.0925
     42 H3         -1.0699    1.2109    1.4027 H         1 <0>         0.0925
     43 H4         -0.0729   -5.0980   -0.2587 H         1 <0>         0.1393
     44 H5          1.5427   -6.9439   -0.4383 H         1 <0>         0.1329
     45 H6          3.9564   -6.4903   -0.2978 H         1 <0>         0.1283
     46 H7          4.7690   -4.1909    0.0244 H         1 <0>         0.1304
     47 H8          3.1705   -2.3292    0.1955 H         1 <0>         0.1299
     48 H9         -3.4031   -1.8887    0.5641 H         1 <0>         0.0941
     49 H10        -3.0231   -0.1645    0.7903 H         1 <0>         0.0919
     50 H11        -2.7359    0.0935   -1.6592 H         1 <0>         0.0609
     51 H12        -3.1160   -1.6307   -1.8853 H         1 <0>         0.0663
     52 H13        -3.4354   -0.4307   -3.5670 H         1 <0>         0.1222
     53 H14        -4.4634    0.0803   -5.7443 H         1 <0>         0.1327
     54 H15        -8.2290    0.6818   -3.8336 H         1 <0>         0.1266
     55 H16        -7.2109    0.1609   -1.6539 H         1 <0>         0.1255
     56 H17        -7.8602    1.4230   -6.1137 H         1 <0>         0.0624
     57 H18        -6.2886    1.1723   -6.9110 H         1 <0>         0.0854
     58 H19        -6.7364   -1.2638   -7.0277 H         1 <0>         0.0837
     59 H20        -8.3080   -1.0131   -6.2304 H         1 <0>         0.0564
     60 H21        -7.5635    0.9001  -11.0029 H         1 <0>         0.0754
     61 H22        -7.5417   -0.8366  -11.3765 H         1 <0>         0.0832
     62 H23        -9.8004    0.3715  -11.6693 H         1 <0>         0.0905
     63 H24        -9.8229   -1.1138  -10.6823 H         1 <0>         0.0752
     64 H25       -10.2673   -0.6770   -8.0149 H         1 <0>         0.0734
     65 H26        -9.7899    0.9642   -7.5140 H         1 <0>         0.0942
     66 H27       -12.6964    3.2997  -10.6210 H         1 <0>         0.0649
     67 H28       -11.1995    4.2629  -10.6230 H         1 <0>         0.0663
     68 H29       -12.4030    2.9276  -13.0882 H         1 <0>         0.0808
     69 H30       -12.4270    5.8458  -12.1938 H         1 <0>         0.0585
     70 H31       -13.0353    5.2321  -13.7500 H         1 <0>         0.0638
     71 H32       -13.8372    4.7605  -12.2325 H         1 <0>         0.0575
     72 H33       -10.1538    4.9603  -12.7331 H         1 <0>         0.0547
     73 H34        -9.9446    3.2440  -13.1560 H         1 <0>         0.0639
     74 H35       -10.7621    4.3465  -14.2893 H         1 <0>         0.0559
@<TRIPOS>BOND
     1    1    2 1
     2    1   40 1
     3    1   41 1
     4    1   42 1
     5    2    6 1
     6    2    3 2
     7    3    4 1
     8    3   13 1
     9    4    5 2
    10    5    6 1
    11    5    7 1
    12    7   12 ar
    13    7    8 ar
    14    8    9 ar
    15    8   43 1
    16    9   10 ar
    17    9   44 1
    18   10   11 ar
    19   10   45 1
    20   11   12 ar
    21   11   46 1
    22   12   47 1
    23   13   14 1
    24   13   48 1
    25   13   49 1
    26   14   15 1
    27   14   50 1
    28   14   51 1
    29   15   16 1
    30   16   21 ar
    31   16   17 ar
    32   17   18 ar
    33   17   52 1
    34   18   19 ar
    35   18   53 1
    36   19   20 ar
    37   19   22 1
    38   20   21 ar
    39   20   54 1
    40   21   55 1
    41   22   23 1
    42   22   56 1
    43   22   57 1
    44   23   24 1
    45   23   58 1
    46   23   59 1
    47   24   29 1
    48   24   25 2
    49   25   26 1
    50   25   37 1
    51   26   27 1
    52   26   60 1
    53   26   61 1
    54   27   28 1
    55   27   62 1
    56   27   63 1
    57   28   29 1
    58   28   30 am
    59   29   64 1
    60   29   65 1
    61   30   31 2
    62   30   32 1
    63   32   33 1
    64   33   34 1
    65   33   66 1
    66   33   67 1
    67   34   35 1
    68   34   36 1
    69   34   68 1
    70   35   69 1
    71   35   70 1
    72   35   71 1
    73   36   72 1
    74   36   73 1
    75   36   74 1
    76   37   38 2
    77   37   39 1
@<TRIPOS>MOLECULE
CHEMBL199526
   50    53     0     0     0
SMALL
USER_CHARGES

@<TRIPOS>ATOM
      1 C1         -0.0187    1.5258    0.0104 C.3       1 <0>        -0.1444
      2 C2          0.0021   -0.0041    0.0020 C.3       1 <0>        -0.1046
      3 C3          0.7182   -0.4975   -1.2568 C.3       1 <0>        -0.1400
      4 C4          0.6303   -2.0233   -1.3286 C.3       1 <0>        -0.0281
      5 C5          1.2865   -2.5369   -2.6277 C.3       1 <0>        -0.1161
      6 C6          0.0900   -2.6006   -3.6006 C.3       1 <0>        -0.0790
      7 C7         -1.1263   -2.7946   -2.7206 C.ar      1 <0>        -0.0566
      8 C8         -0.8159   -2.4626   -1.4144 C.ar      1 <0>        -0.0997
      9 C9         -1.7820   -2.5639   -0.4272 C.ar      1 <0>        -0.0675
     10 C10        -3.0552   -2.9957   -0.7407 C.ar      1 <0>        -0.2091
     11 C11        -3.3689   -3.3293   -2.0500 C.ar      1 <0>         0.1148
     12 C12        -2.4017   -3.2273   -3.0380 C.ar      1 <0>        -0.1360
     13 O1         -4.6207   -3.7556   -2.3634 O.3       1 <0>        -0.3107
     14 C13        -5.5651   -3.8366   -1.2940 C.3       1 <0>         0.1344
     15 C14        -6.8875   -4.3242   -1.8275 C.2       1 <0>         0.1111
     16 C15        -7.1626   -4.6571   -3.1619 C.2       1 <0>        -0.2482
     17 C16        -8.4627   -5.0520   -3.2370 C.2       1 <0>         0.1130
     18 O2         -8.9872   -4.9717   -1.9998 O.3       1 <0>        -0.0696
     19 N1         -7.9705   -4.5144   -1.1267 N.2       1 <0>        -0.3089
     20 C17        -9.1717   -5.4905   -4.4580 C.ar      1 <0>        -0.0431
     21 C18        -8.5011   -5.5316   -5.6813 C.ar      1 <0>        -0.0809
     22 C19        -9.1685   -5.9417   -6.8169 C.ar      1 <0>        -0.1199
     23 C20       -10.4997   -6.3118   -6.7450 C.ar      1 <0>        -0.0996
     24 C21       -11.1703   -6.2734   -5.5354 C.ar      1 <0>        -0.1219
     25 C22       -10.5129   -5.8707   -4.3913 C.ar      1 <0>        -0.0861
     26 C23         2.1652   -0.0794   -1.2080 C.2       1 <0>         0.5044
     27 O3          2.8790   -0.4588   -0.2952 O.co2     1 <0>        -0.6981
     28 O4          2.6222    0.6383   -2.0813 O.co2     1 <0>        -0.7025
     29 H1          1.0039    1.9031    0.0027 H         1 <0>         0.0581
     30 H2         -0.5459    1.8868   -0.8726 H         1 <0>         0.0452
     31 H3         -0.5289    1.8773    0.9072 H         1 <0>         0.0411
     32 H4          0.5293   -0.3651    0.8851 H         1 <0>         0.0615
     33 H5         -1.0205   -0.3814    0.0098 H         1 <0>         0.0490
     34 H6          0.2444   -0.0644   -2.1377 H         1 <0>         0.0584
     35 H7          1.1105   -2.4705   -0.4582 H         1 <0>         0.0812
     36 H8          2.0396   -1.8347   -2.9852 H         1 <0>         0.0878
     37 H9          1.7178   -3.5268   -2.4787 H         1 <0>         0.0653
     38 H10         0.0074   -1.6688   -4.1600 H         1 <0>         0.0833
     39 H11         0.2017   -3.4435   -4.2827 H         1 <0>         0.0717
     40 H12        -1.5382   -2.3042    0.5923 H         1 <0>         0.1248
     41 H13        -3.8056   -3.0740    0.0321 H         1 <0>         0.1250
     42 H14        -2.6442   -3.4866   -4.0580 H         1 <0>         0.1253
     43 H15        -5.1996   -4.5318   -0.5383 H         1 <0>         0.0944
     44 H16        -5.6946   -2.8504   -0.8481 H         1 <0>         0.0947
     45 H17        -6.4653   -4.6086   -3.9851 H         1 <0>         0.1675
     46 H18        -7.4620   -5.2426   -5.7388 H         1 <0>         0.1341
     47 H19        -8.6508   -5.9736   -7.7642 H         1 <0>         0.1329
     48 H20       -11.0177   -6.6317   -7.6370 H         1 <0>         0.1285
     49 H21       -12.2095   -6.5632   -5.4860 H         1 <0>         0.1306
     50 H22       -11.0362   -5.8454   -3.4469 H         1 <0>         0.1327
@<TRIPOS>BOND
     1    1    2 1
     2    1   29 1
     3    1   30 1
     4    1   31 1
     5    2    3 1
     6    2   32 1
     7    2   33 1
     8    3    4 1
     9    3   26 1
    10    3   34 1
    11    4    8 1
    12    4    5 1
    13    4   35 1
    14    5    6 1
    15    5   36 1
    16    5   37 1
    17    6    7 1
    18    6   38 1
    19    6   39 1
    20    7   12 ar
    21    7    8 ar
    22    8    9 ar
    23    9   10 ar
    24    9   40 1
    25   10   11 ar
    26   10   41 1
    27   11   12 ar
    28   11   13 1
    29   12   42 1
    30   13   14 1
    31   14   15 1
    32   14   43 1
    33   14   44 1
    34   15   19 2
    35   15   16 1
    36   16   17 2
    37   16   45 1
    38   17   18 1
    39   17   20 1
    40   18   19 1
    41   20   25 ar
    42   20   21 ar
    43   21   22 ar
    44   21   46 1
    45   22   23 ar
    46   22   47 1
    47   23   24 ar
    48   23   48 1
    49   24   25 ar
    50   24   49 1
    51   25   50 1
    52   26   27 2
    53   26   28 1
@<TRIPOS>MOLECULE
CHEMBL199526__1
   50    53     0     0     0
SMALL
USER_CHARGES

@<TRIPOS>ATOM
      1 C1         -0.0187    1.5258    0.0104 C.3       1 <0>        -0.1452
      2 C2          0.0021   -0.0041    0.0020 C.3       1 <0>        -0.1005
      3 C3          0.7182   -0.4975   -1.2568 C.3       1 <0>        -0.1493
      4 C4          0.6303   -2.0233   -1.3286 C.3       1 <0>        -0.0291
      5 C5         -0.8421   -2.4697   -1.4498 C.3       1 <0>        -0.1159
      6 C6         -0.7376   -3.7139   -2.3571 C.3       1 <0>        -0.0759
      7 C7          0.5163   -3.5014   -3.1781 C.ar      1 <0>        -0.0712
      8 C8          1.3029   -2.5295   -2.5869 C.ar      1 <0>        -0.1014
      9 C9          2.5071   -2.1674   -3.1674 C.ar      1 <0>        -0.0490
     10 C10         2.9271   -2.7727   -4.3348 C.ar      1 <0>        -0.2068
     11 C11         2.1399   -3.7476   -4.9297 C.ar      1 <0>         0.1138
     12 C12         0.9344   -4.1096   -4.3485 C.ar      1 <0>        -0.1446
     13 O1          2.5489   -4.3458   -6.0794 O.3       1 <0>        -0.3124
     14 C13         3.8013   -3.9218   -6.6213 C.3       1 <0>         0.1322
     15 C14         4.0870   -4.6895   -7.8863 C.2       1 <0>         0.1127
     16 C15         3.2595   -5.6664   -8.4591 C.2       1 <0>        -0.2459
     17 C16         3.8658   -6.1207   -9.5894 C.2       1 <0>         0.1092
     18 O2          5.0294   -5.4572   -9.7248 O.3       1 <0>        -0.0706
     19 N1          5.1432   -4.5553   -8.6391 N.2       1 <0>        -0.3070
     20 C17         3.3411   -7.1567  -10.5043 C.ar      1 <0>        -0.0405
     21 C18         2.1108   -7.7625  -10.2452 C.ar      1 <0>        -0.0817
     22 C19         1.6268   -8.7286  -11.1030 C.ar      1 <0>        -0.1202
     23 C20         2.3583   -9.0972  -12.2180 C.ar      1 <0>        -0.1012
     24 C21         3.5786   -8.5005  -12.4806 C.ar      1 <0>        -0.1218
     25 C22         4.0712   -7.5290  -11.6340 C.ar      1 <0>        -0.0866
     26 C23         2.1652   -0.0794   -1.2080 C.2       1 <0>         0.5054
     27 O3          2.8790   -0.4588   -0.2952 O.co2     1 <0>        -0.6988
     28 O4          2.6222    0.6383   -2.0813 O.co2     1 <0>        -0.7008
     29 H1          1.0039    1.9031    0.0027 H         1 <0>         0.0580
     30 H2         -0.5459    1.8868   -0.8726 H         1 <0>         0.0458
     31 H3         -0.5289    1.8773    0.9072 H         1 <0>         0.0416
     32 H4          0.5293   -0.3651    0.8851 H         1 <0>         0.0624
     33 H5         -1.0205   -0.3814    0.0098 H         1 <0>         0.0463
     34 H6          0.2444   -0.0644   -2.1377 H         1 <0>         0.0590
     35 H7          1.0912   -2.4699   -0.4476 H         1 <0>         0.0859
     36 H8         -1.2481   -2.7351   -0.4737 H         1 <0>         0.0721
     37 H9         -1.4443   -1.6944   -1.9233 H         1 <0>         0.0706
     38 H10        -0.6455   -4.6162   -1.7526 H         1 <0>         0.0774
     39 H11        -1.6091   -3.7814   -3.0083 H         1 <0>         0.0706
     40 H12         3.1204   -1.4084   -2.7045 H         1 <0>         0.1507
     41 H13         3.8668   -2.4875   -4.7844 H         1 <0>         0.1245
     42 H14         0.3202   -4.8685   -4.8103 H         1 <0>         0.1219
     43 H15         3.7583   -2.8559   -6.8451 H         1 <0>         0.0963
     44 H16         4.5931   -4.1092   -5.8960 H         1 <0>         0.0956
     45 H17         2.3082   -5.9995   -8.0712 H         1 <0>         0.1672
     46 H18         1.5390   -7.4759   -9.3749 H         1 <0>         0.1339
     47 H19         0.6751   -9.1984  -10.9034 H         1 <0>         0.1322
     48 H20         1.9751   -9.8543  -12.8861 H         1 <0>         0.1279
     49 H21         4.1448   -8.7930  -13.3525 H         1 <0>         0.1302
     50 H22         5.0219   -7.0608  -11.8425 H         1 <0>         0.1328
@<TRIPOS>BOND
     1    1    2 1
     2    1   29 1
     3    1   30 1
     4    1   31 1
     5    2    3 1
     6    2   32 1
     7    2   33 1
     8    3    4 1
     9    3   26 1
    10    3   34 1
    11    4    8 1
    12    4    5 1
    13    4   35 1
    14    5    6 1
    15    5   36 1
    16    5   37 1
    17    6    7 1
    18    6   38 1
    19    6   39 1
    20    7   12 ar
    21    7    8 ar
    22    8    9 ar
    23    9   10 ar
    24    9   40 1
    25   10   11 ar
    26   10   41 1
    27   11   12 ar
    28   11   13 1
    29   12   42 1
    30   13   14 1
    31   14   15 1
    32   14   43 1
    33   14   44 1
    34   15   19 2
    35   15   16 1
    36   16   17 2
    37   16   45 1
    38   17   18 1
    39   17   20 1
    40   18   19 1
    41   20   25 ar
    42   20   21 ar
    43   21   22 ar
    44   21   46 1
    45   22   23 ar
    46   22   47 1
    47   23   24 ar
    48   23   48 1
    49   24   25 ar
    50   24   49 1
    51   25   50 1
    52   26   27 2
    53   26   28 1
@<TRIPOS>MOLECULE
CHEMBL199526__2
   50    53     0     0     0
SMALL
USER_CHARGES

@<TRIPOS>ATOM
      1 C1         -0.0187    1.5258    0.0104 C.3       1 <0>        -0.1510
      2 C2          0.0021   -0.0041    0.0020 C.3       1 <0>        -0.0927
      3 C3          0.7182   -0.4975   -1.2568 C.3       1 <0>        -0.1451
      4 C4          0.8493   -2.0210   -1.2049 C.3       1 <0>        -0.0268
      5 C5          1.7201   -2.4429   -0.0026 C.3       1 <0>        -0.1212
      6 C6          3.1299   -2.5216   -0.6259 C.3       1 <0>        -0.0738
      7 C7          2.8988   -2.8144   -2.0930 C.ar      1 <0>        -0.0705
      8 C8          1.5876   -2.5265   -2.4260 C.ar      1 <0>        -0.0940
      9 C9          1.1461   -2.7193   -3.7246 C.ar      1 <0>         0.0083
     10 C10         2.0092   -3.1986   -4.6895 C.ar      1 <0>        -0.2189
     11 C11         3.3245   -3.4881   -4.3579 C.ar      1 <0>         0.1154
     12 C12         3.7663   -3.2945   -3.0581 C.ar      1 <0>        -0.1533
     13 O1          4.1776   -3.9608   -5.3042 O.3       1 <0>        -0.3141
     14 C13         3.6526   -4.1360   -6.6217 C.3       1 <0>         0.1335
     15 C14         4.7351   -4.6635   -7.5278 C.2       1 <0>         0.1135
     16 C15         6.0554   -4.9493   -7.1505 C.2       1 <0>        -0.2451
     17 C16         6.7173   -5.4038   -8.2491 C.2       1 <0>         0.1083
     18 O2          5.8499   -5.4049   -9.2786 O.3       1 <0>        -0.0714
     19 N1          4.6033   -4.9379   -8.7957 N.2       1 <0>        -0.3083
     20 C17         8.1346   -5.8213   -8.3025 C.ar      1 <0>        -0.0400
     21 C18         8.9229   -5.7744   -7.1518 C.ar      1 <0>        -0.0818
     22 C19        10.2447   -6.1654   -7.2084 C.ar      1 <0>        -0.1201
     23 C20        10.7892   -6.6032   -8.4026 C.ar      1 <0>        -0.1015
     24 C21        10.0132   -6.6521   -9.5470 C.ar      1 <0>        -0.1219
     25 C22         8.6884   -6.2694   -9.5026 C.ar      1 <0>        -0.0869
     26 C23        -0.0771   -0.1029   -2.4745 C.2       1 <0>         0.4957
     27 O3         -1.1200    0.5157   -2.3473 O.co2     1 <0>        -0.6941
     28 O4          0.3224   -0.4021   -3.5868 O.co2     1 <0>        -0.6881
     29 H1          1.0039    1.9031    0.0027 H         1 <0>         0.0334
     30 H2         -0.5459    1.8868   -0.8726 H         1 <0>         0.0841
     31 H3         -0.5289    1.8773    0.9072 H         1 <0>         0.0342
     32 H4          0.5293   -0.3651    0.8851 H         1 <0>         0.0390
     33 H5         -1.0205   -0.3814    0.0098 H         1 <0>         0.0575
     34 H6          1.7103   -0.0491   -1.3098 H         1 <0>         0.0594
     35 H7         -0.1360   -2.4827   -1.1407 H         1 <0>         0.0679
     36 H8          1.6858   -1.6893    0.7841 H         1 <0>         0.0782
     37 H9          1.4099   -3.4161    0.3779 H         1 <0>         0.0653
     38 H10         3.6495   -1.5708   -0.5072 H         1 <0>         0.0759
     39 H11         3.7027   -3.3265   -0.1652 H         1 <0>         0.0678
     40 H12         0.1221   -2.4940   -3.9832 H         1 <0>         0.1316
     41 H13         1.6607   -3.3482   -5.7008 H         1 <0>         0.1201
     42 H14         4.7901   -3.5193   -2.7981 H         1 <0>         0.1179
     43 H15         2.8258   -4.8457   -6.5919 H         1 <0>         0.0938
     44 H16         3.2960   -3.1784   -7.0009 H         1 <0>         0.0959
     45 H17         6.4732   -4.8296   -6.1618 H         1 <0>         0.1673
     46 H18         8.4991   -5.4325   -6.2191 H         1 <0>         0.1341
     47 H19        10.8559   -6.1292   -6.3187 H         1 <0>         0.1322
     48 H20        11.8246   -6.9079   -8.4417 H         1 <0>         0.1278
     49 H21        10.4443   -6.9946  -10.4761 H         1 <0>         0.1300
     50 H22         8.0825   -6.3123  -10.3956 H         1 <0>         0.1327
@<TRIPOS>BOND
     1    1    2 1
     2    1   29 1
     3    1   30 1
     4    1   31 1
     5    2    3 1
     6    2   32 1
     7    2   33 1
     8    3    4 1
     9    3   26 1
    10    3   34 1
    11    4    8 1
    12    4    5 1
    13    4   35 1
    14    5    6 1
    15    5   36 1
    16    5   37 1
    17    6    7 1
    18    6   38 1
    19    6   39 1
    20    7   12 ar
    21    7    8 ar
    22    8    9 ar
    23    9   10 ar
    24    9   40 1
    25   10   11 ar
    26   10   41 1
    27   11   12 ar
    28   11   13 1
    29   12   42 1
    30   13   14 1
    31   14   15 1
    32   14   43 1
    33   14   44 1
    34   15   19 2
    35   15   16 1
    36   16   17 2
    37   16   45 1
    38   17   18 1
    39   17   20 1
    40   18   19 1
    41   20   25 ar
    42   20   21 ar
    43   21   22 ar
    44   21   46 1
    45   22   23 ar
    46   22   47 1
    47   23   24 ar
    48   23   48 1
    49   24   25 ar
    50   24   49 1
    51   25   50 1
    52   26   27 2
    53   26   28 1
@<TRIPOS>MOLECULE
CHEMBL199526__3
   50    53     0     0     0
SMALL
USER_CHARGES

@<TRIPOS>ATOM
      1 C1         -0.2908    1.4106   -2.5151 C.3       1 <0>        -0.1493
      2 C2         -0.1208   -0.1094   -2.4759 C.3       1 <0>        -0.0913
      3 C3          0.7182   -0.4975   -1.2568 C.3       1 <0>        -0.1539
      4 C4          0.7520   -2.0214   -1.1251 C.3       1 <0>        -0.0280
      5 C5          1.5769   -2.6400   -2.2735 C.3       1 <0>        -0.1156
      6 C6          2.2479   -3.8482   -1.5863 C.3       1 <0>        -0.0761
      7 C7          2.3347   -3.4733   -0.1223 C.ar      1 <0>        -0.0598
      8 C8          1.4747   -2.4232    0.1431 C.ar      1 <0>        -0.0674
      9 C9          1.3862   -1.9096    1.4263 C.ar      1 <0>        -0.0457
     10 C10         2.1530   -2.4415    2.4436 C.ar      1 <0>        -0.2041
     11 C11         3.0163   -3.4946    2.1799 C.ar      1 <0>         0.1108
     12 C12         3.1049   -4.0083    0.8952 C.ar      1 <0>        -0.1352
     13 O1          3.7737   -4.0211    3.1779 O.3       1 <0>        -0.3127
     14 C13         3.6306   -3.4409    4.4760 C.3       1 <0>         0.1339
     15 C14         4.5415   -4.1486    5.4457 C.2       1 <0>         0.1135
     16 C15         5.4059   -5.2090    5.1366 C.2       1 <0>        -0.2451
     17 C16         6.0540   -5.5691    6.2776 C.2       1 <0>         0.1091
     18 O2          5.6164   -4.7683    7.2673 O.3       1 <0>        -0.0713
     19 N1          4.6653   -3.8765    6.7149 N.2       1 <0>        -0.3096
     20 C17         7.0584   -6.6463    6.4071 C.ar      1 <0>        -0.0405
     21 C18         7.4257   -7.3999    5.2913 C.ar      1 <0>        -0.0813
     22 C19         8.3635   -8.4037    5.4190 C.ar      1 <0>        -0.1199
     23 C20         8.9395   -8.6639    6.6497 C.ar      1 <0>        -0.1012
     24 C21         8.5797   -7.9206    7.7598 C.ar      1 <0>        -0.1222
     25 C22         7.6474   -6.9102    7.6445 C.ar      1 <0>        -0.0869
     26 C23         2.1221    0.0233   -1.4268 C.2       1 <0>         0.5012
     27 O3          2.4237    0.6470   -2.4300 O.co2     1 <0>        -0.6985
     28 O4          2.9564   -0.1791   -0.5610 O.co2     1 <0>        -0.6879
     29 H1         -0.7937    1.7435   -1.6071 H         1 <0>         0.0333
     30 H2          0.6886    1.8841   -2.5825 H         1 <0>         0.0819
     31 H3         -0.8886    1.6871   -3.3837 H         1 <0>         0.0346
     32 H4         -1.1003   -0.5830   -2.4086 H         1 <0>         0.0335
     33 H5          0.3820   -0.4423   -3.3839 H         1 <0>         0.0605
     34 H6          0.2764   -0.0649   -0.3591 H         1 <0>         0.0572
     35 H7         -0.2613   -2.4231   -1.1263 H         1 <0>         0.0689
     36 H8          0.9267   -2.9676   -3.0847 H         1 <0>         0.0660
     37 H9          2.3255   -1.9355   -2.6360 H         1 <0>         0.0869
     38 H10         1.6372   -4.7422   -1.7123 H         1 <0>         0.0731
     39 H11         3.2453   -4.0099   -1.9951 H         1 <0>         0.0709
     40 H12         0.7141   -1.0897    1.6321 H         1 <0>         0.1149
     41 H13         2.0811   -2.0381    3.4428 H         1 <0>         0.1204
     42 H14         3.7765   -4.8283    0.6881 H         1 <0>         0.1203
     43 H15         3.8958   -2.3846    4.4331 H         1 <0>         0.0952
     44 H16         2.5972   -3.5429    4.8076 H         1 <0>         0.0928
     45 H17         5.5345   -5.6603    4.1639 H         1 <0>         0.1677
     46 H18         6.9765   -7.1979    4.3302 H         1 <0>         0.1344
     47 H19         8.6483   -8.9878    4.5564 H         1 <0>         0.1324
     48 H20         9.6729   -9.4511    6.7444 H         1 <0>         0.1278
     49 H21         9.0328   -8.1290    8.7177 H         1 <0>         0.1299
     50 H22         7.3708   -6.3277    8.5109 H         1 <0>         0.1325
@<TRIPOS>BOND
     1    1    2 1
     2    1   29 1
     3    1   30 1
     4    1   31 1
     5    2    3 1
     6    2   32 1
     7    2   33 1
     8    3    4 1
     9    3   26 1
    10    3   34 1
    11    4    8 1
    12    4    5 1
    13    4   35 1
    14    5    6 1
    15    5   36 1
    16    5   37 1
    17    6    7 1
    18    6   38 1
    19    6   39 1
    20    7   12 ar
    21    7    8 ar
    22    8    9 ar
    23    9   10 ar
    24    9   40 1
    25   10   11 ar
    26   10   41 1
    27   11   12 ar
    28   11   13 1
    29   12   42 1
    30   13   14 1
    31   14   15 1
    32   14   43 1
    33   14   44 1
    34   15   19 2
    35   15   16 1
    36   16   17 2
    37   16   45 1
    38   17   18 1
    39   17   20 1
    40   18   19 1
    41   20   25 ar
    42   20   21 ar
    43   21   22 ar
    44   21   46 1
    45   22   23 ar
    46   22   47 1
    47   23   24 ar
    48   23   48 1
    49   24   25 ar
    50   24   49 1
    51   25   50 1
    52   26   27 2
    53   26   28 1
@<TRIPOS>MOLECULE
CHEMBL87307
   55    57     0     0     0
SMALL
USER_CHARGES

@<TRIPOS>ATOM
      1 C1         -0.0187    1.5258    0.0104 C.3       1 <0>        -0.1428
      2 C2          0.0021   -0.0041    0.0020 C.3       1 <0>         0.0665
      3 O1          0.6709   -0.4649   -1.1737 O.3       1 <0>        -0.3673
      4 C3          0.7457   -1.8880   -1.2798 C.3       1 <0>         0.0331
      5 H1         -0.1179   -2.3349   -0.7873 H         1 <0>         0.0486
      6 C4          0.7554   -2.2896   -2.7561 C.3       1 <0>        -0.0609
      7 C5         -0.5593   -1.9112   -3.3882 C.ar      1 <0>        -0.0947
      8 C6         -1.6109   -2.8089   -3.3838 C.ar      1 <0>        -0.0823
      9 C7         -2.8169   -2.4646   -3.9630 C.ar      1 <0>        -0.1505
     10 C8         -2.9725   -1.2168   -4.5490 C.ar      1 <0>         0.1107
     11 C9         -1.9159   -0.3178   -4.5517 C.ar      1 <0>        -0.2066
     12 C10        -0.7136   -0.6649   -3.9666 C.ar      1 <0>        -0.0616
     13 O2         -4.1577   -0.8760   -5.1198 O.3       1 <0>        -0.3141
     14 C11        -4.2460    0.4250   -5.7042 C.3       1 <0>         0.0845
     15 C12        -5.6230    0.6232   -6.2834 C.2       1 <0>        -0.1043
     16 C13        -6.2808    1.7688   -6.0686 C.2       1 <0>        -0.0530
     17 C14        -7.6359    1.9638   -6.6385 C.ar      1 <0>        -0.0263
     18 C15        -7.8524    2.9404   -7.6094 C.ar      1 <0>        -0.0950
     19 C16        -9.1152    3.1178   -8.1363 C.ar      1 <0>        -0.0897
     20 C17       -10.1662    2.3283   -7.7022 C.ar      1 <0>        -0.0885
     21 C18        -9.9567    1.3575   -6.7380 C.ar      1 <0>        -0.0889
     22 C19        -8.6964    1.1674   -6.2093 C.ar      1 <0>        -0.0974
     23 Br1       -11.8943    2.5775   -8.4284 Br        1 <0>        -0.0514
     24 C20        -5.6546    2.8431   -5.2607 C.ar      1 <0>        -0.0338
     25 C21        -6.2112    3.2130   -4.0373 C.ar      1 <0>        -0.0939
     26 C22        -5.6245    4.2132   -3.2895 C.ar      1 <0>        -0.0868
     27 C23        -4.4856    4.8494   -3.7524 C.ar      1 <0>        -0.0856
     28 C24        -3.9291    4.4863   -4.9667 C.ar      1 <0>        -0.0870
     29 C25        -4.5040    3.4827   -5.7193 C.ar      1 <0>        -0.1046
     30 Br2        -3.6874    6.2198   -2.7225 Br        1 <0>        -0.0468
     31 C26         2.0091   -2.3753   -0.6184 C.2       1 <0>         0.4773
     32 O3          2.7745   -1.5779   -0.1038 O.co2     1 <0>        -0.6803
     33 O4          2.2658   -3.5670   -0.5978 O.co2     1 <0>        -0.6998
     34 H2          1.0039    1.9031    0.0027 H         1 <0>         0.0622
     35 H3         -0.5459    1.8868   -0.8726 H         1 <0>         0.0532
     36 H4         -0.5289    1.8773    0.9072 H         1 <0>         0.0596
     37 H5          0.5293   -0.3651    0.8851 H         1 <0>         0.0469
     38 H6         -1.0205   -0.3814    0.0098 H         1 <0>         0.0287
     39 H7          1.5669   -1.7723   -3.2680 H         1 <0>         0.0727
     40 H8          0.9017   -3.3665   -2.8387 H         1 <0>         0.0885
     41 H9         -1.4892   -3.7802   -2.9274 H         1 <0>         0.1290
     42 H10        -3.6378   -3.1664   -3.9599 H         1 <0>         0.1253
     43 H11        -2.0346    0.6542   -5.0074 H         1 <0>         0.1202
     44 H12         0.1078    0.0363   -3.9646 H         1 <0>         0.1262
     45 H13        -4.0611    1.1800   -4.9400 H         1 <0>         0.0739
     46 H14        -3.5021    0.5192   -6.4954 H         1 <0>         0.0751
     47 H15        -6.0791   -0.1592   -6.8718 H         1 <0>         0.1329
     48 H16        -7.0333    3.5573   -7.9482 H         1 <0>         0.1332
     49 H17        -9.2841    3.8741   -8.8886 H         1 <0>         0.1346
     50 H18       -10.7801    0.7447   -6.4022 H         1 <0>         0.1356
     51 H19        -8.5329    0.4061   -5.4609 H         1 <0>         0.1364
     52 H20        -7.1002    2.7177   -3.6756 H         1 <0>         0.1329
     53 H21        -6.0549    4.5006   -2.3416 H         1 <0>         0.1355
     54 H22        -3.0408    4.9862   -5.3237 H         1 <0>         0.1367
     55 H23        -4.0661    3.1965   -6.6641 H         1 <0>         0.1338
@<TRIPOS>BOND
     1    1    2 1
     2    1   34 1
     3    1   35 1
     4    1   36 1
     5    2    3 1
     6    2   37 1
     7    2   38 1
     8    3    4 1
     9    4    5 1
    10    4    6 1
    11    4   31 1
    12    6    7 1
    13    6   39 1
    14    6   40 1
    15    7   12 ar
    16    7    8 ar
    17    8    9 ar
    18    8   41 1
    19    9   10 ar
    20    9   42 1
    21   10   11 ar
    22   10   13 1
    23   11   12 ar
    24   11   43 1
    25   12   44 1
    26   13   14 1
    27   14   15 1
    28   14   45 1
    29   14   46 1
    30   15   16 2
    31   15   47 1
    32   16   17 1
    33   16   24 1
    34   17   22 ar
    35   17   18 ar
    36   18   19 ar
    37   18   48 1
    38   19   20 ar
    39   19   49 1
    40   20   21 ar
    41   20   23 1
    42   21   22 ar
    43   21   50 1
    44   22   51 1
    45   24   29 ar
    46   24   25 ar
    47   25   26 ar
    48   25   52 1
    49   26   27 ar
    50   26   53 1
    51   27   28 ar
    52   27   30 1
    53   28   29 ar
    54   28   54 1
    55   29   55 1
    56   31   32 2
    57   31   33 1
@<TRIPOS>MOLECULE
CHEMBL474149
   60    64     0     0     0
SMALL
USER_CHARGES

@<TRIPOS>ATOM
      1 C1         -0.0937    1.1580    0.3725 C.3       1 <0>        -0.0707
      2 C2         -0.1632   -0.3457    0.4438 C.2       1 <0>        -0.0347
      3 C3         -1.2816   -1.0938    0.4383 C.2       1 <0>        -0.0019
      4 N1         -0.9148   -2.3819    0.5155 N.2       1 <0>        -0.4566
      5 C4          0.3950   -2.4428    0.5679 C.2       1 <0>         0.2252
      6 O1          0.8835   -1.1914    0.5189 O.3       1 <0>        -0.1944
      7 C5          1.1986   -3.6802    0.6590 C.ar      1 <0>        -0.0148
      8 C6          0.5679   -4.9248    0.6906 C.ar      1 <0>        -0.0708
      9 C7          1.3238   -6.0758    0.7752 C.ar      1 <0>        -0.1202
     10 C8          2.7041   -5.9982    0.8288 C.ar      1 <0>        -0.1025
     11 C9          3.3356   -4.7675    0.7984 C.ar      1 <0>        -0.1219
     12 C10         2.5916   -3.6091    0.7081 C.ar      1 <0>        -0.0916
     13 C11        -2.6949   -0.5766    0.3600 C.3       1 <0>        -0.0380
     14 C12        -3.1191   -0.4719   -1.1062 C.3       1 <0>         0.0698
     15 O2         -4.4593    0.0185   -1.1805 O.3       1 <0>        -0.3085
     16 C13        -4.9926    0.1712   -2.4211 C.ar      1 <0>         0.1241
     17 C14        -4.2433   -0.1499   -3.5439 C.ar      1 <0>        -0.2193
     18 C15        -4.7878    0.0057   -4.8037 C.ar      1 <0>        -0.0928
     19 C16        -6.0784    0.4812   -4.9466 C.ar      1 <0>        -0.1559
     20 C17        -6.8269    0.8023   -3.8295 C.ar      1 <0>        -0.0248
     21 C18        -6.2888    0.6430   -2.5669 C.ar      1 <0>        -0.1237
     22 C19        -8.2329    1.3207   -3.9888 C.3       1 <0>        -0.0028
     23 C20        -9.1821    0.1600   -4.1396 C.2       1 <0>        -0.1479
     24 C21        -9.6083   -0.4041   -5.2932 C.2       1 <0>        -0.0404
     25 N2        -10.4504   -1.4166   -4.9573 N.pl3     1 <0>        -0.2657
     26 N3        -10.5572   -1.4967   -3.6795 N.2       1 <0>        -0.2697
     27 C22        -9.8105   -0.5733   -3.1033 C.2       1 <0>         0.0180
     28 C23        -9.6616   -0.3459   -1.6554 C.2       1 <0>         0.5623
     29 O3         -9.0575    0.6373   -1.2497 O.co2     1 <0>        -0.6700
     30 O4        -10.1420   -1.1403   -0.8589 O.co2     1 <0>        -0.6723
     31 C24       -11.1065   -2.2513   -5.8715 C.ar      1 <0>         0.1647
     32 C25       -10.9127   -2.0776   -7.2355 C.ar      1 <0>        -0.1432
     33 C26       -11.5609   -2.9021   -8.1341 C.ar      1 <0>        -0.0972
     34 C27       -12.4022   -3.8998   -7.6767 C.ar      1 <0>        -0.1391
     35 C28       -12.5976   -4.0749   -6.3190 C.ar      1 <0>        -0.0966
     36 C29       -11.9475   -3.2577   -5.4152 C.ar      1 <0>        -0.1192
     37 H1          0.9490    1.4748    0.3911 H         1 <0>         0.0792
     38 H2         -0.5609    1.4999   -0.5510 H         1 <0>         0.0920
     39 H3         -0.6191    1.5868    1.2259 H         1 <0>         0.0939
     40 H4         -0.5095   -4.9867    0.6492 H         1 <0>         0.1399
     41 H5          0.8369   -7.0395    0.8001 H         1 <0>         0.1327
     42 H6          3.2912   -6.9022    0.8950 H         1 <0>         0.1278
     43 H7          4.4134   -4.7137    0.8413 H         1 <0>         0.1299
     44 H8          3.0859   -2.6493    0.6796 H         1 <0>         0.1297
     45 H9         -3.3620   -1.2616    0.8833 H         1 <0>         0.0974
     46 H10        -2.7478    0.4080    0.8248 H         1 <0>         0.0944
     47 H11        -2.4521    0.2132   -1.6294 H         1 <0>         0.0576
     48 H12        -3.0663   -1.4564   -1.5709 H         1 <0>         0.0622
     49 H13        -3.2351   -0.5210   -3.4329 H         1 <0>         0.1172
     50 H14        -4.2048   -0.2438   -5.6780 H         1 <0>         0.1157
     51 H15        -6.5024    0.6022   -5.9325 H         1 <0>         0.1157
     52 H16        -6.8755    0.8898   -1.6943 H         1 <0>         0.1590
     53 H17        -8.5075    1.9026   -3.1090 H         1 <0>         0.1073
     54 H18        -8.2887    1.9532   -4.8747 H         1 <0>         0.0694
     55 H19        -9.3316   -0.1054   -6.2935 H         1 <0>         0.1684
     56 H20       -10.2560   -1.2984   -7.5933 H         1 <0>         0.1291
     57 H21       -11.4109   -2.7673   -9.1951 H         1 <0>         0.1285
     58 H22       -12.9080   -4.5432   -8.3814 H         1 <0>         0.1243
     59 H23       -13.2556   -4.8547   -5.9649 H         1 <0>         0.1296
     60 H24       -12.0965   -3.3983   -4.3548 H         1 <0>         0.1420
@<TRIPOS>BOND
     1    1    2 1
     2    1   37 1
     3    1   38 1
     4    1   39 1
     5    2    6 1
     6    2    3 2
     7    3    4 1
     8    3   13 1
     9    4    5 2
    10    5    6 1
    11    5    7 1
    12    7   12 ar
    13    7    8 ar
    14    8    9 ar
    15    8   40 1
    16    9   10 ar
    17    9   41 1
    18   10   11 ar
    19   10   42 1
    20   11   12 ar
    21   11   43 1
    22   12   44 1
    23   13   14 1
    24   13   45 1
    25   13   46 1
    26   14   15 1
    27   14   47 1
    28   14   48 1
    29   15   16 1
    30   16   21 ar
    31   16   17 ar
    32   17   18 ar
    33   17   49 1
    34   18   19 ar
    35   18   50 1
    36   19   20 ar
    37   19   51 1
    38   20   21 ar
    39   20   22 1
    40   21   52 1
    41   22   23 1
    42   22   53 1
    43   22   54 1
    44   23   27 1
    45   23   24 2
    46   24   25 1
    47   24   55 1
    48   25   26 1
    49   25   31 1
    50   26   27 2
    51   27   28 1
    52   28   29 2
    53   28   30 1
    54   31   36 ar
    55   31   32 ar
    56   32   33 ar
    57   32   56 1
    58   33   34 ar
    59   33   57 1
    60   34   35 ar
    61   34   58 1
    62   35   36 ar
    63   35   59 1
    64   36   60 1
@<TRIPOS>MOLECULE
CHEMBL514007
   60    64     0     0     0
SMALL
USER_CHARGES

@<TRIPOS>ATOM
      1 C1         -0.0184    1.5028    0.0103 C.3       1 <0>        -0.0712
      2 C2          0.0021   -0.0041    0.0020 C.2       1 <0>        -0.0329
      3 C3         -1.0705   -0.8164    0.0025 C.2       1 <0>        -0.0061
      4 N1         -0.6270   -2.0826   -0.0064 N.2       1 <0>        -0.4583
      5 C4          0.6851   -2.0676   -0.0123 C.2       1 <0>         0.2290
      6 O1          1.0981   -0.7883   -0.0131 O.3       1 <0>        -0.1933
      7 C5          1.5619   -3.2577   -0.0227 C.ar      1 <0>        -0.0165
      8 C6          1.0059   -4.5378   -0.0330 C.ar      1 <0>        -0.0702
      9 C7          1.8298   -5.6443   -0.0432 C.ar      1 <0>        -0.1203
     10 C8          3.2044   -5.4871   -0.0433 C.ar      1 <0>        -0.1015
     11 C9          3.7620   -4.2209   -0.0327 C.ar      1 <0>        -0.1216
     12 C10         2.9493   -3.1060   -0.0282 C.ar      1 <0>        -0.0906
     13 C11        -2.5133   -0.3814    0.0119 C.3       1 <0>        -0.0329
     14 C12        -3.0085   -0.2260   -1.4274 C.3       1 <0>         0.0672
     15 O2         -4.3766    0.1865   -1.4185 O.3       1 <0>        -0.3187
     16 C13        -4.9731    0.3716   -2.6255 C.ar      1 <0>         0.1185
     17 C14        -4.2580    0.1549   -3.7944 C.ar      1 <0>        -0.2123
     18 C15        -4.8667    0.3432   -5.0201 C.ar      1 <0>        -0.0544
     19 C16        -6.1874    0.7477   -5.0825 C.ar      1 <0>        -0.1017
     20 C17        -6.9021    0.9648   -3.9190 C.ar      1 <0>        -0.0752
     21 C18        -6.2998    0.7719   -2.6908 C.ar      1 <0>        -0.1622
     22 C19        -6.8489    0.9529   -6.4210 C.3       1 <0>         0.0058
     23 C20        -7.4853   -0.3373   -6.8698 C.2       1 <0>         0.1273
     24 C21        -6.8620   -1.3483   -7.6387 C.2       1 <0>        -0.2555
     25 C22        -7.7955   -2.3520   -7.8243 C.2       1 <0>         0.0663
     26 N2         -8.9238   -1.9702   -7.2016 N.pl3     1 <0>        -0.3318
     27 N3         -8.7053   -0.7199   -6.6127 N.2       1 <0>        -0.3132
     28 C23       -10.1168   -2.7036   -7.1469 C.ar      1 <0>         0.1812
     29 C24       -10.2006   -3.9430   -7.7671 C.ar      1 <0>        -0.1508
     30 C25       -11.3777   -4.6634   -7.7115 C.ar      1 <0>        -0.0910
     31 C26       -12.4723   -4.1511   -7.0395 C.ar      1 <0>        -0.1455
     32 C27       -12.3920   -2.9170   -6.4208 C.ar      1 <0>        -0.0963
     33 C28       -11.2157   -2.1947   -6.4676 C.ar      1 <0>        -0.1291
     34 C29        -5.4823   -1.3343   -8.1457 C.2       1 <0>         0.5545
     35 O3         -5.0623   -2.2773   -8.8027 O.co2     1 <0>        -0.6943
     36 O4         -4.7538   -0.3797   -7.9108 O.co2     1 <0>        -0.6821
     37 H1          1.0042    1.8801    0.0026 H         1 <0>         0.0802
     38 H2         -0.5455    1.8639   -0.8728 H         1 <0>         0.0930
     39 H3         -0.5286    1.8543    0.9071 H         1 <0>         0.0921
     40 H4         -0.0670   -4.6619   -0.0326 H         1 <0>         0.1392
     41 H5          1.4008   -6.6354   -0.0508 H         1 <0>         0.1327
     42 H6          3.8450   -6.3565   -0.0513 H         1 <0>         0.1281
     43 H7          4.8357   -4.1050   -0.0321 H         1 <0>         0.1303
     44 H8          3.3858   -2.1181   -0.0249 H         1 <0>         0.1300
     45 H9         -3.1156   -1.1316    0.5243 H         1 <0>         0.0932
     46 H10        -2.6018    0.5726    0.5316 H         1 <0>         0.0917
     47 H11        -2.4061    0.5242   -1.9398 H         1 <0>         0.0615
     48 H12        -2.9200   -1.1800   -1.9471 H         1 <0>         0.0658
     49 H13        -3.2262   -0.1604   -3.7462 H         1 <0>         0.1211
     50 H14        -4.3105    0.1747   -5.9304 H         1 <0>         0.1611
     51 H15        -7.9335    1.2810   -3.9704 H         1 <0>         0.1242
     52 H16        -6.8598    0.9373   -1.7823 H         1 <0>         0.1231
     53 H17        -7.6139    1.7243   -6.3338 H         1 <0>         0.0735
     54 H18        -6.1019    1.2629   -7.1517 H         1 <0>         0.1164
     55 H19        -7.6455   -3.2724   -8.3689 H         1 <0>         0.1771
     56 H20        -9.3462   -4.3433   -8.2927 H         1 <0>         0.1308
     57 H21       -11.4435   -5.6275   -8.1937 H         1 <0>         0.1287
     58 H22       -13.3919   -4.7159   -6.9980 H         1 <0>         0.1232
     59 H23       -13.2486   -2.5196   -5.8967 H         1 <0>         0.1268
     60 H24       -11.1522   -1.2329   -5.9805 H         1 <0>         0.1358
@<TRIPOS>BOND
     1    1    2 1
     2    1   37 1
     3    1   38 1
     4    1   39 1
     5    2    6 1
     6    2    3 2
     7    3    4 1
     8    3   13 1
     9    4    5 2
    10    5    6 1
    11    5    7 1
    12    7   12 ar
    13    7    8 ar
    14    8    9 ar
    15    8   40 1
    16    9   10 ar
    17    9   41 1
    18   10   11 ar
    19   10   42 1
    20   11   12 ar
    21   11   43 1
    22   12   44 1
    23   13   14 1
    24   13   45 1
    25   13   46 1
    26   14   15 1
    27   14   47 1
    28   14   48 1
    29   15   16 1
    30   16   21 ar
    31   16   17 ar
    32   17   18 ar
    33   17   49 1
    34   18   19 ar
    35   18   50 1
    36   19   20 ar
    37   19   22 1
    38   20   21 ar
    39   20   51 1
    40   21   52 1
    41   22   23 1
    42   22   53 1
    43   22   54 1
    44   23   27 2
    45   23   24 1
    46   24   25 2
    47   24   34 1
    48   25   26 1
    49   25   55 1
    50   26   27 1
    51   26   28 1
    52   28   33 ar
    53   28   29 ar
    54   29   30 ar
    55   29   56 1
    56   30   31 ar
    57   30   57 1
    58   31   32 ar
    59   31   58 1
    60   32   33 ar
    61   32   59 1
    62   33   60 1
    63   34   35 2
    64   34   36 1
@<TRIPOS>MOLECULE
CHEMBL512789
   60    62     0     0     0
SMALL
USER_CHARGES

@<TRIPOS>ATOM
      1 C1         -0.0184    1.5028    0.0103 C.3       1 <0>        -0.0707
      2 C2          0.0021   -0.0041    0.0020 C.2       1 <0>        -0.0412
      3 C3         -1.0676   -0.8166    0.0025 C.2       1 <0>        -0.0133
      4 N1         -0.6176   -2.0838   -0.0065 N.2       1 <0>        -0.4694
      5 C4          0.6848   -2.0645   -0.0123 C.2       1 <0>         0.2014
      6 O1          1.0968   -0.7897   -0.0131 O.3       1 <0>        -0.1958
      7 C5          1.5806   -3.2763   -0.0225 C.3       1 <0>         0.0329
      8 C6          1.2980   -4.1088   -1.2747 C.3       1 <0>        -0.1409
      9 C7          3.0437   -2.8290   -0.0269 C.3       1 <0>        -0.1474
     10 C8          1.3094   -4.1215    1.2237 C.3       1 <0>        -0.1388
     11 C9         -2.5117   -0.3858    0.0114 C.3       1 <0>        -0.0320
     12 C10        -3.0069   -0.2321   -1.4281 C.3       1 <0>         0.0678
     13 O2         -4.3763    0.1764   -1.4196 O.3       1 <0>        -0.3171
     14 C11        -4.9730    0.3594   -2.6268 C.ar      1 <0>         0.1191
     15 C12        -4.2570    0.1445   -3.7955 C.ar      1 <0>        -0.2044
     16 C13        -4.8660    0.3307   -5.0214 C.ar      1 <0>        -0.0708
     17 C14        -6.1878    0.7314   -5.0843 C.ar      1 <0>        -0.1063
     18 C15        -6.9034    0.9467   -3.9209 C.ar      1 <0>        -0.0809
     19 C16        -6.3008    0.7559   -2.6926 C.ar      1 <0>        -0.1523
     20 C17        -6.8495    0.9342   -6.4229 C.3       1 <0>        -0.0669
     21 C18        -7.4918   -0.3776   -6.8784 C.3       1 <0>        -0.1485
     22 C19        -6.3998   -1.4214   -7.1369 C.3       1 <0>         0.0508
     23 O3         -5.5974   -0.9907   -8.2406 O.3       1 <0>        -0.3656
     24 C20        -6.3392   -0.7796   -9.4444 C.3       1 <0>         0.2071
     25 O4         -7.3496    0.2055   -9.2150 O.3       1 <0>        -0.3568
     26 C21        -8.2708   -0.1441   -8.1774 C.3       1 <0>         0.0508
     27 C22        -6.9955   -2.0925   -9.8760 C.3       1 <0>        -0.1869
     28 C23        -5.4094   -0.3021  -10.5301 C.2       1 <0>         0.5280
     29 O5         -4.5277   -1.0355  -10.9437 O.co2     1 <0>        -0.6718
     30 O6         -5.5390    0.8176  -10.9948 O.co2     1 <0>        -0.6622
     31 H1          1.0042    1.8801    0.0026 H         1 <0>         0.0793
     32 H2         -0.5455    1.8639   -0.8728 H         1 <0>         0.0899
     33 H3         -0.5286    1.8543    0.9071 H         1 <0>         0.0901
     34 H4          1.4912   -3.5067   -2.1625 H         1 <0>         0.0601
     35 H5          1.9459   -4.9853   -1.2821 H         1 <0>         0.0730
     36 H6          0.2557   -4.4275   -1.2716 H         1 <0>         0.0706
     37 H7          3.2450   -2.2359    0.8652 H         1 <0>         0.0619
     38 H8          3.6916   -3.7055   -0.0342 H         1 <0>         0.0727
     39 H9          3.2369   -2.2269   -0.9147 H         1 <0>         0.0634
     40 H10         0.2670   -4.4401    1.2269 H         1 <0>         0.0701
     41 H11         1.9573   -4.9980    1.2164 H         1 <0>         0.0725
     42 H12         1.5107   -3.5284    2.1158 H         1 <0>         0.0578
     43 H13        -3.1120   -1.1375    0.5239 H         1 <0>         0.0922
     44 H14        -2.6030    0.5681    0.5308 H         1 <0>         0.0901
     45 H15        -2.4067    0.5196   -1.9406 H         1 <0>         0.0612
     46 H16        -2.9156   -1.1860   -1.9475 H         1 <0>         0.0658
     47 H17        -3.2243   -0.1678   -3.7469 H         1 <0>         0.1237
     48 H18        -4.3090    0.1635   -5.9315 H         1 <0>         0.1330
     49 H19        -7.9357    1.2600   -3.9727 H         1 <0>         0.1266
     50 H20        -6.8615    0.9199   -1.7842 H         1 <0>         0.1266
     51 H21        -7.6168    1.7035   -6.3361 H         1 <0>         0.0696
     52 H22        -6.1032    1.2463   -7.1535 H         1 <0>         0.0891
     53 H23        -8.1702   -0.7396   -6.1058 H         1 <0>         0.0794
     54 H24        -5.7751   -1.5234   -6.2495 H         1 <0>         0.0906
     55 H25        -6.8604   -2.3807   -7.3730 H         1 <0>         0.0458
     56 H26        -8.8024   -1.0549   -8.4529 H         1 <0>         0.0466
     57 H27        -8.9843    0.6675   -8.0342 H         1 <0>         0.0891
     58 H28        -7.6680   -2.4379   -9.0908 H         1 <0>         0.0475
     59 H29        -7.5610   -1.9316  -10.7938 H         1 <0>         0.0663
     60 H30        -6.2251   -2.8435  -10.0509 H         1 <0>         0.0775
@<TRIPOS>BOND
     1    1    2 1
     2    1   31 1
     3    1   32 1
     4    1   33 1
     5    2    6 1
     6    2    3 2
     7    3    4 1
     8    3   11 1
     9    4    5 2
    10    5    6 1
    11    5    7 1
    12    7    8 1
    13    7    9 1
    14    7   10 1
    15    8   34 1
    16    8   35 1
    17    8   36 1
    18    9   37 1
    19    9   38 1
    20    9   39 1
    21   10   40 1
    22   10   41 1
    23   10   42 1
    24   11   12 1
    25   11   43 1
    26   11   44 1
    27   12   13 1
    28   12   45 1
    29   12   46 1
    30   13   14 1
    31   14   19 ar
    32   14   15 ar
    33   15   16 ar
    34   15   47 1
    35   16   17 ar
    36   16   48 1
    37   17   18 ar
    38   17   20 1
    39   18   19 ar
    40   18   49 1
    41   19   50 1
    42   20   21 1
    43   20   51 1
    44   20   52 1
    45   21   26 1
    46   21   22 1
    47   21   53 1
    48   22   23 1
    49   22   54 1
    50   22   55 1
    51   23   24 1
    52   24   25 1
    53   24   27 1
    54   24   28 1
    55   25   26 1
    56   26   56 1
    57   26   57 1
    58   27   58 1
    59   27   59 1
    60   27   60 1
    61   28   29 2
    62   28   30 1
@<TRIPOS>MOLECULE
CHEMBL468160
   58    61     0     0     0
SMALL
USER_CHARGES

@<TRIPOS>ATOM
      1 C1         -0.0184    1.5028    0.0103 C.3       1 <0>        -0.0738
      2 C2          0.0021   -0.0041    0.0020 C.2       1 <0>        -0.1374
      3 C3         -1.0443   -0.8708    0.0018 C.2       1 <0>        -0.1709
      4 C4         -0.7974   -2.2239   -0.0066 C.2       1 <0>        -0.1048
      5 C5          0.5170   -2.6527   -0.0146 C.2       1 <0>        -0.1163
      6 S1          1.4071   -1.1049   -0.0179 S.3       1 <0>         0.1519
      7 C6          1.0442   -4.0251   -0.0239 C.2       1 <0>         0.2737
      8 N1          2.3161   -4.3599   -0.0260 N.2       1 <0>        -0.4554
      9 C7          2.4066   -5.6990   -0.0352 C.2       1 <0>        -0.0050
     10 C8          1.1577   -6.1975   -0.0389 C.2       1 <0>        -0.0279
     11 O1          0.3070   -5.1506   -0.0260 O.3       1 <0>        -0.1880
     12 C9          0.7785   -7.6560   -0.0497 C.3       1 <0>        -0.0727
     13 C10         3.6820   -6.5017   -0.0409 C.3       1 <0>        -0.0333
     14 C11         4.1136   -6.7838    1.3996 C.3       1 <0>         0.0666
     15 O2          5.3230   -7.5449    1.3942 O.3       1 <0>        -0.3167
     16 C12         5.8451   -7.8823    2.6027 C.ar      1 <0>         0.1190
     17 C13         5.2034   -7.4938    3.7697 C.ar      1 <0>        -0.2043
     18 C14         5.7359   -7.8384    4.9969 C.ar      1 <0>        -0.0708
     19 C15         6.9076   -8.5695    5.0627 C.ar      1 <0>        -0.1061
     20 C16         7.5493   -8.9576    3.9011 C.ar      1 <0>        -0.0810
     21 C17         7.0175   -8.6207    2.6713 C.ar      1 <0>        -0.1521
     22 C18         7.4865   -8.9436    6.4028 C.3       1 <0>        -0.0672
     23 C19         6.9193  -10.2943    6.8443 C.3       1 <0>        -0.1484
     24 C20         5.4128  -10.1620    7.0930 C.3       1 <0>         0.0510
     25 O3          5.2005   -9.2828    8.2018 O.3       1 <0>        -0.3655
     26 C21         5.8394   -9.7107    9.4071 C.3       1 <0>         0.2071
     27 O4          7.2477   -9.8205    9.1869 O.3       1 <0>        -0.3567
     28 C22         7.5989  -10.7362    8.1450 C.3       1 <0>         0.0507
     29 C23         5.2807  -11.0725    9.8247 C.3       1 <0>        -0.1868
     30 C24         5.5785   -8.7047   10.4984 C.2       1 <0>         0.5280
     31 O5          4.4429   -8.5273   10.9052 O.co2     1 <0>        -0.6720
     32 O6          6.5030   -8.0681   10.9744 O.co2     1 <0>        -0.6619
     33 H1          1.0042    1.8801    0.0026 H         1 <0>         0.0758
     34 H2         -0.5455    1.8639   -0.8728 H         1 <0>         0.0847
     35 H3         -0.5286    1.8543    0.9071 H         1 <0>         0.0857
     36 H4         -2.0590   -0.5012    0.0085 H         1 <0>         0.1410
     37 H5         -1.6108   -2.9343   -0.0066 H         1 <0>         0.1409
     38 H6          0.6872   -8.0153    0.9753 H         1 <0>         0.0902
     39 H7         -0.1742   -7.7799   -0.5644 H         1 <0>         0.0822
     40 H8          1.5485   -8.2277   -0.5678 H         1 <0>         0.0970
     41 H9          3.5155   -7.4447   -0.5616 H         1 <0>         0.0934
     42 H10         4.4636   -5.9383   -0.5507 H         1 <0>         0.0950
     43 H11         4.2801   -5.8407    1.9203 H         1 <0>         0.0667
     44 H12         3.3320   -7.3471    1.9093 H         1 <0>         0.0629
     45 H13         4.2886   -6.9221    3.7188 H         1 <0>         0.1239
     46 H14         5.2368   -7.5361    5.9057 H         1 <0>         0.1331
     47 H15         8.4645   -9.5283    3.9551 H         1 <0>         0.1267
     48 H16         7.5167   -8.9279    1.7642 H         1 <0>         0.1267
     49 H17         8.5714   -9.0137    6.3232 H         1 <0>         0.0697
     50 H18         7.2245   -8.1820    7.1372 H         1 <0>         0.0892
     51 H19         7.0993  -11.0374    6.0675 H         1 <0>         0.0793
     52 H20         4.9310   -9.7526    6.2052 H         1 <0>         0.0905
     53 H21         4.9929  -11.1422    7.3189 H         1 <0>         0.0456
     54 H22         7.2617  -11.7381    8.4107 H         1 <0>         0.0465
     55 H23         8.6804  -10.7375    8.0094 H         1 <0>         0.0891
     56 H24         5.4695  -11.8002    9.0354 H         1 <0>         0.0474
     57 H25         5.7678  -11.3987   10.7436 H         1 <0>         0.0663
     58 H26         4.2070  -10.9888    9.9925 H         1 <0>         0.0774
@<TRIPOS>BOND
     1    1    2 1
     2    1   33 1
     3    1   34 1
     4    1   35 1
     5    2    6 1
     6    2    3 2
     7    3    4 1
     8    3   36 1
     9    4    5 2
    10    4   37 1
    11    5    6 1
    12    5    7 1
    13    7   11 1
    14    7    8 2
    15    8    9 1
    16    9   10 2
    17    9   13 1
    18   10   11 1
    19   10   12 1
    20   12   38 1
    21   12   39 1
    22   12   40 1
    23   13   14 1
    24   13   41 1
    25   13   42 1
    26   14   15 1
    27   14   43 1
    28   14   44 1
    29   15   16 1
    30   16   21 ar
    31   16   17 ar
    32   17   18 ar
    33   17   45 1
    34   18   19 ar
    35   18   46 1
    36   19   20 ar
    37   19   22 1
    38   20   21 ar
    39   20   47 1
    40   21   48 1
    41   22   23 1
    42   22   49 1
    43   22   50 1
    44   23   28 1
    45   23   24 1
    46   23   51 1
    47   24   25 1
    48   24   52 1
    49   24   53 1
    50   25   26 1
    51   26   27 1
    52   26   29 1
    53   26   30 1
    54   27   28 1
    55   28   54 1
    56   28   55 1
    57   29   56 1
    58   29   57 1
    59   29   58 1
    60   30   31 2
    61   30   32 1
@<TRIPOS>MOLECULE
CHEMBL468159
   55    58     0     0     0
SMALL
USER_CHARGES

@<TRIPOS>ATOM
      1 C1         -0.0184    1.5028    0.0103 C.3       1 <0>        -0.0735
      2 C2          0.0021   -0.0041    0.0020 C.2       1 <0>        -0.1389
      3 C3         -1.0443   -0.8708    0.0018 C.2       1 <0>        -0.1707
      4 C4         -0.7974   -2.2239   -0.0066 C.2       1 <0>        -0.1059
      5 C5          0.5170   -2.6527   -0.0146 C.2       1 <0>        -0.1143
      6 S1          1.4071   -1.1049   -0.0179 S.3       1 <0>         0.1537
      7 C6          1.0442   -4.0251   -0.0239 C.2       1 <0>         0.2717
      8 N1          2.3161   -4.3599   -0.0260 N.2       1 <0>        -0.4457
      9 C7          2.4066   -5.6990   -0.0352 C.2       1 <0>        -0.0121
     10 C8          1.1577   -6.1975   -0.0389 C.2       1 <0>        -0.0052
     11 O1          0.3070   -5.1506   -0.0260 O.3       1 <0>        -0.1877
     12 C9          0.7785   -7.6560   -0.0497 C.3       1 <0>        -0.0732
     13 C10         3.6820   -6.5017   -0.0409 C.3       1 <0>         0.1454
     14 O2          4.0851   -6.7651    1.3045 O.3       1 <0>        -0.3116
     15 C11         5.2253   -7.4841    1.4774 C.ar      1 <0>         0.1185
     16 C12         5.9446   -7.9219    0.3749 C.ar      1 <0>        -0.2052
     17 C13         7.1036   -8.6521    0.5533 C.ar      1 <0>        -0.0700
     18 C14         7.5467   -8.9471    1.8294 C.ar      1 <0>        -0.1056
     19 C15         6.8314   -8.5122    2.9299 C.ar      1 <0>        -0.0801
     20 C16         5.6751   -7.7764    2.7568 C.ar      1 <0>        -0.1506
     21 C17         8.8111   -9.7443    2.0212 C.3       1 <0>        -0.0670
     22 C18        10.0066   -8.7928    2.1019 C.3       1 <0>        -0.1488
     23 C19        10.1916   -8.0854    0.7549 C.3       1 <0>         0.0507
     24 O3         10.5475   -9.0559   -0.2345 O.3       1 <0>        -0.3654
     25 C20        11.7349   -9.7884    0.0778 C.3       1 <0>         0.2072
     26 O4         11.5633  -10.4645    1.3258 O.3       1 <0>        -0.3569
     27 C21        11.2763   -9.5896    2.4211 C.3       1 <0>         0.0508
     28 C22        12.9178   -8.8233    0.1791 C.3       1 <0>        -0.1870
     29 C23        12.0022  -10.7985   -1.0081 C.2       1 <0>         0.5281
     30 O5         12.2686  -10.4236   -2.1372 O.co2     1 <0>        -0.6717
     31 O6         11.9521  -11.9907   -0.7575 O.co2     1 <0>        -0.6623
     32 H1          1.0042    1.8801    0.0026 H         1 <0>         0.0758
     33 H2         -0.5455    1.8639   -0.8728 H         1 <0>         0.0849
     34 H3         -0.5286    1.8543    0.9071 H         1 <0>         0.0849
     35 H4         -2.0590   -0.5012    0.0085 H         1 <0>         0.1407
     36 H5         -1.6108   -2.9343   -0.0066 H         1 <0>         0.1410
     37 H6          0.6872   -8.0153    0.9753 H         1 <0>         0.0933
     38 H7         -0.1742   -7.7799   -0.5644 H         1 <0>         0.0838
     39 H8          1.5485   -8.2277   -0.5678 H         1 <0>         0.0974
     40 H9          3.5155   -7.4447   -0.5616 H         1 <0>         0.0831
     41 H10         4.4636   -5.9383   -0.5507 H         1 <0>         0.0835
     42 H11         5.5985   -7.6924   -0.6221 H         1 <0>         0.1260
     43 H12         7.6639   -8.9932   -0.3046 H         1 <0>         0.1344
     44 H13         7.1794   -8.7442    3.9256 H         1 <0>         0.1267
     45 H14         5.1191   -7.4332    3.6168 H         1 <0>         0.1257
     46 H15         8.7415  -10.3194    2.9445 H         1 <0>         0.0696
     47 H16         8.9436  -10.4236    1.1791 H         1 <0>         0.0896
     48 H17         9.8329   -8.0537    2.8839 H         1 <0>         0.0793
     49 H18         9.2603   -7.5968    0.4684 H         1 <0>         0.0910
     50 H19        10.9845   -7.3422    0.8390 H         1 <0>         0.0458
     51 H20        12.1103   -8.9034    2.5682 H         1 <0>         0.0465
     52 H21        11.1208  -10.1768    3.3261 H         1 <0>         0.0890
     53 H22        12.7244   -8.0927    0.9645 H         1 <0>         0.0475
     54 H23        13.8230   -9.3818    0.4172 H         1 <0>         0.0662
     55 H24        13.0486   -8.3078   -0.7724 H         1 <0>         0.0775
@<TRIPOS>BOND
     1    1    2 1
     2    1   32 1
     3    1   33 1
     4    1   34 1
     5    2    6 1
     6    2    3 2
     7    3    4 1
     8    3   35 1
     9    4    5 2
    10    4   36 1
    11    5    6 1
    12    5    7 1
    13    7   11 1
    14    7    8 2
    15    8    9 1
    16    9   10 2
    17    9   13 1
    18   10   11 1
    19   10   12 1
    20   12   37 1
    21   12   38 1
    22   12   39 1
    23   13   14 1
    24   13   40 1
    25   13   41 1
    26   14   15 1
    27   15   20 ar
    28   15   16 ar
    29   16   17 ar
    30   16   42 1
    31   17   18 ar
    32   17   43 1
    33   18   19 ar
    34   18   21 1
    35   19   20 ar
    36   19   44 1
    37   20   45 1
    38   21   22 1
    39   21   46 1
    40   21   47 1
    41   22   27 1
    42   22   23 1
    43   22   48 1
    44   23   24 1
    45   23   49 1
    46   23   50 1
    47   24   25 1
    48   25   26 1
    49   25   28 1
    50   25   29 1
    51   26   27 1
    52   27   51 1
    53   27   52 1
    54   28   53 1
    55   28   54 1
    56   28   55 1
    57   29   30 2
    58   29   31 1
@<TRIPOS>MOLECULE
CHEMBL429824
   64    68     0     0     0
SMALL
USER_CHARGES

@<TRIPOS>ATOM
      1 C1          0.2807    1.7160    0.2068 C.3       1 <0>        -0.1475
      2 C2          0.0572    0.2097    0.0584 C.3       1 <0>        -0.1028
      3 C3          0.6721   -0.2699   -1.2579 C.3       1 <0>         0.0149
      4 C4          0.3464   -1.7269   -1.4631 C.2       1 <0>         0.4795
      5 O1         -0.8107   -2.0761   -1.6236 O.co2     1 <0>        -0.6919
      6 O2          1.2398   -2.5565   -1.4686 O.co2     1 <0>        -0.6734
      7 O3          2.0903   -0.1010   -1.2105 O.3       1 <0>        -0.2923
      8 C5          2.7368    0.0241   -2.3993 C.ar      1 <0>         0.1668
      9 C6          2.0380   -0.1221   -3.5891 C.ar      1 <0>        -0.1907
     10 C7          2.6973    0.0061   -4.7961 C.ar      1 <0>        -0.0800
     11 C8          4.0526    0.2798   -4.8194 C.ar      1 <0>        -0.1542
     12 C9          4.7512    0.4255   -3.6353 C.ar      1 <0>        -0.0879
     13 C10         4.0952    0.3039   -2.4254 C.ar      1 <0>        -0.1480
     14 C11         6.2281    0.7233   -3.6644 C.3       1 <0>         0.1658
     15 N1          6.4336    2.1738   -3.6792 N.pl3     1 <0>        -0.5564
     16 C12         6.5593    2.9087   -2.4181 C.3       1 <0>         0.1413
     17 C13         8.0311    2.9620   -2.0034 C.3       1 <0>        -0.1378
     18 C14         8.1624    3.7295   -0.6864 C.3       1 <0>         0.0627
     19 O4          9.5370    3.7793   -0.2991 O.3       1 <0>        -0.3065
     20 C15         9.8291    4.4306    0.8583 C.ar      1 <0>         0.1496
     21 C16         8.8118    5.0039    1.6068 C.ar      1 <0>        -0.1990
     22 C17         9.1064    5.6663    2.7836 C.ar      1 <0>        -0.0563
     23 C18        10.4183    5.7595    3.2187 C.ar      1 <0>        -0.0107
     24 C19        11.4413    5.1847    2.4689 C.ar      1 <0>         0.0730
     25 C20        11.1430    4.5163    1.2926 C.ar      1 <0>        -0.1370
     26 O5         12.6283    5.4122    3.1034 O.3       1 <0>        -0.3067
     27 C21        12.3690    6.4804    4.0333 C.3       1 <0>         0.2140
     28 O6         10.9650    6.3475    4.3238 O.3       1 <0>        -0.3089
     29 C22         6.5086    2.8461   -4.8780 C.2       1 <0>         0.5173
     30 N2          6.6950    4.1351   -5.0044 N.2       1 <0>        -0.5455
     31 C23         6.7144    4.4453   -6.3299 C.ar      1 <0>         0.0677
     32 C24         6.8744    5.6369   -7.0384 C.ar      1 <0>        -0.0856
     33 C25         6.8445    5.6221   -8.4157 C.ar      1 <0>        -0.1109
     34 C26         6.6561    4.4314   -9.1004 C.ar      1 <0>        -0.1191
     35 C27         6.4965    3.2459   -8.4118 C.ar      1 <0>        -0.0786
     36 C28         6.5245    3.2427   -7.0267 C.ar      1 <0>        -0.0114
     37 O7          6.4067    2.2733   -6.0902 O.3       1 <0>        -0.2284
     38 H1          1.3502    1.9263    0.2075 H         1 <0>         0.0551
     39 H2         -0.1915    2.2371   -0.6260 H         1 <0>         0.0481
     40 H3         -0.1574    2.0577    1.1446 H         1 <0>         0.0509
     41 H4          0.5294   -0.3115    0.8912 H         1 <0>         0.0668
     42 H5         -1.0123   -0.0006    0.0577 H         1 <0>         0.0840
     43 H6          0.2641    0.3134   -2.0833 H         1 <0>         0.0645
     44 H7          0.9796   -0.3362   -3.5715 H         1 <0>         0.1281
     45 H8          2.1539   -0.1080   -5.7224 H         1 <0>         0.1192
     46 H9          4.5663    0.3797   -5.7641 H         1 <0>         0.1152
     47 H10         4.6404    0.4222   -1.5007 H         1 <0>         0.1244
     48 H11         6.7020    0.2983   -2.7795 H         1 <0>         0.1010
     49 H12         6.6697    0.2846   -4.5591 H         1 <0>         0.0909
     50 H13         6.1819    3.9228   -2.5494 H         1 <0>         0.0949
     51 H14         5.9818    2.4035   -1.6440 H         1 <0>         0.0945
     52 H15         8.4085    1.9479   -1.8721 H         1 <0>         0.0795
     53 H16         8.6086    3.4673   -2.7775 H         1 <0>         0.0823
     54 H17         7.7850    4.7436   -0.8177 H         1 <0>         0.0703
     55 H18         7.5849    3.2243    0.0877 H         1 <0>         0.0705
     56 H19         7.7883    4.9329    1.2695 H         1 <0>         0.1456
     57 H20         8.3127    6.1122    3.3646 H         1 <0>         0.1397
     58 H21        11.9343    4.0659    0.7118 H         1 <0>         0.1438
     59 H22        12.9614    6.3518    4.9392 H         1 <0>         0.1317
     60 H23        12.5752    7.4469    3.5736 H         1 <0>         0.0843
     61 H24         7.0207    6.5669   -6.5092 H         1 <0>         0.1311
     62 H25         6.9682    6.5436   -8.9652 H         1 <0>         0.1320
     63 H26         6.6336    4.4316  -10.1802 H         1 <0>         0.1353
     64 H27         6.3498    2.3222   -8.9519 H         1 <0>         0.1308
@<TRIPOS>BOND
     1    1    2 1
     2    1   38 1
     3    1   39 1
     4    1   40 1
     5    2    3 1
     6    2   41 1
     7    2   42 1
     8    3    4 1
     9    3    7 1
    10    3   43 1
    11    4    5 2
    12    4    6 1
    13    7    8 1
    14    8   13 ar
    15    8    9 ar
    16    9   10 ar
    17    9   44 1
    18   10   11 ar
    19   10   45 1
    20   11   12 ar
    21   11   46 1
    22   12   13 ar
    23   12   14 1
    24   13   47 1
    25   14   15 1
    26   14   48 1
    27   14   49 1
    28   15   16 1
    29   15   29 1
    30   16   17 1
    31   16   50 1
    32   16   51 1
    33   17   18 1
    34   17   52 1
    35   17   53 1
    36   18   19 1
    37   18   54 1
    38   18   55 1
    39   19   20 1
    40   20   25 ar
    41   20   21 ar
    42   21   22 ar
    43   21   56 1
    44   22   23 ar
    45   22   57 1
    46   23   28 1
    47   23   24 ar
    48   24   25 ar
    49   24   26 1
    50   25   58 1
    51   26   27 1
    52   27   28 1
    53   27   59 1
    54   27   60 1
    55   29   37 1
    56   29   30 2
    57   30   31 1
    58   31   36 ar
    59   31   32 ar
    60   32   33 ar
    61   32   61 1
    62   33   34 ar
    63   33   62 1
    64   34   35 ar
    65   34   63 1
    66   35   36 ar
    67   35   64 1
    68   36   37 1
@<TRIPOS>MOLECULE
CHEMBL429824__1
   64    68     0     0     0
SMALL
USER_CHARGES

@<TRIPOS>ATOM
      1 C1         -1.8426   -2.2154   -1.4397 C.3       1 <0>        -0.1477
      2 C2         -2.0988   -0.7135   -1.2994 C.3       1 <0>        -0.1034
      3 C3         -1.4558    0.0255   -2.4746 C.3       1 <0>         0.0158
      4 C4         -1.8112    1.4882   -2.4033 C.2       1 <0>         0.4791
      5 O1         -0.9389    2.3191   -2.2157 O.co2     1 <0>        -0.6724
      6 O2         -2.9711    1.8408   -2.5331 O.co2     1 <0>        -0.6912
      7 O3         -0.0359   -0.1233   -2.4115 O.3       1 <0>        -0.2923
      8 C5          0.6500    0.0014   -3.5780 C.ar      1 <0>         0.1661
      9 C6          2.0148   -0.2466   -3.6116 C.ar      1 <0>        -0.1574
     10 C7          2.7096   -0.1197   -4.7986 C.ar      1 <0>        -0.0852
     11 C8          2.0462    0.2542   -5.9529 C.ar      1 <0>        -0.1550
     12 C9          0.6865    0.5023   -5.9220 C.ar      1 <0>        -0.0811
     13 C10        -0.0141    0.3712   -4.7383 C.ar      1 <0>        -0.1808
     14 C11        -0.0332    0.9101   -7.1816 C.3       1 <0>         0.1606
     15 N1         -0.5153   -0.2856   -7.8775 N.pl3     1 <0>        -0.5546
     16 C12        -1.8473   -0.8186   -7.5810 C.3       1 <0>         0.1404
     17 C13        -2.8739   -0.1739   -8.5145 C.3       1 <0>        -0.1373
     18 C14        -4.2650   -0.7306   -8.2049 C.3       1 <0>         0.0620
     19 O4         -5.2239   -0.1284   -9.0768 O.3       1 <0>        -0.3059
     20 C15        -6.5191   -0.5163   -8.9320 C.ar      1 <0>         0.1507
     21 C16        -6.8585   -1.4526   -7.9667 C.ar      1 <0>        -0.1980
     22 C17        -8.1745   -1.8483   -7.8178 C.ar      1 <0>        -0.0555
     23 C18        -9.1579   -1.3110   -8.6322 C.ar      1 <0>        -0.0117
     24 C19        -8.8194   -0.3709   -9.6022 C.ar      1 <0>         0.0723
     25 C20        -7.5007    0.0285   -9.7457 C.ar      1 <0>        -0.1369
     26 O5         -9.9536    0.0001  -10.2650 O.3       1 <0>        -0.3069
     27 C21       -10.9242   -1.0211   -9.9681 C.3       1 <0>         0.2141
     28 O6        -10.5052   -1.5292   -8.6877 O.3       1 <0>        -0.3090
     29 C22         0.2834   -0.9083   -8.8098 C.2       1 <0>         0.5191
     30 N2         -0.0505   -1.9748   -9.4905 N.2       1 <0>        -0.5463
     31 C23         0.9812   -2.3074  -10.3143 C.ar      1 <0>         0.0691
     32 C24         1.1809   -3.3283  -11.2445 C.ar      1 <0>        -0.0861
     33 C25         2.3688   -3.3973  -11.9387 C.ar      1 <0>        -0.1110
     34 C26         3.3657   -2.4593  -11.7180 C.ar      1 <0>        -0.1205
     35 C27         3.1809   -1.4446  -10.8008 C.ar      1 <0>        -0.0785
     36 C28         1.9922   -1.3602  -10.0943 C.ar      1 <0>        -0.0126
     37 O7          1.5182   -0.5061   -9.1582 O.3       1 <0>        -0.2289
     38 H1         -2.2758   -2.5722   -2.3741 H         1 <0>         0.0479
     39 H2         -0.7687   -2.4020   -1.4425 H         1 <0>         0.0554
     40 H3         -2.3007   -2.7419   -0.6024 H         1 <0>         0.0508
     41 H4         -3.1727   -0.5269   -1.2966 H         1 <0>         0.0841
     42 H5         -1.6656   -0.3567   -0.3650 H         1 <0>         0.0667
     43 H6         -1.8235   -0.3925   -3.4117 H         1 <0>         0.0621
     44 H7          2.5334   -0.5383   -2.7103 H         1 <0>         0.1253
     45 H8          3.7719   -0.3122   -4.8251 H         1 <0>         0.1223
     46 H9          2.5912    0.3529   -6.8800 H         1 <0>         0.1154
     47 H10        -1.0771    0.5607   -4.7156 H         1 <0>         0.1273
     48 H11        -0.8795    1.5478   -6.9263 H         1 <0>         0.1026
     49 H12         0.6511    1.4568   -7.8303 H         1 <0>         0.0913
     50 H13        -1.8481   -1.8983   -7.7303 H         1 <0>         0.0953
     51 H14        -2.1062   -0.5947   -6.5462 H         1 <0>         0.0937
     52 H15        -2.8731    0.9058   -8.3652 H         1 <0>         0.0808
     53 H16        -2.6150   -0.3978   -9.5494 H         1 <0>         0.0820
     54 H17        -4.2658   -1.8103   -8.3542 H         1 <0>         0.0699
     55 H18        -4.5239   -0.5067   -7.1700 H         1 <0>         0.0731
     56 H19        -6.0936   -1.8733   -7.3308 H         1 <0>         0.1458
     57 H20        -8.4364   -2.5778   -7.0657 H         1 <0>         0.1396
     58 H21        -7.2366    0.7608  -10.4943 H         1 <0>         0.1436
     59 H22       -11.9238   -0.5917   -9.9013 H         1 <0>         0.1310
     60 H23       -10.8942   -1.8087  -10.7211 H         1 <0>         0.0833
     61 H24         0.4074   -4.0616  -11.4192 H         1 <0>         0.1310
     62 H25         2.5246   -4.1869  -12.6589 H         1 <0>         0.1316
     63 H26         4.2933   -2.5233  -12.2673 H         1 <0>         0.1348
     64 H27         3.9621   -0.7177  -10.6338 H         1 <0>         0.1302
@<TRIPOS>BOND
     1    1    2 1
     2    1   38 1
     3    1   39 1
     4    1   40 1
     5    2    3 1
     6    2   41 1
     7    2   42 1
     8    3    4 1
     9    3    7 1
    10    3   43 1
    11    4    5 2
    12    4    6 1
    13    7    8 1
    14    8   13 ar
    15    8    9 ar
    16    9   10 ar
    17    9   44 1
    18   10   11 ar
    19   10   45 1
    20   11   12 ar
    21   11   46 1
    22   12   13 ar
    23   12   14 1
    24   13   47 1
    25   14   15 1
    26   14   48 1
    27   14   49 1
    28   15   16 1
    29   15   29 1
    30   16   17 1
    31   16   50 1
    32   16   51 1
    33   17   18 1
    34   17   52 1
    35   17   53 1
    36   18   19 1
    37   18   54 1
    38   18   55 1
    39   19   20 1
    40   20   25 ar
    41   20   21 ar
    42   21   22 ar
    43   21   56 1
    44   22   23 ar
    45   22   57 1
    46   23   28 1
    47   23   24 ar
    48   24   25 ar
    49   24   26 1
    50   25   58 1
    51   26   27 1
    52   27   28 1
    53   27   59 1
    54   27   60 1
    55   29   37 1
    56   29   30 2
    57   30   31 1
    58   31   36 ar
    59   31   32 ar
    60   32   33 ar
    61   32   61 1
    62   33   34 ar
    63   33   62 1
    64   34   35 ar
    65   34   63 1
    66   35   36 ar
    67   35   64 1
    68   36   37 1
@<TRIPOS>MOLECULE
CHEMBL367019
   59    62     0     0     0
SMALL
USER_CHARGES

@<TRIPOS>ATOM
      1 C1         -0.0187    1.5258    0.0104 C.3       1 <0>        -0.1514
      2 C2          0.0021   -0.0041    0.0020 C.3       1 <0>        -0.1165
      3 C3          0.7182   -0.4975   -1.2568 C.3       1 <0>        -0.0674
      4 C4          0.7386   -2.0043   -1.2651 C.ar      1 <0>        -0.1285
      5 C5          1.7874   -2.6879   -0.6752 C.ar      1 <0>         0.1949
      6 C6          1.8132   -4.0802   -0.6789 C.ar      1 <0>        -0.2252
      7 C7          0.8034   -4.7889   -1.2649 C.ar      1 <0>        -0.0029
      8 C8         -0.2620   -4.1157   -1.8639 C.ar      1 <0>        -0.2228
      9 C9         -0.2974   -2.7119   -1.8594 C.ar      1 <0>         0.1279
     10 O1         -1.4279   -2.3376   -2.4927 O.3       1 <0>        -0.0833
     11 N1         -2.1386   -3.4862   -2.9085 N.2       1 <0>        -0.2858
     12 C10        -1.4782   -4.5594   -2.5636 C.2       1 <0>         0.1824
     13 C11        -1.8857   -5.9626   -2.8160 C.ar      1 <0>        -0.0408
     14 C12        -0.9213   -6.9362   -3.0707 C.ar      1 <0>        -0.0859
     15 C13        -1.3065   -8.2406   -3.3049 C.ar      1 <0>        -0.1191
     16 C14        -2.6468   -8.5825   -3.2873 C.ar      1 <0>        -0.0993
     17 C15        -3.6083   -7.6205   -3.0351 C.ar      1 <0>        -0.1200
     18 C16        -3.2344   -6.3141   -2.7938 C.ar      1 <0>        -0.0815
     19 O2          2.7988   -1.9961   -0.0890 O.3       1 <0>        -0.2974
     20 C17         3.8511   -2.7613    0.5018 C.3       1 <0>         0.0616
     21 C18         4.8908   -1.8162    1.1074 C.3       1 <0>        -0.1007
     22 C19         6.0176   -2.6355    1.7400 C.3       1 <0>        -0.1170
     23 S1          7.2503   -1.5150    2.4580 S.3       1 <0>        -0.0911
     24 C20         8.4646   -2.5961    3.1373 C.ar      1 <0>        -0.1055
     25 C21         8.3120   -3.9726    3.0258 C.ar      1 <0>        -0.1174
     26 C22         9.2658   -4.8171    3.5589 C.ar      1 <0>        -0.0944
     27 C23        10.3722   -4.2946    4.2038 C.ar      1 <0>        -0.0044
     28 C24        10.5280   -2.9252    4.3175 C.ar      1 <0>        -0.0905
     29 C25         9.5808   -2.0737    3.7812 C.ar      1 <0>        -0.0096
     30 Cl1         9.7807   -0.3547    3.9173 Cl        1 <0>        -0.0679
     31 C26        11.4103   -5.2199    4.7844 C.3       1 <0>        -0.1609
     32 C27        12.4642   -5.5070    3.7462 C.2       1 <0>         0.4972
     33 O3         12.3802   -5.0067    2.6376 O.co2     1 <0>        -0.6854
     34 O4         13.4010   -6.2397    4.0150 O.co2     1 <0>        -0.6983
     35 H1          1.0039    1.9031    0.0027 H         1 <0>         0.0564
     36 H2         -0.5459    1.8868   -0.8726 H         1 <0>         0.0536
     37 H3         -0.5289    1.8773    0.9072 H         1 <0>         0.0541
     38 H4          0.5293   -0.3651    0.8851 H         1 <0>         0.0643
     39 H5         -1.0205   -0.3814    0.0098 H         1 <0>         0.0586
     40 H6          0.1910   -0.1364   -2.1398 H         1 <0>         0.0728
     41 H7          1.7408   -0.1202   -1.2645 H         1 <0>         0.0830
     42 H8          2.6370   -4.6028   -0.2158 H         1 <0>         0.1436
     43 H9          0.8297   -5.8686   -1.2650 H         1 <0>         0.1378
     44 H10         0.1254   -6.6703   -3.0850 H         1 <0>         0.1305
     45 H11        -0.5602   -8.9957   -3.5027 H         1 <0>         0.1325
     46 H12        -2.9437   -9.6044   -3.4715 H         1 <0>         0.1290
     47 H13        -4.6532   -7.8931   -3.0229 H         1 <0>         0.1310
     48 H14        -3.9856   -5.5648   -2.5922 H         1 <0>         0.1300
     49 H15         3.4410   -3.3997    1.2843 H         1 <0>         0.0709
     50 H16         4.3233   -3.3798   -0.2614 H         1 <0>         0.0716
     51 H17         5.3010   -1.1778    0.3249 H         1 <0>         0.0877
     52 H18         4.4187   -1.1977    1.8707 H         1 <0>         0.0870
     53 H19         5.6074   -3.2739    2.5225 H         1 <0>         0.0901
     54 H20         6.4897   -3.2540    0.9768 H         1 <0>         0.0916
     55 H21         7.4481   -4.3818    2.5231 H         1 <0>         0.1239
     56 H22         9.1475   -5.8871    3.4724 H         1 <0>         0.1259
     57 H23        11.3930   -2.5207    4.8220 H         1 <0>         0.1324
     58 H24        11.8732   -4.7483    5.6513 H         1 <0>         0.0741
     59 H25        10.9360   -6.1530    5.0884 H         1 <0>         0.0743
@<TRIPOS>BOND
     1    1    2 1
     2    1   35 1
     3    1   36 1
     4    1   37 1
     5    2    3 1
     6    2   38 1
     7    2   39 1
     8    3    4 1
     9    3   40 1
    10    3   41 1
    11    4    9 ar
    12    4    5 ar
    13    5    6 ar
    14    5   19 1
    15    6    7 ar
    16    6   42 1
    17    7    8 ar
    18    7   43 1
    19    8   12 1
    20    8    9 ar
    21    9   10 1
    22   10   11 1
    23   11   12 2
    24   12   13 1
    25   13   18 ar
    26   13   14 ar
    27   14   15 ar
    28   14   44 1
    29   15   16 ar
    30   15   45 1
    31   16   17 ar
    32   16   46 1
    33   17   18 ar
    34   17   47 1
    35   18   48 1
    36   19   20 1
    37   20   21 1
    38   20   49 1
    39   20   50 1
    40   21   22 1
    41   21   51 1
    42   21   52 1
    43   22   23 1
    44   22   53 1
    45   22   54 1
    46   23   24 1
    47   24   29 ar
    48   24   25 ar
    49   25   26 ar
    50   25   55 1
    51   26   27 ar
    52   26   56 1
    53   27   28 ar
    54   27   31 1
    55   28   29 ar
    56   28   57 1
    57   29   30 1
    58   31   32 1
    59   31   58 1
    60   31   59 1
    61   32   33 2
    62   32   34 1
@<TRIPOS>MOLECULE
CHEMBL117738
   67    70     0     0     0
SMALL
USER_CHARGES

@<TRIPOS>ATOM
      1 C1         -0.6840    1.6279    0.0801 C.3       1 <0>        -0.1526
      2 C2         -0.4262    0.1223   -0.0084 C.3       1 <0>        -0.1160
      3 C3         -1.7438   -0.6325    0.1790 C.3       1 <0>        -0.0719
      4 C4         -1.4900   -2.1154    0.0918 C.ar      1 <0>        -0.1094
      5 C5         -1.6581   -2.7733   -1.1082 C.ar      1 <0>        -0.0703
      6 C6         -1.4227   -4.1466   -1.1879 C.ar      1 <0>        -0.0823
      7 C7         -1.0178   -4.8488   -0.0515 C.ar      1 <0>        -0.0766
      8 C8         -0.8519   -4.1841    1.1445 C.ar      1 <0>        -0.2077
      9 C9         -1.0816   -2.8164    1.2185 C.ar      1 <0>         0.1315
     10 O1         -0.9117   -2.1636    2.3979 O.3       1 <0>        -0.3064
     11 C10        -0.4902   -2.9455    3.5173 C.3       1 <0>         0.0639
     12 C11        -0.3541   -2.0446    4.7464 C.3       1 <0>        -0.1198
     13 C12         0.0973   -2.8817    5.9449 C.3       1 <0>         0.0636
     14 O2          0.2244   -2.0403    7.0929 O.3       1 <0>        -0.3080
     15 C13         0.6201   -2.6318    8.2507 C.ar      1 <0>         0.1360
     16 C14         0.8862   -3.9932    8.2798 C.ar      1 <0>        -0.1913
     17 C15         1.2886   -4.5920    9.4577 C.ar      1 <0>        -0.0708
     18 C16         1.4264   -3.8357   10.6072 C.ar      1 <0>        -0.1323
     19 C17         1.1614   -2.4792   10.5809 C.ar      1 <0>        -0.0409
     20 C18         0.7641   -1.8744    9.4038 C.ar      1 <0>        -0.1186
     21 C19         1.3121   -1.6581   11.8356 C.3       1 <0>        -0.0338
     22 C20         2.6770   -1.8700   12.4756 C.2       1 <0>         0.5343
     23 O3          3.7096   -1.5780   11.9115 O.2       1 <0>        -0.4481
     24 N1          2.6585   -2.3949   13.6892 N.am      1 <0>        -0.6896
     25 C21         1.5263   -2.7279   14.3364 C.2       1 <0>         0.5628
     26 O4          1.4115   -3.2120   15.4457 O.2       1 <0>        -0.4136
     27 S1          0.2314   -2.2919   13.1849 S.3       1 <0>        -0.1361
     28 C22        -1.6022   -4.8556   -2.4720 C.2       1 <0>        -0.1263
     29 C23        -2.0734   -6.0949   -2.4848 C.2       1 <0>        -0.1052
     30 C24        -2.6161   -6.7315   -1.2245 C.3       1 <0>        -0.0973
     31 C25        -4.0068   -7.3000   -1.5258 C.3       1 <0>        -0.1169
     32 C26        -3.9199   -8.2475   -2.7235 C.3       1 <0>        -0.1215
     33 C27        -3.4925   -7.4702   -3.9696 C.3       1 <0>        -0.1179
     34 C28        -2.0878   -6.9061   -3.7615 C.3       1 <0>        -0.0841
     35 H1          0.2547    2.1656   -0.0534 H         1 <0>         0.0540
     36 H2         -1.3859    1.9228   -0.6999 H         1 <0>         0.0534
     37 H3         -1.1043    1.8677    1.0568 H         1 <0>         0.0547
     38 H4         -0.0059   -0.1175   -0.9851 H         1 <0>         0.0597
     39 H5          0.2757   -0.1726    0.7716 H         1 <0>         0.0631
     40 H6         -2.1642   -0.3927    1.1557 H         1 <0>         0.0754
     41 H7         -2.4457   -0.3375   -0.6010 H         1 <0>         0.0697
     42 H8         -1.9718   -2.2266   -1.9852 H         1 <0>         0.1293
     43 H9         -0.8351   -5.9117   -0.1092 H         1 <0>         0.1293
     44 H10        -0.5390   -4.7267    2.0243 H         1 <0>         0.1272
     45 H11        -1.2282   -3.7225    3.7163 H         1 <0>         0.0658
     46 H12         0.4724   -3.4067    3.2965 H         1 <0>         0.0659
     47 H13         0.3840   -1.2675    4.5474 H         1 <0>         0.0882
     48 H14        -1.3167   -1.5834    4.9672 H         1 <0>         0.0881
     49 H15        -0.6408   -3.6587    6.1439 H         1 <0>         0.0685
     50 H16         1.0599   -3.3429    5.7241 H         1 <0>         0.0684
     51 H17         0.7783   -4.5843    7.3824 H         1 <0>         0.1337
     52 H18         1.4955   -5.6517    9.4810 H         1 <0>         0.1337
     53 H19         1.7412   -4.3057   11.5272 H         1 <0>         0.1208
     54 H20         0.5615   -0.8138    9.3827 H         1 <0>         0.1406
     55 H21         1.1245   -0.6024   11.6399 H         1 <0>         0.1697
     56 H22         3.5055   -2.5483   14.1364 H         1 <0>         0.4203
     57 H23        -1.3496   -4.3643   -3.4000 H         1 <0>         0.1188
     58 H24        -1.9530   -7.5358   -0.9058 H         1 <0>         0.0708
     59 H25        -2.6900   -5.9808   -0.4377 H         1 <0>         0.0824
     60 H26        -4.3726   -7.8459   -0.6562 H         1 <0>         0.0637
     61 H27        -4.6910   -6.4836   -1.7570 H         1 <0>         0.0626
     62 H28        -3.1888   -9.0286   -2.5152 H         1 <0>         0.0620
     63 H29        -4.8951   -8.7024   -2.8970 H         1 <0>         0.0620
     64 H30        -3.4938   -8.1368   -4.8320 H         1 <0>         0.0643
     65 H31        -4.1888   -6.6498   -4.1430 H         1 <0>         0.0628
     66 H32        -1.8224   -6.2675   -4.6041 H         1 <0>         0.0691
     67 H33        -1.3749   -7.7268   -3.6819 H         1 <0>         0.0752
@<TRIPOS>BOND
     1    1    2 1
     2    1   35 1
     3    1   36 1
     4    1   37 1
     5    2    3 1
     6    2   38 1
     7    2   39 1
     8    3    4 1
     9    3   40 1
    10    3   41 1
    11    4    9 ar
    12    4    5 ar
    13    5    6 ar
    14    5   42 1
    15    6    7 ar
    16    6   28 1
    17    7    8 ar
    18    7   43 1
    19    8    9 ar
    20    8   44 1
    21    9   10 1
    22   10   11 1
    23   11   12 1
    24   11   45 1
    25   11   46 1
    26   12   13 1
    27   12   47 1
    28   12   48 1
    29   13   14 1
    30   13   49 1
    31   13   50 1
    32   14   15 1
    33   15   20 ar
    34   15   16 ar
    35   16   17 ar
    36   16   51 1
    37   17   18 ar
    38   17   52 1
    39   18   19 ar
    40   18   53 1
    41   19   20 ar
    42   19   21 1
    43   20   54 1
    44   21   27 1
    45   21   22 1
    46   21   55 1
    47   22   23 2
    48   22   24 am
    49   24   25 am
    50   24   56 1
    51   25   26 2
    52   25   27 1
    53   28   29 2
    54   28   57 1
    55   29   34 1
    56   29   30 1
    57   30   31 1
    58   30   58 1
    59   30   59 1
    60   31   32 1
    61   31   60 1
    62   31   61 1
    63   32   33 1
    64   32   62 1
    65   32   63 1
    66   33   34 1
    67   33   64 1
    68   33   65 1
    69   34   66 1
    70   34   67 1
@<TRIPOS>MOLECULE
CHEMBL117738__1
   67    70     0     0     0
SMALL
USER_CHARGES

@<TRIPOS>ATOM
      1 C1         -0.6840    1.6279    0.0801 C.3       1 <0>        -0.1526
      2 C2         -0.4262    0.1223   -0.0084 C.3       1 <0>        -0.1159
      3 C3         -1.7438   -0.6325    0.1790 C.3       1 <0>        -0.0719
      4 C4         -1.4900   -2.1154    0.0918 C.ar      1 <0>        -0.1094
      5 C5         -1.6581   -2.7733   -1.1082 C.ar      1 <0>        -0.0703
      6 C6         -1.4227   -4.1466   -1.1879 C.ar      1 <0>        -0.0823
      7 C7         -1.0178   -4.8488   -0.0515 C.ar      1 <0>        -0.0766
      8 C8         -0.8519   -4.1841    1.1445 C.ar      1 <0>        -0.2077
      9 C9         -1.0816   -2.8164    1.2185 C.ar      1 <0>         0.1315
     10 O1         -0.9117   -2.1636    2.3979 O.3       1 <0>        -0.3064
     11 C10        -0.4902   -2.9455    3.5173 C.3       1 <0>         0.0639
     12 C11        -0.3541   -2.0446    4.7464 C.3       1 <0>        -0.1198
     13 C12         0.0973   -2.8817    5.9449 C.3       1 <0>         0.0636
     14 O2          0.2244   -2.0403    7.0929 O.3       1 <0>        -0.3080
     15 C13         0.6201   -2.6318    8.2507 C.ar      1 <0>         0.1361
     16 C14         0.8862   -3.9932    8.2798 C.ar      1 <0>        -0.1914
     17 C15         1.2886   -4.5920    9.4577 C.ar      1 <0>        -0.0707
     18 C16         1.4264   -3.8357   10.6072 C.ar      1 <0>        -0.1323
     19 C17         1.1614   -2.4792   10.5809 C.ar      1 <0>        -0.0408
     20 C18         0.7641   -1.8744    9.4038 C.ar      1 <0>        -0.1187
     21 C19         1.3121   -1.6581   11.8356 C.3       1 <0>        -0.0337
     22 C20         0.5465   -2.2760   12.9972 C.2       1 <0>         0.5343
     23 O3         -0.6583   -2.4103   12.9808 O.2       1 <0>        -0.4482
     24 N1          1.2862   -2.6564   14.0251 N.am      1 <0>        -0.6896
     25 C21         2.6244   -2.5187   14.0676 C.2       1 <0>         0.5629
     26 O4          3.3829   -2.8370   14.9628 O.2       1 <0>        -0.4136
     27 S1          3.0262   -1.7593   12.5007 S.3       1 <0>        -0.1365
     28 C22        -1.6022   -4.8556   -2.4720 C.2       1 <0>        -0.1263
     29 C23        -2.0734   -6.0949   -2.4848 C.2       1 <0>        -0.1052
     30 C24        -2.6161   -6.7315   -1.2245 C.3       1 <0>        -0.0974
     31 C25        -4.0068   -7.3000   -1.5258 C.3       1 <0>        -0.1169
     32 C26        -3.9199   -8.2475   -2.7235 C.3       1 <0>        -0.1215
     33 C27        -3.4925   -7.4702   -3.9696 C.3       1 <0>        -0.1179
     34 C28        -2.0878   -6.9061   -3.7615 C.3       1 <0>        -0.0841
     35 H1          0.2547    2.1656   -0.0534 H         1 <0>         0.0540
     36 H2         -1.3859    1.9228   -0.6999 H         1 <0>         0.0534
     37 H3         -1.1043    1.8677    1.0568 H         1 <0>         0.0546
     38 H4         -0.0059   -0.1175   -0.9851 H         1 <0>         0.0597
     39 H5          0.2757   -0.1726    0.7716 H         1 <0>         0.0631
     40 H6         -2.1642   -0.3927    1.1557 H         1 <0>         0.0753
     41 H7         -2.4457   -0.3375   -0.6010 H         1 <0>         0.0697
     42 H8         -1.9718   -2.2266   -1.9852 H         1 <0>         0.1293
     43 H9         -0.8351   -5.9117   -0.1092 H         1 <0>         0.1293
     44 H10        -0.5390   -4.7267    2.0243 H         1 <0>         0.1272
     45 H11        -1.2282   -3.7225    3.7163 H         1 <0>         0.0657
     46 H12         0.4724   -3.4067    3.2965 H         1 <0>         0.0660
     47 H13         0.3840   -1.2675    4.5474 H         1 <0>         0.0882
     48 H14        -1.3167   -1.5834    4.9672 H         1 <0>         0.0881
     49 H15        -0.6408   -3.6587    6.1439 H         1 <0>         0.0683
     50 H16         1.0599   -3.3429    5.7241 H         1 <0>         0.0685
     51 H17         0.7783   -4.5843    7.3824 H         1 <0>         0.1337
     52 H18         1.4955   -5.6517    9.4810 H         1 <0>         0.1337
     53 H19         1.7412   -4.3057   11.5272 H         1 <0>         0.1208
     54 H20         0.5615   -0.8138    9.3827 H         1 <0>         0.1406
     55 H21         1.0124   -0.6237   11.6674 H         1 <0>         0.1697
     56 H22         0.8409   -3.0555   14.7889 H         1 <0>         0.4203
     57 H23        -1.3496   -4.3643   -3.4000 H         1 <0>         0.1189
     58 H24        -1.9530   -7.5358   -0.9058 H         1 <0>         0.0708
     59 H25        -2.6900   -5.9808   -0.4377 H         1 <0>         0.0824
     60 H26        -4.3726   -7.8459   -0.6562 H         1 <0>         0.0637
     61 H27        -4.6910   -6.4836   -1.7570 H         1 <0>         0.0626
     62 H28        -3.1888   -9.0286   -2.5152 H         1 <0>         0.0620
     63 H29        -4.8951   -8.7024   -2.8970 H         1 <0>         0.0620
     64 H30        -3.4938   -8.1368   -4.8320 H         1 <0>         0.0643
     65 H31        -4.1888   -6.6498   -4.1430 H         1 <0>         0.0628
     66 H32        -1.8224   -6.2675   -4.6041 H         1 <0>         0.0692
     67 H33        -1.3749   -7.7268   -3.6819 H         1 <0>         0.0753
@<TRIPOS>BOND
     1    1    2 1
     2    1   35 1
     3    1   36 1
     4    1   37 1
     5    2    3 1
     6    2   38 1
     7    2   39 1
     8    3    4 1
     9    3   40 1
    10    3   41 1
    11    4    9 ar
    12    4    5 ar
    13    5    6 ar
    14    5   42 1
    15    6    7 ar
    16    6   28 1
    17    7    8 ar
    18    7   43 1
    19    8    9 ar
    20    8   44 1
    21    9   10 1
    22   10   11 1
    23   11   12 1
    24   11   45 1
    25   11   46 1
    26   12   13 1
    27   12   47 1
    28   12   48 1
    29   13   14 1
    30   13   49 1
    31   13   50 1
    32   14   15 1
    33   15   20 ar
    34   15   16 ar
    35   16   17 ar
    36   16   51 1
    37   17   18 ar
    38   17   52 1
    39   18   19 ar
    40   18   53 1
    41   19   20 ar
    42   19   21 1
    43   20   54 1
    44   21   27 1
    45   21   22 1
    46   21   55 1
    47   22   23 2
    48   22   24 am
    49   24   25 am
    50   24   56 1
    51   25   26 2
    52   25   27 1
    53   28   29 2
    54   28   57 1
    55   29   34 1
    56   29   30 1
    57   30   31 1
    58   30   58 1
    59   30   59 1
    60   31   32 1
    61   31   60 1
    62   31   61 1
    63   32   33 1
    64   32   62 1
    65   32   63 1
    66   33   34 1
    67   33   64 1
    68   33   65 1
    69   34   66 1
    70   34   67 1
@<TRIPOS>MOLECULE
CHEMBL572565
   45    47     0     0     0
SMALL
USER_CHARGES

@<TRIPOS>ATOM
      1 C1          7.3630   -4.6623    1.4087 C.ar      1 <0>        -0.1335
      2 C2          6.3357   -5.5849    1.3433 C.ar      1 <0>        -0.1233
      3 C3          5.0698   -5.1838    0.9592 C.ar      1 <0>        -0.1202
      4 C4          4.8312   -3.8599    0.6409 C.ar      1 <0>        -0.0690
      5 C5          5.8582   -2.9371    0.7071 C.ar      1 <0>        -0.1030
      6 C6          7.1244   -3.3385    1.0899 C.ar      1 <0>        -0.1226
      7 C7          3.4514   -3.4228    0.2212 C.3       1 <0>        -0.0637
      8 C8          2.6514   -3.0038    1.4562 C.3       1 <0>         0.0248
      9 C9          1.2351   -2.6840    1.0527 C.2       1 <0>         0.4801
     10 O1          0.5131   -3.5630    0.6137 O.co2     1 <0>        -0.6914
     11 O2          0.8113   -1.5464    1.1651 O.co2     1 <0>        -0.6700
     12 O3          3.2521   -1.8476    2.0431 O.3       1 <0>        -0.2910
     13 C10         3.0274   -1.6404    3.3681 C.ar      1 <0>         0.1375
     14 C11         3.6667   -0.5998    4.0255 C.ar      1 <0>        -0.1273
     15 C12         3.4385   -0.3894    5.3715 C.ar      1 <0>        -0.1114
     16 C13         2.5698   -1.2185    6.0655 C.ar      1 <0>         0.0687
     17 C14         1.9298   -2.2585    5.4079 C.ar      1 <0>        -0.1636
     18 C15         2.1547   -2.4663    4.0610 C.ar      1 <0>        -0.1628
     19 O4          2.3458   -1.0119    7.3908 O.3       1 <0>        -0.3131
     20 C16         1.4392   -1.9038    8.0423 C.3       1 <0>         0.1005
     21 C17         1.3172   -1.5232    9.4953 C.ar      1 <0>        -0.0889
     22 C18         2.1753   -2.0743   10.4286 C.ar      1 <0>        -0.0965
     23 C19         2.0634   -1.7252   11.7614 C.ar      1 <0>        -0.1251
     24 C20         1.0937   -0.8247   12.1610 C.ar      1 <0>        -0.1149
     25 C21         0.2362   -0.2729   11.2276 C.ar      1 <0>        -0.1242
     26 C22         0.3509   -0.6188    9.8941 C.ar      1 <0>        -0.0956
     27 H1          8.3510   -4.9748    1.7131 H         1 <0>         0.1150
     28 H2          6.5222   -6.6192    1.5920 H         1 <0>         0.1167
     29 H3          4.2674   -5.9048    0.9075 H         1 <0>         0.1209
     30 H4          5.6719   -1.9029    0.4580 H         1 <0>         0.1230
     31 H5          7.9270   -2.6176    1.1412 H         1 <0>         0.1171
     32 H6          3.5303   -2.5789   -0.4641 H         1 <0>         0.0784
     33 H7          2.9443   -4.2492   -0.2770 H         1 <0>         0.0953
     34 H8          2.6477   -3.8185    2.1803 H         1 <0>         0.0643
     35 H9          4.3431    0.0458    3.4851 H         1 <0>         0.1319
     36 H10         3.9368    0.4205    5.8835 H         1 <0>         0.1296
     37 H11         1.2537   -2.9043    5.9484 H         1 <0>         0.1227
     38 H12         1.6535   -3.2739    3.5481 H         1 <0>         0.1293
     39 H13         0.4608   -1.8390    7.5663 H         1 <0>         0.0693
     40 H14         1.8144   -2.9242    7.9642 H         1 <0>         0.0677
     41 H15         2.9329   -2.7778   10.1164 H         1 <0>         0.1241
     42 H16         2.7334   -2.1562   12.4906 H         1 <0>         0.1232
     43 H17         1.0058   -0.5525   13.2024 H         1 <0>         0.1218
     44 H18        -0.5217    0.4303   11.5398 H         1 <0>         0.1238
     45 H19        -0.3167   -0.1849    9.1644 H         1 <0>         0.1254
@<TRIPOS>BOND
     1    1    6 ar
     2    1    2 ar
     3    1   27 1
     4    2    3 ar
     5    2   28 1
     6    3    4 ar
     7    3   29 1
     8    4    5 ar
     9    4    7 1
    10    5    6 ar
    11    5   30 1
    12    6   31 1
    13    7    8 1
    14    7   32 1
    15    7   33 1
    16    8    9 1
    17    8   12 1
    18    8   34 1
    19    9   10 2
    20    9   11 1
    21   12   13 1
    22   13   18 ar
    23   13   14 ar
    24   14   15 ar
    25   14   35 1
    26   15   16 ar
    27   15   36 1
    28   16   17 ar
    29   16   19 1
    30   17   18 ar
    31   17   37 1
    32   18   38 1
    33   19   20 1
    34   20   21 1
    35   20   39 1
    36   20   40 1
    37   21   26 ar
    38   21   22 ar
    39   22   23 ar
    40   22   41 1
    41   23   24 ar
    42   23   42 1
    43   24   25 ar
    44   24   43 1
    45   25   26 ar
    46   25   44 1
    47   26   45 1
@<TRIPOS>MOLECULE
CHEMBL572565__1
   45    47     0     0     0
SMALL
USER_CHARGES

@<TRIPOS>ATOM
      1 C1          9.0056   -1.2813    0.6379 C.ar      1 <0>        -0.1335
      2 C2          7.7684   -1.8821    0.4992 C.ar      1 <0>        -0.1225
      3 C3          6.6407   -1.1060    0.3073 C.ar      1 <0>        -0.1030
      4 C4          6.7502    0.2710    0.2547 C.ar      1 <0>        -0.0690
      5 C5          7.9873    0.8719    0.3943 C.ar      1 <0>        -0.1202
      6 C6          9.1151    0.0957    0.5848 C.ar      1 <0>        -0.1233
      7 C7          5.5210    1.1171    0.0446 C.3       1 <0>        -0.0636
      8 C8          4.9092    1.4736    1.4009 C.3       1 <0>         0.0249
      9 C9          3.7536    2.4192    1.1978 C.2       1 <0>         0.4800
     10 O1          2.6213    2.0683    1.4832 O.co2     1 <0>        -0.6701
     11 O2          3.9508    3.5352    0.7481 O.co2     1 <0>        -0.6913
     12 O3          4.4442    0.2837    2.0412 O.3       1 <0>        -0.2910
     13 C10         4.3513    0.3086    3.3976 C.ar      1 <0>         0.1378
     14 C11         4.0203   -0.8459    4.0913 C.ar      1 <0>        -0.1275
     15 C12         3.9259   -0.8207    5.4692 C.ar      1 <0>        -0.1114
     16 C13         4.1624    0.3591    6.1590 C.ar      1 <0>         0.0686
     17 C14         4.4942    1.5134    5.4654 C.ar      1 <0>        -0.1635
     18 C15         4.5929    1.4871    4.0878 C.ar      1 <0>        -0.1629
     19 O4          4.0685    0.3842    7.5154 O.3       1 <0>        -0.3131
     20 C16         4.3252    1.6332    8.1604 C.3       1 <0>         0.1004
     21 C17         4.1754    1.4689    9.6509 C.ar      1 <0>        -0.0889
     22 C18         2.9452    1.6707   10.2483 C.ar      1 <0>        -0.0955
     23 C19         2.8077    1.5200   11.6155 C.ar      1 <0>        -0.1242
     24 C20         3.9003    1.1671   12.3853 C.ar      1 <0>        -0.1148
     25 C21         5.1303    0.9645   11.7878 C.ar      1 <0>        -0.1252
     26 C22         5.2668    1.1110   10.4201 C.ar      1 <0>        -0.0965
     27 H1          9.8860   -1.8875    0.7923 H         1 <0>         0.1150
     28 H2          7.6829   -2.9580    0.5403 H         1 <0>         0.1171
     29 H3          5.6742   -1.5754    0.1982 H         1 <0>         0.1230
     30 H4          8.0729    1.9477    0.3529 H         1 <0>         0.1209
     31 H5         10.0817    0.5651    0.6935 H         1 <0>         0.1167
     32 H6          5.7948    2.0313   -0.4821 H         1 <0>         0.0953
     33 H7          4.7938    0.5609   -0.5471 H         1 <0>         0.0784
     34 H8          5.6640    1.9512    2.0256 H         1 <0>         0.0643
     35 H9          3.8361   -1.7646    3.5542 H         1 <0>         0.1319
     36 H10         3.6675   -1.7195    6.0093 H         1 <0>         0.1296
     37 H11         4.6781    2.4322    6.0025 H         1 <0>         0.1228
     38 H12         4.8549    2.3851    3.5480 H         1 <0>         0.1293
     39 H13         5.3398    1.9589    7.9310 H         1 <0>         0.0677
     40 H14         3.6149    2.3791    7.8039 H         1 <0>         0.0693
     41 H15         2.0916    1.9464    9.6469 H         1 <0>         0.1254
     42 H16         1.8467    1.6783   12.0823 H         1 <0>         0.1238
     43 H17         3.7930    1.0500   13.4536 H         1 <0>         0.1218
     44 H18         5.9840    0.6891   12.3893 H         1 <0>         0.1232
     45 H19         6.2269    0.9490    9.9528 H         1 <0>         0.1241
@<TRIPOS>BOND
     1    1    6 ar
     2    1    2 ar
     3    1   27 1
     4    2    3 ar
     5    2   28 1
     6    3    4 ar
     7    3   29 1
     8    4    5 ar
     9    4    7 1
    10    5    6 ar
    11    5   30 1
    12    6   31 1
    13    7    8 1
    14    7   32 1
    15    7   33 1
    16    8    9 1
    17    8   12 1
    18    8   34 1
    19    9   10 2
    20    9   11 1
    21   12   13 1
    22   13   18 ar
    23   13   14 ar
    24   14   15 ar
    25   14   35 1
    26   15   16 ar
    27   15   36 1
    28   16   17 ar
    29   16   19 1
    30   17   18 ar
    31   17   37 1
    32   18   38 1
    33   19   20 1
    34   20   21 1
    35   20   39 1
    36   20   40 1
    37   21   26 ar
    38   21   22 ar
    39   22   23 ar
    40   22   41 1
    41   23   24 ar
    42   23   42 1
    43   24   25 ar
    44   24   43 1
    45   25   26 ar
    46   25   44 1
    47   26   45 1
@<TRIPOS>MOLECULE
CHEMBL81676
   70    74     0     0     0
SMALL
USER_CHARGES

@<TRIPOS>ATOM
      1 C1         -0.3907    1.3597    0.7388 C.3       1 <0>        -0.0720
      2 C2         -0.2592   -0.1324    0.5738 C.2       1 <0>        -0.0315
      3 C3         -1.2679   -1.0114    0.4322 C.2       1 <0>        -0.0061
      4 N1         -0.7326   -2.2358    0.3134 N.2       1 <0>        -0.4566
      5 C4          0.5737   -2.1306    0.3784 C.2       1 <0>         0.2289
      6 O1          0.8911   -0.8337    0.5348 O.3       1 <0>        -0.1933
      7 C5          1.5354   -3.2500    0.2890 C.ar      1 <0>        -0.0113
      8 C6          1.0745   -4.5566    0.1147 C.ar      1 <0>        -0.0684
      9 C7          1.9721   -5.6018    0.0312 C.ar      1 <0>        -0.1148
     10 C8          3.3299   -5.3626    0.1194 C.ar      1 <0>        -0.0918
     11 C9          3.8024   -4.0625    0.2930 C.ar      1 <0>        -0.0467
     12 C10         2.9044   -3.0032    0.3727 C.ar      1 <0>        -0.0816
     13 C11         5.2616   -3.8086    0.3874 C.ar      1 <0>        -0.0453
     14 C12         5.7352   -2.5106    0.5667 C.ar      1 <0>        -0.1105
     15 C13         7.0932   -2.2802    0.6544 C.ar      1 <0>        -0.1164
     16 C14         7.9834   -3.3349    0.5641 C.ar      1 <0>        -0.1182
     17 C15         7.5188   -4.6255    0.3857 C.ar      1 <0>        -0.1173
     18 C16         6.1625   -4.8680    0.3029 C.ar      1 <0>        -0.1096
     19 C17        -2.7378   -0.6795    0.4111 C.3       1 <0>        -0.0342
     20 C18        -3.1776   -0.4026   -1.0279 C.3       1 <0>         0.0685
     21 O2         -4.5714   -0.0880   -1.0478 O.3       1 <0>        -0.3166
     22 C19        -5.1248    0.1860   -2.2584 C.ar      1 <0>         0.1151
     23 C20        -4.3436    0.1471   -3.4043 C.ar      1 <0>        -0.2070
     24 C21        -4.9086    0.4256   -4.6338 C.ar      1 <0>        -0.0766
     25 C22        -6.2514    0.7433   -4.7229 C.ar      1 <0>        -0.0925
     26 C23        -7.0319    0.7832   -3.5823 C.ar      1 <0>        -0.0680
     27 C24        -6.4730    0.4995   -2.3512 C.ar      1 <0>        -0.1472
     28 C25        -6.8650    1.0472   -6.0653 C.3       1 <0>        -0.1072
     29 C26        -7.3918   -0.2464   -6.6898 C.3       1 <0>         0.0474
     30 C27        -6.2670   -1.2823   -6.7425 C.3       1 <0>        -0.1155
     31 C28        -7.8825    0.0337   -8.0868 C.2       1 <0>         0.4820
     32 O3         -7.1152    0.4745   -8.9256 O.co2     1 <0>        -0.6846
     33 O4         -9.0469   -0.1804   -8.3784 O.co2     1 <0>        -0.6668
     34 O5         -8.4691   -0.7528   -5.8991 O.3       1 <0>        -0.2971
     35 C29        -9.5524    0.0529   -5.7441 C.ar      1 <0>         0.1680
     36 C30        -9.6332    1.2503   -6.4401 C.ar      1 <0>        -0.1588
     37 C31       -10.7357    2.0673   -6.2811 C.ar      1 <0>        -0.0983
     38 C32       -11.7580    1.6928   -5.4289 C.ar      1 <0>        -0.1748
     39 C33       -11.6798    0.5002   -4.7337 C.ar      1 <0>        -0.0978
     40 C34       -10.5822   -0.3233   -4.8939 C.ar      1 <0>        -0.1734
     41 H1          0.6006    1.8046    0.8250 H         1 <0>         0.0805
     42 H2         -0.9023    1.7775   -0.1283 H         1 <0>         0.0925
     43 H3         -0.9657    1.5764    1.6391 H         1 <0>         0.0931
     44 H4          0.0141   -4.7497    0.0454 H         1 <0>         0.1413
     45 H5          1.6114   -6.6109   -0.1033 H         1 <0>         0.1367
     46 H6          4.0270   -6.1849    0.0540 H         1 <0>         0.1320
     47 H7          3.2665   -1.9941    0.5031 H         1 <0>         0.1333
     48 H8          5.0409   -1.6862    0.6366 H         1 <0>         0.1252
     49 H9          7.4614   -1.2744    0.7934 H         1 <0>         0.1250
     50 H10         9.0453   -3.1501    0.6329 H         1 <0>         0.1232
     51 H11         8.2182   -5.4453    0.3155 H         1 <0>         0.1251
     52 H12         5.8006   -5.8766    0.1680 H         1 <0>         0.1267
     53 H13        -3.3058   -1.5203    0.8092 H         1 <0>         0.0947
     54 H14        -2.9196    0.2040    1.0230 H         1 <0>         0.0924
     55 H15        -2.6096    0.4382   -1.4260 H         1 <0>         0.0599
     56 H16        -2.9958   -1.2862   -1.6398 H         1 <0>         0.0650
     57 H17        -3.2946   -0.1003   -3.3352 H         1 <0>         0.1212
     58 H18        -4.3010    0.3955   -5.5261 H         1 <0>         0.1242
     59 H19        -8.0804    1.0320   -3.6544 H         1 <0>         0.1258
     60 H20        -7.0841    0.5265   -1.4611 H         1 <0>         0.1264
     61 H21        -7.6879    1.7505   -5.9378 H         1 <0>         0.0852
     62 H22        -6.1106    1.4852   -6.7189 H         1 <0>         0.0895
     63 H23        -5.9833   -1.5623   -5.7280 H         1 <0>         0.0554
     64 H24        -6.6114   -2.1655   -7.2804 H         1 <0>         0.0550
     65 H25        -5.4051   -0.8569   -7.2565 H         1 <0>         0.0746
     66 H26        -8.8345    1.5436   -7.1054 H         1 <0>         0.1378
     67 H27       -10.7990    2.9996   -6.8228 H         1 <0>         0.1126
     68 H28       -12.6190    2.3331   -5.3057 H         1 <0>         0.1102
     69 H29       -12.4794    0.2100   -4.0684 H         1 <0>         0.1156
     70 H30       -10.5236   -1.2569   -4.3541 H         1 <0>         0.1181
@<TRIPOS>BOND
     1    1    2 1
     2    1   41 1
     3    1   42 1
     4    1   43 1
     5    2    6 1
     6    2    3 2
     7    3    4 1
     8    3   19 1
     9    4    5 2
    10    5    6 1
    11    5    7 1
    12    7   12 ar
    13    7    8 ar
    14    8    9 ar
    15    8   44 1
    16    9   10 ar
    17    9   45 1
    18   10   11 ar
    19   10   46 1
    20   11   12 ar
    21   11   13 1
    22   12   47 1
    23   13   18 ar
    24   13   14 ar
    25   14   15 ar
    26   14   48 1
    27   15   16 ar
    28   15   49 1
    29   16   17 ar
    30   16   50 1
    31   17   18 ar
    32   17   51 1
    33   18   52 1
    34   19   20 1
    35   19   53 1
    36   19   54 1
    37   20   21 1
    38   20   55 1
    39   20   56 1
    40   21   22 1
    41   22   27 ar
    42   22   23 ar
    43   23   24 ar
    44   23   57 1
    45   24   25 ar
    46   24   58 1
    47   25   26 ar
    48   25   28 1
    49   26   27 ar
    50   26   59 1
    51   27   60 1
    52   28   29 1
    53   28   61 1
    54   28   62 1
    55   29   30 1
    56   29   31 1
    57   29   34 1
    58   30   63 1
    59   30   64 1
    60   30   65 1
    61   31   32 2
    62   31   33 1
    63   34   35 1
    64   35   40 ar
    65   35   36 ar
    66   36   37 ar
    67   36   66 1
    68   37   38 ar
    69   37   67 1
    70   38   39 ar
    71   38   68 1
    72   39   40 ar
    73   39   69 1
    74   40   70 1
@<TRIPOS>MOLECULE
CHEMBL81676__1
   70    74     0     0     0
SMALL
USER_CHARGES

@<TRIPOS>ATOM
      1 C1         -1.1103    3.4565    0.2784 C.3       1 <0>        -0.0708
      2 C2         -0.6849    2.0109    0.2923 C.2       1 <0>        -0.0335
      3 C3         -1.4984    0.9397    0.2611 C.2       1 <0>        -0.0039
      4 N1         -0.7308   -0.1603    0.2872 N.2       1 <0>        -0.4550
      5 C4          0.5279    0.2076    0.3336 C.2       1 <0>         0.2277
      6 O1          0.5812    1.5508    0.3325 O.3       1 <0>        -0.1939
      7 C5          1.6923   -0.7025    0.3745 C.ar      1 <0>        -0.0101
      8 C6          1.5006   -2.0857    0.3595 C.ar      1 <0>        -0.0674
      9 C7          2.5874   -2.9356    0.3977 C.ar      1 <0>        -0.1146
     10 C8          3.8698   -2.4244    0.4509 C.ar      1 <0>        -0.0921
     11 C9          4.0743   -1.0454    0.4658 C.ar      1 <0>        -0.0484
     12 C10         2.9843   -0.1823    0.4223 C.ar      1 <0>        -0.0816
     13 C11         5.4530   -0.4991    0.5230 C.ar      1 <0>        -0.0436
     14 C12         5.6588    0.8788    0.5439 C.ar      1 <0>        -0.1108
     15 C13         6.9431    1.3814    0.5975 C.ar      1 <0>        -0.1165
     16 C14         8.0248    0.5200    0.6302 C.ar      1 <0>        -0.1193
     17 C15         7.8263   -0.8488    0.6092 C.ar      1 <0>        -0.1174
     18 C16         6.5460   -1.3623    0.5619 C.ar      1 <0>        -0.1100
     19 C17        -3.0042    0.9700    0.2068 C.3       1 <0>        -0.0337
     20 C18        -3.4617    0.9829   -1.2531 C.3       1 <0>         0.0678
     21 O2         -4.8895    1.0116   -1.3045 O.3       1 <0>        -0.3181
     22 C19        -5.4624    1.0262   -2.5368 C.ar      1 <0>         0.1175
     23 C20        -4.6667    1.0073   -3.6731 C.ar      1 <0>        -0.2062
     24 C21        -5.2514    1.0217   -4.9246 C.ar      1 <0>        -0.0523
     25 C22        -6.6284    1.0554   -5.0453 C.ar      1 <0>        -0.1009
     26 C23        -7.4236    1.0748   -3.9143 C.ar      1 <0>        -0.0640
     27 C24        -6.8439    1.0542   -2.6606 C.ar      1 <0>        -0.1569
     28 C25        -7.2636    1.0716   -6.4118 C.3       1 <0>        -0.0439
     29 C26        -7.5138   -0.3650   -6.8749 C.3       1 <0>         0.0381
     30 C27        -8.0426   -0.3532   -8.3106 C.3       1 <0>        -0.1773
     31 C28        -6.2236   -1.1420   -6.8211 C.2       1 <0>         0.4904
     32 O3         -6.1370   -2.1315   -6.1142 O.co2     1 <0>        -0.6642
     33 O4         -5.2665   -0.7811   -7.4846 O.co2     1 <0>        -0.6891
     34 O5         -8.4769   -0.9810   -6.0176 O.3       1 <0>        -0.2979
     35 C29        -8.8235   -2.2642   -6.3005 C.ar      1 <0>         0.1685
     36 C30        -8.1667   -2.9552   -7.3085 C.ar      1 <0>        -0.1576
     37 C31        -8.5205   -4.2597   -7.5938 C.ar      1 <0>        -0.0992
     38 C32        -9.5285   -4.8766   -6.8761 C.ar      1 <0>        -0.1756
     39 C33       -10.1849   -4.1900   -5.8714 C.ar      1 <0>        -0.0986
     40 C34        -9.8306   -2.8874   -5.5780 C.ar      1 <0>        -0.1725
     41 H1         -0.2275    4.0953    0.3065 H         1 <0>         0.0798
     42 H2         -1.6770    3.6598   -0.6303 H         1 <0>         0.0925
     43 H3         -1.7340    3.6602    1.1488 H         1 <0>         0.0925
     44 H4          0.5004   -2.4910    0.3184 H         1 <0>         0.1420
     45 H5          2.4348   -4.0047    0.3863 H         1 <0>         0.1368
     46 H6          4.7161   -3.0947    0.4813 H         1 <0>         0.1316
     47 H7          3.1384    0.8866    0.4295 H         1 <0>         0.1330
     48 H8          4.8149    1.5522    0.5177 H         1 <0>         0.1253
     49 H9          7.1037    2.4492    0.6137 H         1 <0>         0.1246
     50 H10         9.0281    0.9175    0.6718 H         1 <0>         0.1227
     51 H11         8.6744   -1.5169    0.6345 H         1 <0>         0.1247
     52 H12         6.3919   -2.4312    0.5500 H         1 <0>         0.1267
     53 H13        -3.4035    0.0866    0.7050 H         1 <0>         0.0944
     54 H14        -3.3679    1.8662    0.7095 H         1 <0>         0.0916
     55 H15        -3.0624    1.8663   -1.7513 H         1 <0>         0.0591
     56 H16        -3.0981    0.0867   -1.7557 H         1 <0>         0.0660
     57 H17        -3.5911    0.9817   -3.5794 H         1 <0>         0.1187
     58 H18        -4.6325    1.0071   -5.8096 H         1 <0>         0.1308
     59 H19        -8.4989    1.1014   -4.0112 H         1 <0>         0.1247
     60 H20        -7.4655    1.0649   -1.7775 H         1 <0>         0.1233
     61 H21        -8.2110    1.6087   -6.3658 H         1 <0>         0.0676
     62 H22        -6.5974    1.5696   -7.1163 H         1 <0>         0.0895
     63 H23        -7.2575   -0.0096   -8.9842 H         1 <0>         0.0746
     64 H24        -8.3487   -1.3604   -8.5933 H         1 <0>         0.0700
     65 H25        -8.8982    0.3187   -8.3772 H         1 <0>         0.0509
     66 H26        -7.3798   -2.4735   -7.8698 H         1 <0>         0.1380
     67 H27        -8.0096   -4.7980   -8.3784 H         1 <0>         0.1120
     68 H28        -9.8039   -5.8964   -7.1010 H         1 <0>         0.1099
     69 H29       -10.9721   -4.6740   -5.3124 H         1 <0>         0.1155
     70 H30       -10.3406   -2.3529   -4.7902 H         1 <0>         0.1179
@<TRIPOS>BOND
     1    1    2 1
     2    1   41 1
     3    1   42 1
     4    1   43 1
     5    2    6 1
     6    2    3 2
     7    3    4 1
     8    3   19 1
     9    4    5 2
    10    5    6 1
    11    5    7 1
    12    7   12 ar
    13    7    8 ar
    14    8    9 ar
    15    8   44 1
    16    9   10 ar
    17    9   45 1
    18   10   11 ar
    19   10   46 1
    20   11   12 ar
    21   11   13 1
    22   12   47 1
    23   13   18 ar
    24   13   14 ar
    25   14   15 ar
    26   14   48 1
    27   15   16 ar
    28   15   49 1
    29   16   17 ar
    30   16   50 1
    31   17   18 ar
    32   17   51 1
    33   18   52 1
    34   19   20 1
    35   19   53 1
    36   19   54 1
    37   20   21 1
    38   20   55 1
    39   20   56 1
    40   21   22 1
    41   22   27 ar
    42   22   23 ar
    43   23   24 ar
    44   23   57 1
    45   24   25 ar
    46   24   58 1
    47   25   26 ar
    48   25   28 1
    49   26   27 ar
    50   26   59 1
    51   27   60 1
    52   28   29 1
    53   28   61 1
    54   28   62 1
    55   29   30 1
    56   29   31 1
    57   29   34 1
    58   30   63 1
    59   30   64 1
    60   30   65 1
    61   31   32 2
    62   31   33 1
    63   34   35 1
    64   35   40 ar
    65   35   36 ar
    66   36   37 ar
    67   36   66 1
    68   37   38 ar
    69   37   67 1
    70   38   39 ar
    71   38   68 1
    72   39   40 ar
    73   39   69 1
    74   40   70 1
@<TRIPOS>MOLECULE
CHEMBL578370
   39    40     0     0     0
SMALL
USER_CHARGES

@<TRIPOS>ATOM
      1 C1          1.1457    1.3600    4.7732 C.3       1 <0>        -0.1151
      2 C2          1.3446   -0.1165    4.5461 C.ar      1 <0>        -0.0487
      3 C3          2.2644   -0.8148    5.3073 C.ar      1 <0>        -0.1695
      4 C4          2.4504   -2.1694    5.1020 C.ar      1 <0>        -0.0791
      5 C5          1.7176   -2.8300    4.1354 C.ar      1 <0>        -0.1884
      6 C6          0.7926   -2.1320    3.3694 C.ar      1 <0>         0.2086
      7 C7          0.6042   -0.7718    3.5823 C.ar      1 <0>        -0.1541
      8 C8         -0.4021   -0.0115    2.7576 C.3       1 <0>        -0.1100
      9 N1          0.0499   -2.7969    2.3905 N.pl3     1 <0>        -0.6829
     10 C9          0.1177   -4.1886    2.2874 C.ar      1 <0>         0.1818
     11 C10         0.1014   -4.9730    3.4350 C.ar      1 <0>        -0.1710
     12 C11         0.1689   -6.3491    3.3342 C.ar      1 <0>        -0.0440
     13 C12         0.2529   -6.9508    2.0934 C.ar      1 <0>        -0.1606
     14 C13         0.2697   -6.1726    0.9416 C.ar      1 <0>        -0.0621
     15 C14         0.1958   -4.7895    1.0392 C.ar      1 <0>        -0.1445
     16 S1          0.3780   -6.9408   -0.6405 S.3       1 <0>        -0.0515
     17 C15         0.4429   -8.7140   -0.2638 C.3       1 <0>        -0.1734
     18 C16         0.5383   -9.4972   -1.5478 C.2       1 <0>         0.5122
     19 O1          0.5603   -8.9132   -2.6178 O.co2     1 <0>        -0.6717
     20 O2          0.5933  -10.7147   -1.5166 O.co2     1 <0>        -0.6831
     21 C17         0.1514   -7.1959    4.5807 C.3       1 <0>        -0.1137
     22 H1          0.3714    1.5108    5.5253 H         1 <0>         0.0691
     23 H2          2.0795    1.8034    5.1190 H         1 <0>         0.0652
     24 H3          0.8425    1.8336    3.8394 H         1 <0>         0.0671
     25 H4          2.8390   -0.3006    6.0635 H         1 <0>         0.1166
     26 H5          3.1697   -2.7115    5.6979 H         1 <0>         0.1204
     27 H6          1.8638   -3.8880    3.9750 H         1 <0>         0.1333
     28 H7          0.0816    0.3769    1.8614 H         1 <0>         0.0664
     29 H8         -1.2155   -0.6783    2.4715 H         1 <0>         0.0594
     30 H9         -0.8004    0.8169    3.3435 H         1 <0>         0.0694
     31 H10        -0.5128   -2.2924    1.7825 H         1 <0>         0.4081
     32 H11         0.0362   -4.5060    4.4066 H         1 <0>         0.1245
     33 H12         0.3059   -8.0269    2.0182 H         1 <0>         0.1240
     34 H13         0.2038   -4.1826    0.1459 H         1 <0>         0.1261
     35 H14         1.3161   -8.9224    0.3545 H         1 <0>         0.0839
     36 H15        -0.4601   -9.0048    0.2729 H         1 <0>         0.0838
     37 H16        -0.8784   -7.4470    4.8349 H         1 <0>         0.0706
     38 H17         0.7161   -8.1117    4.4057 H         1 <0>         0.0676
     39 H18         0.6038   -6.6415    5.4029 H         1 <0>         0.0652
@<TRIPOS>BOND
     1    1    2 1
     2    1   22 1
     3    1   23 1
     4    1   24 1
     5    2    7 ar
     6    2    3 ar
     7    3    4 ar
     8    3   25 1
     9    4    5 ar
    10    4   26 1
    11    5    6 ar
    12    5   27 1
    13    6    7 ar
    14    6    9 1
    15    7    8 1
    16    8   28 1
    17    8   29 1
    18    8   30 1
    19    9   10 1
    20    9   31 1
    21   10   15 ar
    22   10   11 ar
    23   11   12 ar
    24   11   32 1
    25   12   13 ar
    26   12   21 1
    27   13   14 ar
    28   13   33 1
    29   14   15 ar
    30   14   16 1
    31   15   34 1
    32   16   17 1
    33   17   18 1
    34   17   35 1
    35   17   36 1
    36   18   19 2
    37   18   20 1
    38   21   37 1
    39   21   38 1
    40   21   39 1
@<TRIPOS>MOLECULE
CHEMBL172490
   63    66     0     0     0
SMALL
USER_CHARGES

@<TRIPOS>ATOM
      1 C1         -0.0571    1.7651   -0.0993 C.3       1 <0>        -0.1514
      2 C2          0.2162    0.2598   -0.1184 C.3       1 <0>        -0.1168
      3 C3         -1.1066   -0.5001   -0.0017 C.3       1 <0>        -0.0676
      4 C4         -0.8375   -1.9828   -0.0205 C.ar      1 <0>        -0.1278
      5 C5         -0.8109   -2.6686   -1.2222 C.ar      1 <0>         0.1939
      6 C6         -0.5628   -4.0386   -1.2475 C.ar      1 <0>        -0.2254
      7 C7         -0.3425   -4.7230   -0.0863 C.ar      1 <0>        -0.0028
      8 C8         -0.3653   -4.0471    1.1343 C.ar      1 <0>        -0.2222
      9 C9         -0.6096   -2.6646    1.1671 C.ar      1 <0>         0.1281
     10 O1         -0.5671   -2.2808    2.4594 O.3       1 <0>        -0.0830
     11 N1         -0.2909   -3.4009    3.2758 N.2       1 <0>        -0.2851
     12 C10        -0.1731   -4.4680    2.5312 C.2       1 <0>         0.1823
     13 C11         0.1159   -5.8434    3.0040 C.ar      1 <0>        -0.0410
     14 C12        -0.4397   -6.9402    2.3471 C.ar      1 <0>        -0.0861
     15 C13        -0.1673   -8.2179    2.7916 C.ar      1 <0>        -0.1192
     16 C14         0.6553   -8.4114    3.8868 C.ar      1 <0>        -0.0990
     17 C15         1.2094   -7.3268    4.5426 C.ar      1 <0>        -0.1198
     18 C16         0.9487   -6.0447    4.1035 C.ar      1 <0>        -0.0812
     19 O2         -1.0287   -2.0010   -2.3849 O.3       1 <0>        -0.2966
     20 C17        -0.9878   -2.7671   -3.5905 C.3       1 <0>         0.0607
     21 C18        -1.2538   -1.8507   -4.7864 C.3       1 <0>        -0.1190
     22 C19        -1.2100   -2.6711   -6.0772 C.3       1 <0>         0.0657
     23 O3         -1.4585   -1.8152   -7.1942 O.3       1 <0>        -0.3158
     24 C20        -1.4545   -2.3910   -8.4261 C.ar      1 <0>         0.0691
     25 C21        -1.2219   -3.7523   -8.5545 C.ar      1 <0>        -0.1654
     26 C22        -1.2179   -4.3373   -9.8058 C.ar      1 <0>        -0.1251
     27 C23        -1.4469   -3.5634  -10.9338 C.ar      1 <0>         0.1153
     28 C24        -1.6804   -2.2023  -10.8053 C.ar      1 <0>        -0.1797
     29 C25        -1.6887   -1.6181   -9.5537 C.ar      1 <0>        -0.1058
     30 O4         -1.4421   -4.1391  -12.1658 O.3       1 <0>        -0.2796
     31 C26        -1.5651   -3.2660  -13.2904 C.3       1 <0>         0.0118
     32 C27        -3.0450   -2.9842  -13.5576 C.3       1 <0>        -0.1568
     33 C28        -0.9512   -3.9183  -14.5022 C.2       1 <0>         0.5051
     34 O5         -0.5364   -5.0627  -14.4342 O.co2     1 <0>        -0.6717
     35 O6         -0.8692   -3.3015  -15.5507 O.co2     1 <0>        -0.6859
     36 H1          0.8853    2.3065   -0.1825 H         1 <0>         0.0545
     37 H2         -0.7023    2.0279   -0.9377 H         1 <0>         0.0562
     38 H3         -0.5489    2.0333    0.8357 H         1 <0>         0.0538
     39 H4          0.7080   -0.0083   -1.0535 H         1 <0>         0.0644
     40 H5          0.8614   -0.0030    0.7199 H         1 <0>         0.0590
     41 H6         -1.5984   -0.2320    0.9333 H         1 <0>         0.0731
     42 H7         -1.7518   -0.2373   -0.8400 H         1 <0>         0.0828
     43 H8         -0.5449   -4.5633   -2.1913 H         1 <0>         0.1436
     44 H9         -0.1514   -5.7857   -0.1126 H         1 <0>         0.1382
     45 H10        -1.0823   -6.7902    1.4922 H         1 <0>         0.1303
     46 H11        -0.5974   -9.0684    2.2837 H         1 <0>         0.1324
     47 H12         0.8655   -9.4132    4.2314 H         1 <0>         0.1291
     48 H13         1.8507   -7.4838    5.3973 H         1 <0>         0.1312
     49 H14         1.3857   -5.1988    4.6133 H         1 <0>         0.1302
     50 H15        -0.0048   -3.2261   -3.6960 H         1 <0>         0.0720
     51 H16        -1.7500   -3.5454   -3.5524 H         1 <0>         0.0717
     52 H17        -2.2368   -1.3917   -4.6809 H         1 <0>         0.0872
     53 H18        -0.4916   -1.0725   -4.8245 H         1 <0>         0.0875
     54 H19        -0.2270   -3.1301   -6.1828 H         1 <0>         0.0635
     55 H20        -1.9722   -3.4493   -6.0391 H         1 <0>         0.0632
     56 H21        -1.0436   -4.3549   -7.6762 H         1 <0>         0.1274
     57 H22        -1.0361   -5.3971   -9.9059 H         1 <0>         0.1325
     58 H23        -1.8584   -1.5996  -11.6837 H         1 <0>         0.1376
     59 H24        -1.8742   -0.5589   -9.4533 H         1 <0>         0.1285
     60 H25        -1.0488   -2.3291  -13.0812 H         1 <0>         0.0671
     61 H26        -3.4891   -2.5124  -12.6811 H         1 <0>         0.0478
     62 H27        -3.1389   -2.3182  -14.4154 H         1 <0>         0.0734
     63 H28        -3.5613   -3.9211  -13.7668 H         1 <0>         0.0597
@<TRIPOS>BOND
     1    1    2 1
     2    1   36 1
     3    1   37 1
     4    1   38 1
     5    2    3 1
     6    2   39 1
     7    2   40 1
     8    3    4 1
     9    3   41 1
    10    3   42 1
    11    4    9 ar
    12    4    5 ar
    13    5    6 ar
    14    5   19 1
    15    6    7 ar
    16    6   43 1
    17    7    8 ar
    18    7   44 1
    19    8   12 1
    20    8    9 ar
    21    9   10 1
    22   10   11 1
    23   11   12 2
    24   12   13 1
    25   13   18 ar
    26   13   14 ar
    27   14   15 ar
    28   14   45 1
    29   15   16 ar
    30   15   46 1
    31   16   17 ar
    32   16   47 1
    33   17   18 ar
    34   17   48 1
    35   18   49 1
    36   19   20 1
    37   20   21 1
    38   20   50 1
    39   20   51 1
    40   21   22 1
    41   21   52 1
    42   21   53 1
    43   22   23 1
    44   22   54 1
    45   22   55 1
    46   23   24 1
    47   24   29 ar
    48   24   25 ar
    49   25   26 ar
    50   25   56 1
    51   26   27 ar
    52   26   57 1
    53   27   28 ar
    54   27   30 1
    55   28   29 ar
    56   28   58 1
    57   29   59 1
    58   30   31 1
    59   31   32 1
    60   31   33 1
    61   31   60 1
    62   32   61 1
    63   32   62 1
    64   32   63 1
    65   33   34 2
    66   33   35 1
@<TRIPOS>MOLECULE
CHEMBL172490__1
   63    66     0     0     0
SMALL
USER_CHARGES

@<TRIPOS>ATOM
      1 C1         -2.1583    1.3224    0.1645 C.3       1 <0>        -0.1514
      2 C2         -2.1529   -0.2073    0.1336 C.3       1 <0>        -0.1168
      3 C3         -3.5727   -0.7173   -0.1212 C.3       1 <0>        -0.0674
      4 C4         -3.5673   -2.2240   -0.1517 C.ar      1 <0>        -0.1278
      5 C5         -3.3562   -2.8938   -1.3441 C.ar      1 <0>         0.1938
      6 C6         -3.3498   -4.2858   -1.3801 C.ar      1 <0>        -0.2253
      7 C7         -3.5519   -5.0080   -0.2386 C.ar      1 <0>        -0.0027
      8 C8         -3.7657   -4.3488    0.9725 C.ar      1 <0>        -0.2220
      9 C9         -3.7683   -2.9452    1.0174 C.ar      1 <0>         0.1280
     10 O1         -3.9886   -2.5856    2.2986 O.3       1 <0>        -0.0831
     11 N1         -4.1253   -3.7437    3.0971 N.2       1 <0>        -0.2851
     12 C10        -4.0088   -4.8085    2.3491 C.2       1 <0>         0.1825
     13 C11        -4.0904   -6.2172    2.8049 C.ar      1 <0>        -0.0412
     14 C12        -4.6421   -7.1906    1.9736 C.ar      1 <0>        -0.0860
     15 C13        -4.7155   -8.5000    2.4031 C.ar      1 <0>        -0.1192
     16 C14        -4.2428   -8.8474    3.6559 C.ar      1 <0>        -0.0990
     17 C15        -3.6942   -7.8856    4.4851 C.ar      1 <0>        -0.1198
     18 C16        -3.6104   -6.5741    4.0640 C.ar      1 <0>        -0.0812
     19 O2         -3.1543   -2.1885   -2.4874 O.3       1 <0>        -0.2966
     20 C17        -2.9425   -2.9399   -3.6843 C.3       1 <0>         0.0606
     21 C18        -2.7352   -1.9811   -4.8584 C.3       1 <0>        -0.1186
     22 C19        -2.5084   -2.7856   -6.1399 C.3       1 <0>         0.0658
     23 O3         -2.3148   -1.8900   -7.2365 O.3       1 <0>        -0.3155
     24 C20        -2.0987   -2.4473   -8.4580 C.ar      1 <0>         0.0692
     25 C21        -2.0794   -3.8271   -8.5970 C.ar      1 <0>        -0.1643
     26 C22        -1.8598   -4.3932   -9.8378 C.ar      1 <0>        -0.1814
     27 C23        -1.6591   -3.5818  -10.9445 C.ar      1 <0>         0.1150
     28 C24        -1.6793   -2.2019  -10.8056 C.ar      1 <0>        -0.1233
     29 C25        -1.9031   -1.6358   -9.5657 C.ar      1 <0>        -0.1072
     30 O4         -1.4421   -4.1391  -12.1658 O.3       1 <0>        -0.2790
     31 C26        -1.3161   -5.5616  -12.2166 C.3       1 <0>         0.0122
     32 C27        -2.7067   -6.1939  -12.3037 C.3       1 <0>        -0.1565
     33 C28        -0.5102   -5.9516  -13.4289 C.2       1 <0>         0.5050
     34 O5         -0.2076   -7.1187  -13.6101 O.co2     1 <0>        -0.6865
     35 O6         -0.1609   -5.1000  -14.2284 O.co2     1 <0>        -0.6707
     36 H1         -1.1468    1.6858    0.3461 H         1 <0>         0.0545
     37 H2         -2.5152    1.7039   -0.7922 H         1 <0>         0.0562
     38 H3         -2.8169    1.6674    0.9616 H         1 <0>         0.0537
     39 H4         -1.4943   -0.5522   -0.6635 H         1 <0>         0.0644
     40 H5         -1.7960   -0.5887    1.0903 H         1 <0>         0.0590
     41 H6         -4.2312   -0.3724    0.6759 H         1 <0>         0.0731
     42 H7         -3.9295   -0.3359   -1.0779 H         1 <0>         0.0828
     43 H8         -3.1844   -4.7976   -2.3166 H         1 <0>         0.1435
     44 H9         -3.5464   -6.0874   -0.2733 H         1 <0>         0.1382
     45 H10        -5.0118   -6.9205    0.9954 H         1 <0>         0.1303
     46 H11        -5.1431   -9.2550    1.7600 H         1 <0>         0.1324
     47 H12        -4.3026   -9.8733    3.9880 H         1 <0>         0.1292
     48 H13        -3.3271   -8.1624    5.4624 H         1 <0>         0.1312
     49 H14        -3.1776   -5.8249    4.7103 H         1 <0>         0.1301
     50 H15        -2.0591   -3.5677   -3.5676 H         1 <0>         0.0719
     51 H16        -3.8119   -3.5683   -3.8775 H         1 <0>         0.0716
     52 H17        -3.6186   -1.3533   -4.9751 H         1 <0>         0.0873
     53 H18        -1.8658   -1.3527   -4.6652 H         1 <0>         0.0876
     54 H19        -1.6250   -3.4134   -6.0232 H         1 <0>         0.0631
     55 H20        -3.3778   -3.4140   -6.3331 H         1 <0>         0.0627
     56 H21        -2.2357   -4.4590   -7.7352 H         1 <0>         0.1233
     57 H22        -1.8441   -5.4677   -9.9459 H         1 <0>         0.1329
     58 H23        -1.5226   -1.5701  -11.6674 H         1 <0>         0.1378
     59 H24        -1.9225   -0.5614   -9.4581 H         1 <0>         0.1328
     60 H25        -0.8124   -5.9142  -11.3166 H         1 <0>         0.0659
     61 H26        -2.6106   -7.2790  -12.3424 H         1 <0>         0.0729
     62 H27        -3.2896   -5.9119  -11.4269 H         1 <0>         0.0469
     63 H28        -3.2104   -5.8414  -13.2037 H         1 <0>         0.0602
@<TRIPOS>BOND
     1    1    2 1
     2    1   36 1
     3    1   37 1
     4    1   38 1
     5    2    3 1
     6    2   39 1
     7    2   40 1
     8    3    4 1
     9    3   41 1
    10    3   42 1
    11    4    9 ar
    12    4    5 ar
    13    5    6 ar
    14    5   19 1
    15    6    7 ar
    16    6   43 1
    17    7    8 ar
    18    7   44 1
    19    8   12 1
    20    8    9 ar
    21    9   10 1
    22   10   11 1
    23   11   12 2
    24   12   13 1
    25   13   18 ar
    26   13   14 ar
    27   14   15 ar
    28   14   45 1
    29   15   16 ar
    30   15   46 1
    31   16   17 ar
    32   16   47 1
    33   17   18 ar
    34   17   48 1
    35   18   49 1
    36   19   20 1
    37   20   21 1
    38   20   50 1
    39   20   51 1
    40   21   22 1
    41   21   52 1
    42   21   53 1
    43   22   23 1
    44   22   54 1
    45   22   55 1
    46   23   24 1
    47   24   29 ar
    48   24   25 ar
    49   25   26 ar
    50   25   56 1
    51   26   27 ar
    52   26   57 1
    53   27   28 ar
    54   27   30 1
    55   28   29 ar
    56   28   58 1
    57   29   59 1
    58   30   31 1
    59   31   32 1
    60   31   33 1
    61   31   60 1
    62   32   61 1
    63   32   62 1
    64   32   63 1
    65   33   34 2
    66   33   35 1
@<TRIPOS>MOLECULE
CHEMBL514568
   63    66     0     0     0
SMALL
USER_CHARGES

@<TRIPOS>ATOM
      1 C1         -0.0184    1.5028    0.0103 C.3       1 <0>        -0.0727
      2 C2          0.0021   -0.0041    0.0020 C.2       1 <0>        -0.0320
      3 C3         -1.0705   -0.8164    0.0025 C.2       1 <0>        -0.0112
      4 N1         -0.6270   -2.0826   -0.0064 N.2       1 <0>        -0.4628
      5 C4          0.6851   -2.0676   -0.0123 C.2       1 <0>         0.2378
      6 O1          1.0981   -0.7883   -0.0131 O.3       1 <0>        -0.1922
      7 C5          1.5619   -3.2577   -0.0227 C.ar      1 <0>        -0.0274
      8 C6          1.0059   -4.5378   -0.0330 C.ar      1 <0>        -0.0657
      9 C7          1.8298   -5.6443   -0.0432 C.ar      1 <0>        -0.1173
     10 C8          3.2044   -5.4871   -0.0433 C.ar      1 <0>        -0.0471
     11 C9          3.7620   -4.2209   -0.0327 C.ar      1 <0>        -0.1225
     12 C10         2.9493   -3.1060   -0.0282 C.ar      1 <0>        -0.0849
     13 C11         4.0982   -6.7003   -0.0544 C.3       1 <0>        -0.0337
     14 C12         3.8188   -7.5281   -1.3104 C.3       1 <0>        -0.1403
     15 C13         5.5621   -6.2553   -0.0522 C.3       1 <0>        -0.1471
     16 C14         3.8213   -7.5492    1.1880 C.3       1 <0>        -0.1404
     17 C15        -2.5133   -0.3814    0.0119 C.3       1 <0>        -0.0337
     18 C16        -3.0085   -0.2260   -1.4274 C.3       1 <0>         0.0661
     19 O2         -4.3766    0.1865   -1.4185 O.3       1 <0>        -0.3064
     20 C17        -4.9731    0.3716   -2.6255 C.ar      1 <0>         0.1668
     21 C18        -4.2587    0.1552   -3.7957 C.ar      1 <0>        -0.2175
     22 C19        -4.8686    0.3402   -5.0194 C.ar      1 <0>        -0.0332
     23 C20        -6.1931    0.7442   -5.0907 C.ar      1 <0>        -0.1807
     24 C21        -6.9066    0.9674   -3.9262 C.ar      1 <0>         0.1525
     25 C22        -6.2971    0.7711   -2.6921 C.ar      1 <0>        -0.1611
     26 O3         -8.2021    1.3844   -3.9469 O.3       1 <0>        -0.2869
     27 C23        -8.8436    1.3655   -5.1323 C.2       1 <0>         0.5070
     28 O4         -9.9933    1.0055   -5.2240 O.2       1 <0>        -0.4061
     29 C24        -8.0543    1.8178   -6.3447 C.3       1 <0>        -0.1318
     30 C25        -6.8166    0.9218   -6.4522 C.3       1 <0>        -0.0612
     31 C26        -7.6323    3.2543   -6.1734 C.2       1 <0>         0.4696
     32 O5         -6.4591    3.5434   -6.1733 O.2       1 <0>        -0.4749
     33 O6         -8.5597    4.2126   -6.0208 O.3       1 <0>        -0.3473
     34 C27        -8.0884    5.5524   -5.8635 C.3       1 <0>         0.0328
     35 H1          1.0042    1.8801    0.0026 H         1 <0>         0.0818
     36 H2         -0.5455    1.8639   -0.8728 H         1 <0>         0.0906
     37 H3         -0.5286    1.8543    0.9071 H         1 <0>         0.0934
     38 H4         -0.0670   -4.6619   -0.0326 H         1 <0>         0.1379
     39 H5          1.4008   -6.6354   -0.0508 H         1 <0>         0.1316
     40 H6          4.8357   -4.1050   -0.0321 H         1 <0>         0.1356
     41 H7          3.3858   -2.1181   -0.0249 H         1 <0>         0.1298
     42 H8          4.0160   -6.9233   -2.1955 H         1 <0>         0.0576
     43 H9          4.4653   -8.4057   -1.3185 H         1 <0>         0.0615
     44 H10         2.7759   -7.8451   -1.3120 H         1 <0>         0.0587
     45 H11         5.7612   -5.6656    0.8426 H         1 <0>         0.0601
     46 H12         6.2086   -7.1329   -0.0603 H         1 <0>         0.0611
     47 H13         5.7594   -5.6505   -0.9373 H         1 <0>         0.0600
     48 H14         2.7785   -7.8663    1.1863 H         1 <0>         0.0587
     49 H15         4.4678   -8.4268    1.1799 H         1 <0>         0.0614
     50 H16         4.0204   -6.9595    2.0827 H         1 <0>         0.0577
     51 H17        -3.1156   -1.1316    0.5243 H         1 <0>         0.0966
     52 H18        -2.6018    0.5726    0.5316 H         1 <0>         0.0944
     53 H19        -2.4061    0.5242   -1.9398 H         1 <0>         0.0662
     54 H20        -2.9200   -1.1800   -1.9471 H         1 <0>         0.0709
     55 H21        -3.2261   -0.1575   -3.7484 H         1 <0>         0.1360
     56 H22        -4.3103    0.1696   -5.9280 H         1 <0>         0.1379
     57 H23        -6.8566    0.9350   -1.7829 H         1 <0>         0.1479
     58 H24        -8.6641    1.7152   -7.2423 H         1 <0>         0.1599
     59 H25        -6.0931    1.3827   -7.1245 H         1 <0>         0.1140
     60 H26        -7.1074   -0.0516   -6.8471 H         1 <0>         0.1063
     61 H27        -7.4558    5.6134   -4.9779 H         1 <0>         0.0645
     62 H28        -7.5116    5.8403   -6.7425 H         1 <0>         0.0657
     63 H29        -8.9381    6.2256   -5.7500 H         1 <0>         0.1080
@<TRIPOS>BOND
     1    1    2 1
     2    1   35 1
     3    1   36 1
     4    1   37 1
     5    2    6 1
     6    2    3 2
     7    3    4 1
     8    3   17 1
     9    4    5 2
    10    5    6 1
    11    5    7 1
    12    7   12 ar
    13    7    8 ar
    14    8    9 ar
    15    8   38 1
    16    9   10 ar
    17    9   39 1
    18   10   11 ar
    19   10   13 1
    20   11   12 ar
    21   11   40 1
    22   12   41 1
    23   13   14 1
    24   13   15 1
    25   13   16 1
    26   14   42 1
    27   14   43 1
    28   14   44 1
    29   15   45 1
    30   15   46 1
    31   15   47 1
    32   16   48 1
    33   16   49 1
    34   16   50 1
    35   17   18 1
    36   17   51 1
    37   17   52 1
    38   18   19 1
    39   18   53 1
    40   18   54 1
    41   19   20 1
    42   20   25 ar
    43   20   21 ar
    44   21   22 ar
    45   21   55 1
    46   22   23 ar
    47   22   56 1
    48   23   30 1
    49   23   24 ar
    50   24   25 ar
    51   24   26 1
    52   25   57 1
    53   26   27 1
    54   27   28 2
    55   27   29 1
    56   29   30 1
    57   29   31 1
    58   29   58 1
    59   30   59 1
    60   30   60 1
    61   31   32 2
    62   31   33 1
    63   33   34 1
    64   34   61 1
    65   34   62 1
    66   34   63 1
@<TRIPOS>MOLECULE
CHEMBL514568__1
   63    66     0     0     0
SMALL
USER_CHARGES

@<TRIPOS>ATOM
      1 C1         -0.0184    1.5028    0.0103 C.3       1 <0>        -0.0725
      2 C2          0.0021   -0.0041    0.0020 C.2       1 <0>        -0.0323
      3 C3         -1.0705   -0.8164    0.0025 C.2       1 <0>        -0.0111
      4 N1         -0.6270   -2.0826   -0.0064 N.2       1 <0>        -0.4629
      5 C4          0.6851   -2.0676   -0.0123 C.2       1 <0>         0.2379
      6 O1          1.0981   -0.7883   -0.0131 O.3       1 <0>        -0.1922
      7 C5          1.5619   -3.2577   -0.0227 C.ar      1 <0>        -0.0274
      8 C6          1.0059   -4.5378   -0.0330 C.ar      1 <0>        -0.0657
      9 C7          1.8298   -5.6443   -0.0432 C.ar      1 <0>        -0.1173
     10 C8          3.2044   -5.4871   -0.0433 C.ar      1 <0>        -0.0472
     11 C9          3.7620   -4.2209   -0.0327 C.ar      1 <0>        -0.1225
     12 C10         2.9493   -3.1060   -0.0282 C.ar      1 <0>        -0.0849
     13 C11         4.0982   -6.7003   -0.0544 C.3       1 <0>        -0.0337
     14 C12         3.8188   -7.5281   -1.3104 C.3       1 <0>        -0.1403
     15 C13         5.5621   -6.2553   -0.0522 C.3       1 <0>        -0.1471
     16 C14         3.8213   -7.5492    1.1880 C.3       1 <0>        -0.1404
     17 C15        -2.5133   -0.3814    0.0119 C.3       1 <0>        -0.0338
     18 C16        -3.0085   -0.2260   -1.4274 C.3       1 <0>         0.0661
     19 O2         -4.3766    0.1865   -1.4185 O.3       1 <0>        -0.3064
     20 C17        -4.9731    0.3716   -2.6255 C.ar      1 <0>         0.1668
     21 C18        -4.2587    0.1552   -3.7957 C.ar      1 <0>        -0.2175
     22 C19        -4.8662    0.3478   -5.0193 C.ar      1 <0>        -0.0332
     23 C20        -6.1898    0.7550   -5.0907 C.ar      1 <0>        -0.1808
     24 C21        -6.9072    0.9653   -3.9262 C.ar      1 <0>         0.1525
     25 C22        -6.2971    0.7711   -2.6921 C.ar      1 <0>        -0.1611
     26 O3         -8.2141    1.3451   -3.9470 O.3       1 <0>        -0.2869
     27 C23        -8.7337    1.7243   -5.1316 C.2       1 <0>         0.5071
     28 O4         -9.4841    2.6671   -5.2207 O.2       1 <0>        -0.4063
     29 C24        -8.3316    0.9122   -6.3466 C.3       1 <0>        -0.1318
     30 C25        -6.8043    0.9619   -6.4521 C.3       1 <0>        -0.0612
     31 C26        -8.7864   -0.5150   -6.1810 C.2       1 <0>         0.4691
     32 O5         -7.9762   -1.4114   -6.1833 O.2       1 <0>        -0.4744
     33 O6        -10.0915   -0.7903   -6.0309 O.3       1 <0>        -0.3474
     34 C27       -10.4513   -2.1649   -5.8790 C.3       1 <0>         0.0327
     35 H1          1.0042    1.8801    0.0026 H         1 <0>         0.0818
     36 H2         -0.5455    1.8639   -0.8728 H         1 <0>         0.0906
     37 H3         -0.5286    1.8543    0.9071 H         1 <0>         0.0934
     38 H4         -0.0670   -4.6619   -0.0326 H         1 <0>         0.1379
     39 H5          1.4008   -6.6354   -0.0508 H         1 <0>         0.1315
     40 H6          4.8357   -4.1050   -0.0321 H         1 <0>         0.1356
     41 H7          3.3858   -2.1181   -0.0249 H         1 <0>         0.1299
     42 H8          4.0160   -6.9233   -2.1955 H         1 <0>         0.0576
     43 H9          4.4653   -8.4057   -1.3185 H         1 <0>         0.0615
     44 H10         2.7759   -7.8451   -1.3120 H         1 <0>         0.0587
     45 H11         5.7612   -5.6656    0.8426 H         1 <0>         0.0601
     46 H12         6.2086   -7.1329   -0.0603 H         1 <0>         0.0611
     47 H13         5.7594   -5.6505   -0.9373 H         1 <0>         0.0600
     48 H14         2.7785   -7.8663    1.1863 H         1 <0>         0.0587
     49 H15         4.4678   -8.4268    1.1799 H         1 <0>         0.0614
     50 H16         4.0204   -6.9595    2.0827 H         1 <0>         0.0577
     51 H17        -3.1156   -1.1316    0.5243 H         1 <0>         0.0964
     52 H18        -2.6018    0.5726    0.5316 H         1 <0>         0.0946
     53 H19        -2.4061    0.5242   -1.9398 H         1 <0>         0.0664
     54 H20        -2.9200   -1.1800   -1.9471 H         1 <0>         0.0708
     55 H21        -3.2279   -0.1634   -3.7484 H         1 <0>         0.1360
     56 H22        -4.3069    0.1806   -5.9280 H         1 <0>         0.1379
     57 H23        -6.8561    0.9366   -1.7829 H         1 <0>         0.1479
     58 H24        -8.7784    1.3419   -7.2431 H         1 <0>         0.1599
     59 H25        -6.4998    1.9327   -6.8431 H         1 <0>         0.1062
     60 H26        -6.4621    0.1774   -7.1270 H         1 <0>         0.1141
     61 H27       -10.1336   -2.7231   -6.7597 H         1 <0>         0.0657
     62 H28        -9.9623   -2.5729   -4.9944 H         1 <0>         0.0647
     63 H29       -11.5324   -2.2473   -5.7671 H         1 <0>         0.1081
@<TRIPOS>BOND
     1    1    2 1
     2    1   35 1
     3    1   36 1
     4    1   37 1
     5    2    6 1
     6    2    3 2
     7    3    4 1
     8    3   17 1
     9    4    5 2
    10    5    6 1
    11    5    7 1
    12    7   12 ar
    13    7    8 ar
    14    8    9 ar
    15    8   38 1
    16    9   10 ar
    17    9   39 1
    18   10   11 ar
    19   10   13 1
    20   11   12 ar
    21   11   40 1
    22   12   41 1
    23   13   14 1
    24   13   15 1
    25   13   16 1
    26   14   42 1
    27   14   43 1
    28   14   44 1
    29   15   45 1
    30   15   46 1
    31   15   47 1
    32   16   48 1
    33   16   49 1
    34   16   50 1
    35   17   18 1
    36   17   51 1
    37   17   52 1
    38   18   19 1
    39   18   53 1
    40   18   54 1
    41   19   20 1
    42   20   25 ar
    43   20   21 ar
    44   21   22 ar
    45   21   55 1
    46   22   23 ar
    47   22   56 1
    48   23   30 1
    49   23   24 ar
    50   24   25 ar
    51   24   26 1
    52   25   57 1
    53   26   27 1
    54   27   28 2
    55   27   29 1
    56   29   30 1
    57   29   31 1
    58   29   58 1
    59   30   59 1
    60   30   60 1
    61   31   32 2
    62   31   33 1
    63   33   34 1
    64   34   61 1
    65   34   62 1
    66   34   63 1
@<TRIPOS>MOLECULE
CHEMBL456912
   52    55     0     0     0
SMALL
USER_CHARGES

@<TRIPOS>ATOM
      1 C1         -0.0184    1.5028    0.0103 C.3       1 <0>        -0.1213
      2 C2          0.0021   -0.0041    0.0020 C.ar      1 <0>        -0.0623
      3 C3          0.0057   -0.6862   -1.2017 C.ar      1 <0>        -0.1223
      4 C4          0.0239   -2.0656   -1.2163 C.ar      1 <0>        -0.0833
      5 C5          0.0392   -2.7730   -0.0132 C.ar      1 <0>        -0.0304
      6 C6          0.0359   -2.0787    1.1975 C.ar      1 <0>        -0.0642
      7 C7          0.0229   -0.6992    1.1981 C.ar      1 <0>        -0.1228
      8 C8          0.0582   -4.2511   -0.0214 C.2       1 <0>         0.2400
      9 N1          0.0684   -5.0231    1.0397 N.2       1 <0>        -0.4633
     10 C9          0.0849   -6.3032    0.6386 C.2       1 <0>        -0.0130
     11 C10         0.0847   -6.3137   -0.7068 C.2       1 <0>        -0.0307
     12 O1          0.0622   -5.0300   -1.1169 O.3       1 <0>        -0.1918
     13 C11         0.1008   -7.5340   -1.5908 C.3       1 <0>        -0.0740
     14 C12         0.1011   -7.5141    1.5356 C.3       1 <0>        -0.0342
     15 C13        -1.3358   -7.9431    1.8394 C.3       1 <0>         0.0614
     16 O2         -1.3204   -9.0913    2.6899 O.3       1 <0>        -0.2975
     17 C14        -2.5224   -9.6022    3.0567 C.ar      1 <0>         0.2122
     18 C15        -3.6972   -9.0067    2.5972 C.ar      1 <0>        -0.2322
     19 C16        -4.9127   -9.5000    2.9664 C.ar      1 <0>         0.0094
     20 C17        -4.9864  -10.6096    3.8236 C.ar      1 <0>        -0.2162
     21 C18        -6.2418  -11.1103    4.2435 C.2       1 <0>         0.1035
     22 C19        -6.2608  -12.0766    5.2442 C.2       1 <0>        -0.2767
     23 C20        -4.9650  -12.4837    5.8162 C.2       1 <0>         0.5268
     24 O3         -4.8884  -12.9339    6.9441 O.2       1 <0>        -0.4111
     25 O4         -3.8633  -12.3388    5.0439 O.3       1 <0>        -0.2695
     26 C21        -3.8010  -11.2318    4.2651 C.ar      1 <0>         0.2055
     27 C22        -2.5742  -10.7156    3.8808 C.ar      1 <0>        -0.1806
     28 C23        -7.5228  -12.6677    5.7125 C.2       1 <0>         0.5304
     29 O5         -8.5780  -12.3136    5.2238 O.2       1 <0>        -0.5052
     30 O6         -7.5098  -13.6023    6.6840 O.3       1 <0>        -0.3333
     31 C24        -8.7727  -14.1334    7.0901 C.3       1 <0>         0.0340
     32 H1          1.0042    1.8801    0.0026 H         1 <0>         0.0763
     33 H2         -0.5455    1.8639   -0.8728 H         1 <0>         0.0705
     34 H3         -0.5286    1.8543    0.9071 H         1 <0>         0.0709
     35 H4         -0.0062   -0.1376   -2.1319 H         1 <0>         0.1317
     36 H5          0.0259   -2.5969   -2.1566 H         1 <0>         0.1307
     37 H6          0.0473   -2.6202    2.1319 H         1 <0>         0.1386
     38 H7          0.0244   -0.1607    2.1343 H         1 <0>         0.1332
     39 H8         -0.9229   -7.8419   -1.8038 H         1 <0>         0.0878
     40 H9          0.6114   -7.2994   -2.5248 H         1 <0>         0.0833
     41 H10         0.6255   -8.3435   -1.0833 H         1 <0>         0.0962
     42 H11         0.6257   -8.3289    1.0365 H         1 <0>         0.0961
     43 H12         0.6119   -7.2696    2.4669 H         1 <0>         0.0982
     44 H13        -1.8604   -7.1283    2.3384 H         1 <0>         0.0759
     45 H14        -1.8466   -8.1876    0.9080 H         1 <0>         0.0720
     46 H15        -3.6431   -8.1481    1.9442 H         1 <0>         0.1448
     47 H16        -5.8177   -9.0380    2.6006 H         1 <0>         0.1499
     48 H17        -7.1591  -10.7522    3.7999 H         1 <0>         0.1669
     49 H18        -1.6606  -11.1768    4.2258 H         1 <0>         0.1584
     50 H19        -8.6199  -14.8735    7.8757 H         1 <0>         0.1058
     51 H20        -9.4015  -13.3272    7.4678 H         1 <0>         0.0629
     52 H21        -9.2600  -14.6049    6.2367 H         1 <0>         0.0623
@<TRIPOS>BOND
     1    1    2 1
     2    1   32 1
     3    1   33 1
     4    1   34 1
     5    2    7 ar
     6    2    3 ar
     7    3    4 ar
     8    3   35 1
     9    4    5 ar
    10    4   36 1
    11    5    6 ar
    12    5    8 1
    13    6    7 ar
    14    6   37 1
    15    7   38 1
    16    8   12 1
    17    8    9 2
    18    9   10 1
    19   10   11 2
    20   10   14 1
    21   11   12 1
    22   11   13 1
    23   13   39 1
    24   13   40 1
    25   13   41 1
    26   14   15 1
    27   14   42 1
    28   14   43 1
    29   15   16 1
    30   15   44 1
    31   15   45 1
    32   16   17 1
    33   17   27 ar
    34   17   18 ar
    35   18   19 ar
    36   18   46 1
    37   19   20 ar
    38   19   47 1
    39   20   26 ar
    40   20   21 1
    41   21   22 2
    42   21   48 1
    43   22   23 1
    44   22   28 1
    45   23   24 2
    46   23   25 1
    47   25   26 1
    48   26   27 ar
    49   27   49 1
    50   28   29 2
    51   28   30 1
    52   30   31 1
    53   31   50 1
    54   31   51 1
    55   31   52 1
@<TRIPOS>MOLECULE
CHEMBL257165
   73    76     0     0     0
SMALL
USER_CHARGES

@<TRIPOS>ATOM
      1 C1         -1.0548    2.1954    0.8722 C.3       1 <0>        -0.0715
      2 C2         -0.8024    0.7104    0.8227 C.2       1 <0>        -0.0329
      3 C3         -1.7289   -0.2511    0.6571 C.2       1 <0>        -0.0056
      4 N1         -1.0989   -1.4355    0.6701 N.2       1 <0>        -0.4579
      5 C4          0.1854   -1.2257    0.8389 C.2       1 <0>         0.2282
      6 O1          0.3939    0.0992    0.9303 O.3       1 <0>        -0.1935
      7 C5          1.2286   -2.2706    0.9102 C.ar      1 <0>        -0.0165
      8 C6          0.8815   -3.6170    0.7889 C.ar      1 <0>        -0.0705
      9 C7          1.8600   -4.5872    0.8558 C.ar      1 <0>        -0.1204
     10 C8          3.1829   -4.2280    1.0428 C.ar      1 <0>        -0.1015
     11 C9          3.5337   -2.8952    1.1643 C.ar      1 <0>        -0.1214
     12 C10         2.5657   -1.9148    1.0934 C.ar      1 <0>        -0.0908
     13 C11        -3.2108   -0.0359    0.4875 C.3       1 <0>        -0.0341
     14 C12        -3.5374    0.1148   -0.9996 C.3       1 <0>         0.0693
     15 O2         -4.9426    0.3188   -1.1603 O.3       1 <0>        -0.3174
     16 C13        -5.4025    0.4722   -2.4299 C.ar      1 <0>         0.1134
     17 C14        -4.5203    0.4215   -3.4994 C.ar      1 <0>        -0.2044
     18 C15        -4.9904    0.5773   -4.7890 C.ar      1 <0>        -0.0712
     19 C16        -6.3388    0.7840   -5.0144 C.ar      1 <0>        -0.1059
     20 C17        -7.2200    0.8354   -3.9502 C.ar      1 <0>        -0.0713
     21 C18        -6.7558    0.6740   -2.6591 C.ar      1 <0>        -0.1523
     22 C19        -6.8488    0.9541   -6.4222 C.3       1 <0>        -0.0662
     23 C20        -7.3867   -0.3834   -6.9349 C.3       1 <0>        -0.0687
     24 C21        -6.2293   -1.3753   -7.0874 C.3       1 <0>         0.1263
     25 N2         -5.3257   -0.8896   -8.1393 N.am      1 <0>        -0.5816
     26 C22        -5.8852   -0.5729   -9.4604 C.3       1 <0>         0.1093
     27 C23        -7.0465    0.4101   -9.2813 C.3       1 <0>        -0.1096
     28 C24        -8.0584   -0.1765   -8.2943 C.3       1 <0>        -0.1526
     29 C25        -9.2189    0.7727   -8.1416 C.2       1 <0>         0.4994
     30 O3         -9.5443    1.4922   -9.0705 O.co2     1 <0>        -0.6994
     31 O4         -9.8325    0.8211   -7.0891 O.co2     1 <0>        -0.6943
     32 C26        -4.0088   -0.7371   -7.8968 C.2       1 <0>         0.6460
     33 O5         -3.5427   -1.0878   -6.8308 O.2       1 <0>        -0.5749
     34 O6         -3.2096   -0.1962   -8.8356 O.3       1 <0>        -0.3630
     35 C27        -1.8242   -0.0646   -8.5108 C.3       1 <0>         0.0901
     36 C28        -1.0814    0.5652   -9.6909 C.3       1 <0>        -0.0964
     37 C29         0.3753    0.8208   -9.2988 C.3       1 <0>        -0.1446
     38 C30        -1.1277   -0.3856  -10.8887 C.3       1 <0>        -0.1463
     39 H1         -0.1095    2.7201    1.0113 H         1 <0>         0.0802
     40 H2         -1.5148    2.5171   -0.0621 H         1 <0>         0.0923
     41 H3         -1.7224    2.4229    1.7032 H         1 <0>         0.0930
     42 H4         -0.1509   -3.8987    0.6432 H         1 <0>         0.1392
     43 H5          1.5927   -5.6294    0.7624 H         1 <0>         0.1327
     44 H6          3.9451   -4.9914    1.0945 H         1 <0>         0.1283
     45 H7          4.5681   -2.6215    1.3108 H         1 <0>         0.1304
     46 H8          2.8414   -0.8745    1.1835 H         1 <0>         0.1299
     47 H9         -3.7509   -0.8912    0.8933 H         1 <0>         0.0943
     48 H10        -3.5098    0.8679    1.0185 H         1 <0>         0.0922
     49 H11        -2.9973    0.9701   -1.4054 H         1 <0>         0.0588
     50 H12        -3.2384   -0.7890   -1.5306 H         1 <0>         0.0646
     51 H13        -3.4669    0.2608   -3.3239 H         1 <0>         0.1177
     52 H14        -4.3040    0.5379   -5.6219 H         1 <0>         0.1257
     53 H15        -8.2728    0.9973   -4.1287 H         1 <0>         0.1361
     54 H16        -7.4452    0.7098   -1.8285 H         1 <0>         0.1259
     55 H17        -7.6482    1.6950   -6.4320 H         1 <0>         0.0865
     56 H18        -6.0351    1.2890   -7.0654 H         1 <0>         0.0580
     57 H19        -8.1142   -0.7787   -6.2260 H         1 <0>         0.0908
     58 H20        -5.6862   -1.4508   -6.1453 H         1 <0>         0.0939
     59 H21        -6.6209   -2.3539   -7.3652 H         1 <0>         0.0660
     60 H22        -5.1151   -0.1189  -10.0840 H         1 <0>         0.0845
     61 H23        -6.2488   -1.4860   -9.9317 H         1 <0>         0.0658
     62 H24        -6.6665    1.3554   -8.8939 H         1 <0>         0.0622
     63 H25        -7.5317    0.5790  -10.2426 H         1 <0>         0.0802
     64 H26        -8.4195   -1.1337   -8.6704 H         1 <0>         0.0647
     65 H27        -1.7158    0.5713   -7.6322 H         1 <0>         0.0640
     66 H28        -1.4051   -1.0486   -8.3011 H         1 <0>         0.0643
     67 H29        -1.5568    1.5090   -9.9576 H         1 <0>         0.0822
     68 H30         0.8507   -0.1231   -9.0320 H         1 <0>         0.0573
     69 H31         0.9045    1.2694  -10.1395 H         1 <0>         0.0638
     70 H32         0.4083    1.4982   -8.4454 H         1 <0>         0.0577
     71 H33        -0.6523   -1.3295  -10.6220 H         1 <0>         0.0528
     72 H34        -2.1655   -0.5678  -11.1681 H         1 <0>         0.0630
     73 H35        -0.5985    0.0630  -11.7294 H         1 <0>         0.0558
@<TRIPOS>BOND
     1    1    2 1
     2    1   39 1
     3    1   40 1
     4    1   41 1
     5    2    6 1
     6    2    3 2
     7    3    4 1
     8    3   13 1
     9    4    5 2
    10    5    6 1
    11    5    7 1
    12    7   12 ar
    13    7    8 ar
    14    8    9 ar
    15    8   42 1
    16    9   10 ar
    17    9   43 1
    18   10   11 ar
    19   10   44 1
    20   11   12 ar
    21   11   45 1
    22   12   46 1
    23   13   14 1
    24   13   47 1
    25   13   48 1
    26   14   15 1
    27   14   49 1
    28   14   50 1
    29   15   16 1
    30   16   21 ar
    31   16   17 ar
    32   17   18 ar
    33   17   51 1
    34   18   19 ar
    35   18   52 1
    36   19   20 ar
    37   19   22 1
    38   20   21 ar
    39   20   53 1
    40   21   54 1
    41   22   23 1
    42   22   55 1
    43   22   56 1
    44   23   28 1
    45   23   24 1
    46   23   57 1
    47   24   25 1
    48   24   58 1
    49   24   59 1
    50   25   26 1
    51   25   32 am
    52   26   27 1
    53   26   60 1
    54   26   61 1
    55   27   28 1
    56   27   62 1
    57   27   63 1
    58   28   29 1
    59   28   64 1
    60   29   30 2
    61   29   31 1
    62   32   33 2
    63   32   34 1
    64   34   35 1
    65   35   36 1
    66   35   65 1
    67   35   66 1
    68   36   37 1
    69   36   38 1
    70   36   67 1
    71   37   68 1
    72   37   69 1
    73   37   70 1
    74   38   71 1
    75   38   72 1
    76   38   73 1
@<TRIPOS>MOLECULE
CHEMBL257165__1
   73    76     0     0     0
SMALL
USER_CHARGES

@<TRIPOS>ATOM
      1 C1         -0.0184    1.5028    0.0103 C.3       1 <0>        -0.0715
      2 C2          0.0021   -0.0041    0.0020 C.2       1 <0>        -0.0330
      3 C3         -1.0705   -0.8164    0.0025 C.2       1 <0>        -0.0059
      4 N1         -0.6270   -2.0826   -0.0064 N.2       1 <0>        -0.4581
      5 C4          0.6851   -2.0676   -0.0123 C.2       1 <0>         0.2287
      6 O1          1.0981   -0.7883   -0.0131 O.3       1 <0>        -0.1935
      7 C5          1.5619   -3.2577   -0.0227 C.ar      1 <0>        -0.0170
      8 C6          1.0059   -4.5378   -0.0330 C.ar      1 <0>        -0.0704
      9 C7          1.8298   -5.6443   -0.0432 C.ar      1 <0>        -0.1203
     10 C8          3.2044   -5.4871   -0.0433 C.ar      1 <0>        -0.1013
     11 C9          3.7620   -4.2209   -0.0327 C.ar      1 <0>        -0.1215
     12 C10         2.9493   -3.1060   -0.0282 C.ar      1 <0>        -0.0908
     13 C11        -2.5133   -0.3814    0.0119 C.3       1 <0>        -0.0343
     14 C12        -3.0085   -0.2260   -1.4274 C.3       1 <0>         0.0686
     15 O2         -4.3766    0.1865   -1.4185 O.3       1 <0>        -0.3165
     16 C13        -4.9731    0.3716   -2.6255 C.ar      1 <0>         0.1159
     17 C14        -4.2580    0.1549   -3.7944 C.ar      1 <0>        -0.2048
     18 C15        -4.8667    0.3432   -5.0201 C.ar      1 <0>        -0.0809
     19 C16        -6.1874    0.7477   -5.0825 C.ar      1 <0>        -0.1008
     20 C17        -6.9021    0.9648   -3.9190 C.ar      1 <0>        -0.0707
     21 C18        -6.2998    0.7719   -2.6908 C.ar      1 <0>        -0.1473
     22 C19        -6.8489    0.9529   -6.4210 C.3       1 <0>        -0.0695
     23 C20        -7.4951   -0.3570   -6.8767 C.3       1 <0>        -0.0685
     24 C21        -6.4059   -1.4056   -7.1236 C.3       1 <0>         0.1287
     25 N2         -7.0296   -2.6125   -7.6833 N.am      1 <0>        -0.5849
     26 C22        -7.8732   -2.4819   -8.8792 C.3       1 <0>         0.1126
     27 C23        -8.9458   -1.4213   -8.6126 C.3       1 <0>        -0.1125
     28 C24        -8.2721   -0.1192   -8.1735 C.3       1 <0>        -0.1515
     29 C25        -9.3223    0.9367   -7.9431 C.2       1 <0>         0.5014
     30 O3         -9.5390    1.7779   -8.7987 O.co2     1 <0>        -0.7024
     31 O4         -9.9553    0.9498   -6.9012 O.co2     1 <0>        -0.6930
     32 C26        -6.8314   -3.8164   -7.1109 C.2       1 <0>         0.6484
     33 O5         -6.1312   -3.9112   -6.1223 O.2       1 <0>        -0.5781
     34 O6         -7.4091   -4.9140   -7.6344 O.3       1 <0>        -0.3626
     35 C27        -7.1558   -6.1570   -6.9763 C.3       1 <0>         0.0889
     36 C28        -7.8904   -7.2812   -7.7094 C.3       1 <0>        -0.0950
     37 C29        -7.5205   -8.6265   -7.0816 C.3       1 <0>        -0.1447
     38 C30        -9.4005   -7.0631   -7.5951 C.3       1 <0>        -0.1480
     39 H1          1.0042    1.8801    0.0026 H         1 <0>         0.0803
     40 H2         -0.5455    1.8639   -0.8728 H         1 <0>         0.0923
     41 H3         -0.5286    1.8543    0.9071 H         1 <0>         0.0930
     42 H4         -0.0670   -4.6619   -0.0326 H         1 <0>         0.1393
     43 H5          1.4008   -6.6354   -0.0508 H         1 <0>         0.1328
     44 H6          3.8450   -6.3565   -0.0513 H         1 <0>         0.1283
     45 H7          4.8357   -4.1050   -0.0321 H         1 <0>         0.1304
     46 H8          3.3858   -2.1181   -0.0249 H         1 <0>         0.1299
     47 H9         -3.1156   -1.1316    0.5243 H         1 <0>         0.0945
     48 H10        -2.6018    0.5726    0.5316 H         1 <0>         0.0925
     49 H11        -2.4061    0.5242   -1.9398 H         1 <0>         0.0597
     50 H12        -2.9200   -1.1800   -1.9471 H         1 <0>         0.0652
     51 H13        -3.2262   -0.1604   -3.7462 H         1 <0>         0.1203
     52 H14        -4.3105    0.1747   -5.9304 H         1 <0>         0.1208
     53 H15        -7.9335    1.2810   -3.9704 H         1 <0>         0.1353
     54 H16        -6.8598    0.9373   -1.7823 H         1 <0>         0.1273
     55 H17        -7.6139    1.7243   -6.3338 H         1 <0>         0.0904
     56 H18        -6.1019    1.2629   -7.1517 H         1 <0>         0.0649
     57 H19        -8.1765   -0.7144   -6.1046 H         1 <0>         0.0813
     58 H20        -5.6733   -1.0125   -7.8284 H         1 <0>         0.0650
     59 H21        -5.9149   -1.6512   -6.1819 H         1 <0>         0.0939
     60 H22        -7.2602   -2.1766   -9.7272 H         1 <0>         0.0674
     61 H23        -8.3503   -3.4377   -9.0959 H         1 <0>         0.0860
     62 H24        -9.5181   -1.2456   -9.5235 H         1 <0>         0.0727
     63 H25        -9.6135   -1.7692   -7.8243 H         1 <0>         0.0662
     64 H26        -7.5860    0.2150   -8.9518 H         1 <0>         0.0624
     65 H27        -6.0847   -6.3591   -6.9814 H         1 <0>         0.0640
     66 H28        -7.5103   -6.1020   -5.9471 H         1 <0>         0.0659
     67 H29        -7.6015   -7.2790   -8.7605 H         1 <0>         0.0805
     68 H30        -7.8093   -8.6286   -6.0306 H         1 <0>         0.0585
     69 H31        -8.0438   -9.4274   -7.6039 H         1 <0>         0.0637
     70 H32        -6.4447   -8.7818   -7.1630 H         1 <0>         0.0572
     71 H33        -9.6893   -7.0652   -6.5441 H         1 <0>         0.0546
     72 H34        -9.6640   -6.1046   -8.0424 H         1 <0>         0.0639
     73 H35        -9.9238   -7.8639   -8.1174 H         1 <0>         0.0558
@<TRIPOS>BOND
     1    1    2 1
     2    1   39 1
     3    1   40 1
     4    1   41 1
     5    2    6 1
     6    2    3 2
     7    3    4 1
     8    3   13 1
     9    4    5 2
    10    5    6 1
    11    5    7 1
    12    7   12 ar
    13    7    8 ar
    14    8    9 ar
    15    8   42 1
    16    9   10 ar
    17    9   43 1
    18   10   11 ar
    19   10   44 1
    20   11   12 ar
    21   11   45 1
    22   12   46 1
    23   13   14 1
    24   13   47 1
    25   13   48 1
    26   14   15 1
    27   14   49 1
    28   14   50 1
    29   15   16 1
    30   16   21 ar
    31   16   17 ar
    32   17   18 ar
    33   17   51 1
    34   18   19 ar
    35   18   52 1
    36   19   20 ar
    37   19   22 1
    38   20   21 ar
    39   20   53 1
    40   21   54 1
    41   22   23 1
    42   22   55 1
    43   22   56 1
    44   23   28 1
    45   23   24 1
    46   23   57 1
    47   24   25 1
    48   24   58 1
    49   24   59 1
    50   25   26 1
    51   25   32 am
    52   26   27 1
    53   26   60 1
    54   26   61 1
    55   27   28 1
    56   27   62 1
    57   27   63 1
    58   28   29 1
    59   28   64 1
    60   29   30 2
    61   29   31 1
    62   32   33 2
    63   32   34 1
    64   34   35 1
    65   35   36 1
    66   35   65 1
    67   35   66 1
    68   36   37 1
    69   36   38 1
    70   36   67 1
    71   37   68 1
    72   37   69 1
    73   37   70 1
    74   38   71 1
    75   38   72 1
    76   38   73 1
@<TRIPOS>MOLECULE
CHEMBL257165__2
   73    76     0     0     0
SMALL
USER_CHARGES

@<TRIPOS>ATOM
      1 C1          0.7628    0.4622   -0.7433 C.3       1 <0>        -0.0716
      2 C2          0.7308   -1.0352   -0.9107 C.2       1 <0>        -0.0326
      3 C3         -0.3624   -1.8187   -0.8755 C.2       1 <0>        -0.0066
      4 N1          0.0341   -3.0862   -1.0655 N.2       1 <0>        -0.4585
      5 C4          1.3376   -3.1000   -1.2157 C.2       1 <0>         0.2293
      6 O1          1.7914   -1.8376   -1.1292 O.3       1 <0>        -0.1932
      7 C5          2.1671   -4.3015   -1.4475 C.ar      1 <0>        -0.0172
      8 C6          1.5699   -5.5603   -1.5291 C.ar      1 <0>        -0.0704
      9 C7          2.3498   -6.6775   -1.7460 C.ar      1 <0>        -0.1204
     10 C8          3.7208   -6.5520   -1.8826 C.ar      1 <0>        -0.1011
     11 C9          4.3191   -5.3071   -1.8023 C.ar      1 <0>        -0.1214
     12 C10         3.5501   -4.1812   -1.5914 C.ar      1 <0>        -0.0906
     13 C11        -1.7801   -1.3550   -0.6605 C.3       1 <0>        -0.0336
     14 C12        -2.4225   -1.0350   -2.0117 C.3       1 <0>         0.0677
     15 O2         -3.7668   -0.5953   -1.8078 O.3       1 <0>        -0.3167
     16 C13        -4.4837   -0.2686   -2.9151 C.ar      1 <0>         0.1165
     17 C14        -3.9071   -0.3746   -4.1724 C.ar      1 <0>        -0.2037
     18 C15        -4.6382   -0.0423   -5.2965 C.ar      1 <0>        -0.0718
     19 C16        -5.9433    0.3961   -5.1692 C.ar      1 <0>        -0.1022
     20 C17        -6.5201    0.5030   -3.9171 C.ar      1 <0>        -0.0803
     21 C18        -5.7953    0.1661   -2.7904 C.ar      1 <0>        -0.1474
     22 C19        -6.7383    0.7583   -6.3971 C.3       1 <0>        -0.0694
     23 C20        -7.4743   -0.4803   -6.9120 C.3       1 <0>        -0.0705
     24 C21        -8.5249   -0.9145   -5.8851 C.3       1 <0>         0.1299
     25 N2         -9.3084   -2.0218   -6.4495 N.am      1 <0>        -0.5849
     26 C22        -9.9427   -1.8412   -7.7625 C.3       1 <0>         0.1119
     27 C23        -8.8761   -1.3966   -8.7683 C.3       1 <0>        -0.1124
     28 C24        -8.1670   -0.1493   -8.2359 C.3       1 <0>        -0.1511
     29 C25        -7.1402    0.3108   -9.2384 C.2       1 <0>         0.5016
     30 O3         -6.2260   -0.4297   -9.5584 O.co2     1 <0>        -0.6955
     31 O4         -7.2237    1.4237   -9.7295 O.co2     1 <0>        -0.7014
     32 C26        -9.4425   -3.1814   -5.7759 C.2       1 <0>         0.6486
     33 O5         -8.9127   -3.3186   -4.6910 O.2       1 <0>        -0.5778
     34 O6        -10.1634   -4.1879   -6.3050 O.3       1 <0>        -0.3626
     35 C27       -10.2633   -5.3884   -5.5362 C.3       1 <0>         0.0891
     36 C28       -11.1144   -6.4096   -6.2936 C.3       1 <0>        -0.0964
     37 C29       -11.1188   -7.7358   -5.5306 C.3       1 <0>        -0.1447
     38 C30       -12.5473   -5.8877   -6.4173 C.3       1 <0>        -0.1463
     39 H1          1.7908    0.8151   -0.8254 H         1 <0>         0.0805
     40 H2          0.1557    0.9276   -1.5198 H         1 <0>         0.0925
     41 H3          0.3649    0.7268    0.2364 H         1 <0>         0.0927
     42 H4          0.4998   -5.6597   -1.4223 H         1 <0>         0.1391
     43 H5          1.8890   -7.6523   -1.8090 H         1 <0>         0.1328
     44 H6          4.3268   -7.4298   -2.0523 H         1 <0>         0.1284
     45 H7          5.3899   -5.2160   -1.9090 H         1 <0>         0.1306
     46 H8          4.0178   -3.2094   -1.5337 H         1 <0>         0.1300
     47 H9         -2.3486   -2.1421   -0.1652 H         1 <0>         0.0943
     48 H10        -1.7792   -0.4605   -0.0376 H         1 <0>         0.0923
     49 H11        -1.8540   -0.2479   -2.5070 H         1 <0>         0.0607
     50 H12        -2.4233   -1.9295   -2.6345 H         1 <0>         0.0655
     51 H13        -2.8875   -0.7162   -4.2724 H         1 <0>         0.1218
     52 H14        -4.1898   -0.1246   -6.2756 H         1 <0>         0.1280
     53 H15        -7.5396    0.8460   -3.8203 H         1 <0>         0.1269
     54 H16        -6.2477    0.2455   -1.8130 H         1 <0>         0.1265
     55 H17        -7.4628    1.5329   -6.1454 H         1 <0>         0.0697
     56 H18        -6.0647    1.1282   -7.1701 H         1 <0>         0.0865
     57 H19        -6.7605   -1.2893   -7.0671 H         1 <0>         0.0784
     58 H20        -8.0291   -1.2455   -4.9726 H         1 <0>         0.0948
     59 H21        -9.1852   -0.0766   -5.6613 H         1 <0>         0.0670
     60 H22       -10.3823   -2.7838   -8.0887 H         1 <0>         0.0858
     61 H23       -10.7185   -1.0789   -7.6917 H         1 <0>         0.0671
     62 H24        -8.1495   -2.1974   -8.9059 H         1 <0>         0.0696
     63 H25        -9.3496   -1.1665   -9.7227 H         1 <0>         0.0699
     64 H26        -8.8979    0.6432   -8.0751 H         1 <0>         0.0629
     65 H27        -9.2668   -5.7976   -5.3703 H         1 <0>         0.0653
     66 H28       -10.7298   -5.1672   -4.5762 H         1 <0>         0.0648
     67 H29       -10.6968   -6.5642   -7.2885 H         1 <0>         0.0822
     68 H30       -11.5364   -7.5812   -4.5357 H         1 <0>         0.0576
     69 H31       -11.7252   -8.4634   -6.0701 H         1 <0>         0.0636
     70 H32       -10.0980   -8.1076   -5.4424 H         1 <0>         0.0583
     71 H33       -12.9649   -5.7331   -5.4224 H         1 <0>         0.0532
     72 H34       -12.5442   -4.9429   -6.9609 H         1 <0>         0.0627
     73 H35       -13.1537   -6.6153   -6.9569 H         1 <0>         0.0557
@<TRIPOS>BOND
     1    1    2 1
     2    1   39 1
     3    1   40 1
     4    1   41 1
     5    2    6 1
     6    2    3 2
     7    3    4 1
     8    3   13 1
     9    4    5 2
    10    5    6 1
    11    5    7 1
    12    7   12 ar
    13    7    8 ar
    14    8    9 ar
    15    8   42 1
    16    9   10 ar
    17    9   43 1
    18   10   11 ar
    19   10   44 1
    20   11   12 ar
    21   11   45 1
    22   12   46 1
    23   13   14 1
    24   13   47 1
    25   13   48 1
    26   14   15 1
    27   14   49 1
    28   14   50 1
    29   15   16 1
    30   16   21 ar
    31   16   17 ar
    32   17   18 ar
    33   17   51 1
    34   18   19 ar
    35   18   52 1
    36   19   20 ar
    37   19   22 1
    38   20   21 ar
    39   20   53 1
    40   21   54 1
    41   22   23 1
    42   22   55 1
    43   22   56 1
    44   23   28 1
    45   23   24 1
    46   23   57 1
    47   24   25 1
    48   24   58 1
    49   24   59 1
    50   25   26 1
    51   25   32 am
    52   26   27 1
    53   26   60 1
    54   26   61 1
    55   27   28 1
    56   27   62 1
    57   27   63 1
    58   28   29 1
    59   28   64 1
    60   29   30 2
    61   29   31 1
    62   32   33 2
    63   32   34 1
    64   34   35 1
    65   35   36 1
    66   35   65 1
    67   35   66 1
    68   36   37 1
    69   36   38 1
    70   36   67 1
    71   37   68 1
    72   37   69 1
    73   37   70 1
    74   38   71 1
    75   38   72 1
    76   38   73 1
@<TRIPOS>MOLECULE
CHEMBL257165__3
   73    76     0     0     0
SMALL
USER_CHARGES

@<TRIPOS>ATOM
      1 C1          0.3029   -6.0812   -2.5461 C.3       1 <0>        -0.0718
      2 C2         -0.3709   -7.2528   -3.2127 C.2       1 <0>        -0.0323
      3 C3         -1.6951   -7.4832   -3.2726 C.2       1 <0>        -0.0064
      4 N1         -1.8833   -8.6255   -3.9505 N.2       1 <0>        -0.4585
      5 C4         -0.7127   -9.0998   -4.3064 C.2       1 <0>         0.2288
      6 O1          0.2407   -8.2615   -3.8645 O.3       1 <0>        -0.1932
      7 C5         -0.4816  -10.3439   -5.0707 C.ar      1 <0>        -0.0169
      8 C6         -1.5628  -11.1240   -5.4835 C.ar      1 <0>        -0.0705
      9 C7         -1.3403  -12.2837   -6.1968 C.ar      1 <0>        -0.1205
     10 C8         -0.0487  -12.6740   -6.5031 C.ar      1 <0>        -0.1013
     11 C9          1.0275  -11.9055   -6.0964 C.ar      1 <0>        -0.1213
     12 C10         0.8185  -10.7406   -5.3875 C.ar      1 <0>        -0.0906
     13 C11        -2.7749   -6.6130   -2.6828 C.3       1 <0>        -0.0336
     14 C12        -3.2140   -5.5740   -3.7165 C.3       1 <0>         0.0684
     15 O2         -4.2379   -4.7488   -3.1573 O.3       1 <0>        -0.3177
     16 C13        -4.7418   -3.7676   -3.9511 C.ar      1 <0>         0.1134
     17 C14        -4.2647   -3.6060   -5.2437 C.ar      1 <0>        -0.2090
     18 C15        -4.7789   -2.6081   -6.0488 C.ar      1 <0>        -0.0761
     19 C16        -5.7679   -1.7705   -5.5671 C.ar      1 <0>        -0.1077
     20 C17        -6.2448   -1.9292   -4.2791 C.ar      1 <0>        -0.0703
     21 C18        -5.7383   -2.9295   -3.4721 C.ar      1 <0>        -0.1475
     22 C19        -6.3267   -0.6824   -6.4474 C.3       1 <0>        -0.0720
     23 C20        -7.3942   -1.2718   -7.3715 C.3       1 <0>        -0.0719
     24 C21        -8.6036   -1.7117   -6.5404 C.3       1 <0>         0.1290
     25 N2         -9.2221   -0.5222   -5.9392 N.am      1 <0>        -0.5810
     26 C22        -9.6013    0.5955   -6.8142 C.3       1 <0>         0.1102
     27 C23        -8.3808    1.0095   -7.6422 C.3       1 <0>        -0.1112
     28 C24        -7.8345   -0.2124   -8.3844 C.3       1 <0>        -0.1514
     29 C25        -6.6542    0.1980   -9.2267 C.2       1 <0>         0.5004
     30 O3         -6.4468   -0.3521  -10.2948 O.co2     1 <0>        -0.7023
     31 O4         -5.9067    1.0803   -8.8401 O.co2     1 <0>        -0.6916
     32 C26        -9.4379   -0.4578   -4.6104 C.2       1 <0>         0.6465
     33 O5         -9.0548   -1.3569   -3.8883 O.2       1 <0>        -0.5726
     34 O6        -10.0781    0.6027   -4.0830 O.3       1 <0>        -0.3630
     35 C27       -10.2725    0.6049   -2.6672 C.3       1 <0>         0.0895
     36 C28       -11.0117    1.8798   -2.2559 C.3       1 <0>        -0.0953
     37 C29       -11.3299    1.8248   -0.7604 C.3       1 <0>        -0.1448
     38 C30       -10.1301    3.0963   -2.5454 C.3       1 <0>        -0.1479
     39 H1          1.3828   -6.1658   -2.6675 H         1 <0>         0.0805
     40 H2         -0.0427   -5.1545   -3.0042 H         1 <0>         0.0927
     41 H3          0.0560   -6.0758   -1.4844 H         1 <0>         0.0927
     42 H4         -2.5715  -10.8206   -5.2448 H         1 <0>         0.1391
     43 H5         -2.1760  -12.8884   -6.5166 H         1 <0>         0.1328
     44 H6          0.1201  -13.5827   -7.0617 H         1 <0>         0.1284
     45 H7          2.0333  -12.2161   -6.3381 H         1 <0>         0.1305
     46 H8          1.6592  -10.1391   -5.0747 H         1 <0>         0.1300
     47 H9         -3.6282   -7.2314   -2.4042 H         1 <0>         0.0939
     48 H10        -2.3899   -6.1054   -1.7984 H         1 <0>         0.0919
     49 H11        -2.3608   -4.9555   -3.9951 H         1 <0>         0.0599
     50 H12        -3.5991   -6.0815   -4.6010 H         1 <0>         0.0646
     51 H13        -3.4917   -4.2595   -5.6201 H         1 <0>         0.1198
     52 H14        -4.4078   -2.4818   -7.0551 H         1 <0>         0.1245
     53 H15        -7.0171   -1.2734   -3.9050 H         1 <0>         0.1385
     54 H16        -6.1142   -3.0559   -2.4676 H         1 <0>         0.1231
     55 H17        -6.7726    0.0944   -5.8262 H         1 <0>         0.0642
     56 H18        -5.5245   -0.2522   -7.0470 H         1 <0>         0.0960
     57 H19        -6.9832   -2.1319   -7.9000 H         1 <0>         0.0800
     58 H20        -9.3262   -2.2135   -7.1839 H         1 <0>         0.0668
     59 H21        -8.2781   -2.3917   -5.7531 H         1 <0>         0.0959
     60 H22       -10.4053    0.2818   -7.4801 H         1 <0>         0.0648
     61 H23        -9.9342    1.4377   -6.2076 H         1 <0>         0.0848
     62 H24        -8.6725    1.7728   -8.3636 H         1 <0>         0.0675
     63 H25        -7.6110    1.4079   -6.9814 H         1 <0>         0.0756
     64 H26        -8.6126   -0.6251   -9.0265 H         1 <0>         0.0624
     65 H27       -10.8622   -0.2657   -2.3801 H         1 <0>         0.0644
     66 H28        -9.3044    0.5689   -2.1675 H         1 <0>         0.0661
     67 H29       -11.9396    1.9605   -2.8222 H         1 <0>         0.0801
     68 H30       -10.4020    1.7441   -0.1942 H         1 <0>         0.0584
     69 H31       -11.8565    2.7331   -0.4674 H         1 <0>         0.0632
     70 H32       -11.9580    0.9581   -0.5542 H         1 <0>         0.0572
     71 H33        -9.2022    3.0156   -1.9792 H         1 <0>         0.0546
     72 H34        -9.9034    3.1355   -3.6108 H         1 <0>         0.0641
     73 H35       -10.6567    4.0046   -2.2524 H         1 <0>         0.0553
@<TRIPOS>BOND
     1    1    2 1
     2    1   39 1
     3    1   40 1
     4    1   41 1
     5    2    6 1
     6    2    3 2
     7    3    4 1
     8    3   13 1
     9    4    5 2
    10    5    6 1
    11    5    7 1
    12    7   12 ar
    13    7    8 ar
    14    8    9 ar
    15    8   42 1
    16    9   10 ar
    17    9   43 1
    18   10   11 ar
    19   10   44 1
    20   11   12 ar
    21   11   45 1
    22   12   46 1
    23   13   14 1
    24   13   47 1
    25   13   48 1
    26   14   15 1
    27   14   49 1
    28   14   50 1
    29   15   16 1
    30   16   21 ar
    31   16   17 ar
    32   17   18 ar
    33   17   51 1
    34   18   19 ar
    35   18   52 1
    36   19   20 ar
    37   19   22 1
    38   20   21 ar
    39   20   53 1
    40   21   54 1
    41   22   23 1
    42   22   55 1
    43   22   56 1
    44   23   28 1
    45   23   24 1
    46   23   57 1
    47   24   25 1
    48   24   58 1
    49   24   59 1
    50   25   26 1
    51   25   32 am
    52   26   27 1
    53   26   60 1
    54   26   61 1
    55   27   28 1
    56   27   62 1
    57   27   63 1
    58   28   29 1
    59   28   64 1
    60   29   30 2
    61   29   31 1
    62   32   33 2
    63   32   34 1
    64   34   35 1
    65   35   36 1
    66   35   65 1
    67   35   66 1
    68   36   37 1
    69   36   38 1
    70   36   67 1
    71   37   68 1
    72   37   69 1
    73   37   70 1
    74   38   71 1
    75   38   72 1
    76   38   73 1
@<TRIPOS>MOLECULE
CHEMBL257164
   76    79     0     0     0
SMALL
USER_CHARGES

@<TRIPOS>ATOM
      1 C1         -0.0184    1.5028    0.0103 C.3       1 <0>        -0.0712
      2 C2          0.0021   -0.0041    0.0020 C.2       1 <0>        -0.0336
      3 C3         -1.0705   -0.8164    0.0025 C.2       1 <0>        -0.0065
      4 N1         -0.6270   -2.0826   -0.0064 N.2       1 <0>        -0.4586
      5 C4          0.6851   -2.0676   -0.0123 C.2       1 <0>         0.2306
      6 O1          1.0981   -0.7883   -0.0131 O.3       1 <0>        -0.1933
      7 C5          1.5619   -3.2577   -0.0227 C.ar      1 <0>        -0.0180
      8 C6          1.0059   -4.5378   -0.0330 C.ar      1 <0>        -0.0699
      9 C7          1.8298   -5.6443   -0.0432 C.ar      1 <0>        -0.1201
     10 C8          3.2044   -5.4871   -0.0433 C.ar      1 <0>        -0.1007
     11 C9          3.7620   -4.2209   -0.0327 C.ar      1 <0>        -0.1216
     12 C10         2.9493   -3.1060   -0.0282 C.ar      1 <0>        -0.0906
     13 C11        -2.5133   -0.3814    0.0119 C.3       1 <0>        -0.0335
     14 C12        -3.0085   -0.2260   -1.4274 C.3       1 <0>         0.0677
     15 O2         -4.3766    0.1865   -1.4185 O.3       1 <0>        -0.3169
     16 C13        -4.9731    0.3716   -2.6255 C.ar      1 <0>         0.1160
     17 C14        -4.2580    0.1549   -3.7944 C.ar      1 <0>        -0.2045
     18 C15        -4.8667    0.3432   -5.0201 C.ar      1 <0>        -0.0744
     19 C16        -6.1874    0.7477   -5.0825 C.ar      1 <0>        -0.1002
     20 C17        -6.9021    0.9648   -3.9190 C.ar      1 <0>        -0.0768
     21 C18        -6.2998    0.7719   -2.6908 C.ar      1 <0>        -0.1500
     22 C19        -6.8489    0.9529   -6.4210 C.3       1 <0>        -0.0810
     23 C20        -7.4951   -0.3570   -6.8767 C.3       1 <0>        -0.0969
     24 C21        -8.1666   -0.1487   -8.2355 C.3       1 <0>        -0.0764
     25 C22        -9.3267    0.8406   -8.0863 C.3       1 <0>         0.1262
     26 N2        -10.3569    0.2358   -7.2310 N.am      1 <0>        -0.5814
     27 C23       -10.8788   -1.0914   -7.5846 C.3       1 <0>         0.1102
     28 C24        -9.7014   -2.0590   -7.7395 C.3       1 <0>        -0.1095
     29 C25        -8.7047   -1.4859   -8.7497 C.3       1 <0>        -0.1514
     30 C26        -7.5616   -2.4512   -8.9301 C.2       1 <0>         0.4997
     31 O3         -7.7472   -3.6484   -8.7930 O.co2     1 <0>        -0.7001
     32 O4         -6.4512   -2.0350   -9.2132 O.co2     1 <0>        -0.6957
     33 C27       -10.8142    0.8858   -6.1425 C.2       1 <0>         0.6487
     34 O5        -10.3742    1.9828   -5.8605 O.2       1 <0>        -0.5805
     35 O6        -11.7585    0.3197   -5.3676 O.3       1 <0>        -0.3628
     36 C28       -12.1968    1.0651   -4.2300 C.3       1 <0>         0.0899
     37 C29       -13.2633    0.2670   -3.4773 C.3       1 <0>        -0.0952
     38 C30       -12.6391   -1.0091   -2.9091 C.3       1 <0>        -0.1480
     39 C31       -13.8217    1.1150   -2.3327 C.3       1 <0>        -0.1447
     40 H1          1.0042    1.8801    0.0026 H         1 <0>         0.0804
     41 H2         -0.5455    1.8639   -0.8728 H         1 <0>         0.0919
     42 H3         -0.5286    1.8543    0.9071 H         1 <0>         0.0925
     43 H4         -0.0670   -4.6619   -0.0326 H         1 <0>         0.1394
     44 H5          1.4008   -6.6354   -0.0508 H         1 <0>         0.1332
     45 H6          3.8450   -6.3565   -0.0513 H         1 <0>         0.1286
     46 H7          4.8357   -4.1050   -0.0321 H         1 <0>         0.1305
     47 H8          3.3858   -2.1181   -0.0249 H         1 <0>         0.1298
     48 H9         -3.1156   -1.1316    0.5243 H         1 <0>         0.0945
     49 H10        -2.6018    0.5726    0.5316 H         1 <0>         0.0921
     50 H11        -2.4061    0.5242   -1.9398 H         1 <0>         0.0604
     51 H12        -2.9200   -1.1800   -1.9471 H         1 <0>         0.0662
     52 H13        -3.2262   -0.1604   -3.7462 H         1 <0>         0.1223
     53 H14        -4.3105    0.1747   -5.9304 H         1 <0>         0.1265
     54 H15        -7.9335    1.2810   -3.9704 H         1 <0>         0.1262
     55 H16        -6.8598    0.9373   -1.7823 H         1 <0>         0.1254
     56 H17        -7.6139    1.7243   -6.3338 H         1 <0>         0.0724
     57 H18        -6.1019    1.2629   -7.1517 H         1 <0>         0.0694
     58 H19        -6.7300   -1.1285   -6.9639 H         1 <0>         0.0766
     59 H20        -8.2421   -0.6671   -6.1459 H         1 <0>         0.0524
     60 H21        -7.4390    0.2472   -8.9440 H         1 <0>         0.0892
     61 H22        -8.9653    1.7610   -7.6278 H         1 <0>         0.0933
     62 H23        -9.7485    1.0597   -9.0672 H         1 <0>         0.0658
     63 H24       -11.5415   -1.4456   -6.7951 H         1 <0>         0.0841
     64 H25       -11.4272   -1.0298   -8.5246 H         1 <0>         0.0651
     65 H26        -9.2085   -2.1894   -6.7761 H         1 <0>         0.0624
     66 H27       -10.0666   -3.0225   -8.0952 H         1 <0>         0.0791
     67 H28        -9.2047   -1.3326   -9.7060 H         1 <0>         0.0630
     68 H29       -11.3498    1.2523   -3.5699 H         1 <0>         0.0656
     69 H30       -12.6183    2.0151   -4.5584 H         1 <0>         0.0635
     70 H31       -14.0700    0.0035   -4.1613 H         1 <0>         0.0801
     71 H32       -13.3989   -1.5776   -2.3729 H         1 <0>         0.0555
     72 H33       -12.2412   -1.6131   -3.7246 H         1 <0>         0.0641
     73 H34       -11.8323   -0.7455   -2.2251 H         1 <0>         0.0546
     74 H35       -14.2665    2.0241   -2.7375 H         1 <0>         0.0570
     75 H36       -14.5815    0.5464   -1.7965 H         1 <0>         0.0634
     76 H37       -13.0150    1.3785   -1.6487 H         1 <0>         0.0584
@<TRIPOS>BOND
     1    1    2 1
     2    1   40 1
     3    1   41 1
     4    1   42 1
     5    2    6 1
     6    2    3 2
     7    3    4 1
     8    3   13 1
     9    4    5 2
    10    5    6 1
    11    5    7 1
    12    7   12 ar
    13    7    8 ar
    14    8    9 ar
    15    8   43 1
    16    9   10 ar
    17    9   44 1
    18   10   11 ar
    19   10   45 1
    20   11   12 ar
    21   11   46 1
    22   12   47 1
    23   13   14 1
    24   13   48 1
    25   13   49 1
    26   14   15 1
    27   14   50 1
    28   14   51 1
    29   15   16 1
    30   16   21 ar
    31   16   17 ar
    32   17   18 ar
    33   17   52 1
    34   18   19 ar
    35   18   53 1
    36   19   20 ar
    37   19   22 1
    38   20   21 ar
    39   20   54 1
    40   21   55 1
    41   22   23 1
    42   22   56 1
    43   22   57 1
    44   23   24 1
    45   23   58 1
    46   23   59 1
    47   24   29 1
    48   24   25 1
    49   24   60 1
    50   25   26 1
    51   25   61 1
    52   25   62 1
    53   26   27 1
    54   26   33 am
    55   27   28 1
    56   27   63 1
    57   27   64 1
    58   28   29 1
    59   28   65 1
    60   28   66 1
    61   29   30 1
    62   29   67 1
    63   30   31 2
    64   30   32 1
    65   33   34 2
    66   33   35 1
    67   35   36 1
    68   36   37 1
    69   36   68 1
    70   36   69 1
    71   37   38 1
    72   37   39 1
    73   37   70 1
    74   38   71 1
    75   38   72 1
    76   38   73 1
    77   39   74 1
    78   39   75 1
    79   39   76 1
@<TRIPOS>MOLECULE
CHEMBL257164__1
   76    79     0     0     0
SMALL
USER_CHARGES

@<TRIPOS>ATOM
      1 C1         -0.0184    1.5028    0.0103 C.3       1 <0>        -0.0712
      2 C2          0.0021   -0.0041    0.0020 C.2       1 <0>        -0.0337
      3 C3         -1.0705   -0.8164    0.0025 C.2       1 <0>        -0.0067
      4 N1         -0.6270   -2.0826   -0.0064 N.2       1 <0>        -0.4586
      5 C4          0.6851   -2.0676   -0.0123 C.2       1 <0>         0.2309
      6 O1          1.0981   -0.7883   -0.0131 O.3       1 <0>        -0.1932
      7 C5          1.5619   -3.2577   -0.0227 C.ar      1 <0>        -0.0182
      8 C6          1.0059   -4.5378   -0.0330 C.ar      1 <0>        -0.0698
      9 C7          1.8298   -5.6443   -0.0432 C.ar      1 <0>        -0.1200
     10 C8          3.2044   -5.4871   -0.0433 C.ar      1 <0>        -0.1006
     11 C9          3.7620   -4.2209   -0.0327 C.ar      1 <0>        -0.1216
     12 C10         2.9493   -3.1060   -0.0282 C.ar      1 <0>        -0.0906
     13 C11        -2.5133   -0.3814    0.0119 C.3       1 <0>        -0.0335
     14 C12        -3.0085   -0.2260   -1.4274 C.3       1 <0>         0.0674
     15 O2         -4.3766    0.1865   -1.4185 O.3       1 <0>        -0.3166
     16 C13        -4.9731    0.3716   -2.6255 C.ar      1 <0>         0.1170
     17 C14        -4.2580    0.1549   -3.7944 C.ar      1 <0>        -0.2036
     18 C15        -4.8667    0.3432   -5.0201 C.ar      1 <0>        -0.0732
     19 C16        -6.1874    0.7477   -5.0825 C.ar      1 <0>        -0.1035
     20 C17        -6.9021    0.9648   -3.9190 C.ar      1 <0>        -0.0798
     21 C18        -6.2998    0.7719   -2.6908 C.ar      1 <0>        -0.1497
     22 C19        -6.8489    0.9529   -6.4210 C.3       1 <0>        -0.0788
     23 C20        -7.4951   -0.3570   -6.8767 C.3       1 <0>        -0.1005
     24 C21        -8.1666   -0.1487   -8.2355 C.3       1 <0>        -0.0757
     25 C22        -9.3267    0.8406   -8.0863 C.3       1 <0>         0.1290
     26 N2        -10.0400    0.9297   -9.3677 N.am      1 <0>        -0.5848
     27 C23       -10.5211   -0.3082   -9.9960 C.3       1 <0>         0.1130
     28 C24        -9.3477   -1.2846  -10.1238 C.3       1 <0>        -0.1128
     29 C25        -8.7047   -1.4859   -8.7497 C.3       1 <0>        -0.1509
     30 C26        -7.5712   -2.4722   -8.8654 C.2       1 <0>         0.5018
     31 O3         -7.7393   -3.6351   -8.5397 O.co2     1 <0>        -0.7028
     32 O4         -6.4861   -2.1073   -9.2847 O.co2     1 <0>        -0.6945
     33 C27       -10.2493    2.1244   -9.9554 C.2       1 <0>         0.6492
     34 O5         -9.8468    3.1411   -9.4255 O.2       1 <0>        -0.5811
     35 O6        -10.9045    2.1913  -11.1297 O.3       1 <0>        -0.3625
     36 C28       -11.0909    3.4902  -11.6955 C.3       1 <0>         0.0891
     37 C29       -11.8494    3.3662  -13.0185 C.3       1 <0>        -0.0965
     38 C30       -13.2591    2.8355  -12.7503 C.3       1 <0>        -0.1466
     39 C31       -11.9400    4.7404  -13.6851 C.3       1 <0>        -0.1447
     40 H1          1.0042    1.8801    0.0026 H         1 <0>         0.0804
     41 H2         -0.5455    1.8639   -0.8728 H         1 <0>         0.0919
     42 H3         -0.5286    1.8543    0.9071 H         1 <0>         0.0925
     43 H4         -0.0670   -4.6619   -0.0326 H         1 <0>         0.1395
     44 H5          1.4008   -6.6354   -0.0508 H         1 <0>         0.1333
     45 H6          3.8450   -6.3565   -0.0513 H         1 <0>         0.1286
     46 H7          4.8357   -4.1050   -0.0321 H         1 <0>         0.1305
     47 H8          3.3858   -2.1181   -0.0249 H         1 <0>         0.1298
     48 H9         -3.1156   -1.1316    0.5243 H         1 <0>         0.0947
     49 H10        -2.6018    0.5726    0.5316 H         1 <0>         0.0921
     50 H11        -2.4061    0.5242   -1.9398 H         1 <0>         0.0606
     51 H12        -2.9200   -1.1800   -1.9471 H         1 <0>         0.0667
     52 H13        -3.2262   -0.1604   -3.7462 H         1 <0>         0.1228
     53 H14        -4.3105    0.1747   -5.9304 H         1 <0>         0.1267
     54 H15        -7.9335    1.2810   -3.9704 H         1 <0>         0.1279
     55 H16        -6.8598    0.9373   -1.7823 H         1 <0>         0.1271
     56 H17        -7.6139    1.7243   -6.3338 H         1 <0>         0.0687
     57 H18        -6.1019    1.2629   -7.1517 H         1 <0>         0.0718
     58 H19        -6.7300   -1.1285   -6.9639 H         1 <0>         0.0810
     59 H20        -8.2421   -0.6671   -6.1459 H         1 <0>         0.0565
     60 H21        -7.4390    0.2472   -8.9440 H         1 <0>         0.0798
     61 H22       -10.0089    0.4897   -7.3120 H         1 <0>         0.0672
     62 H23        -8.9374    1.8221   -7.8158 H         1 <0>         0.0921
     63 H24       -11.3007   -0.7528   -9.3774 H         1 <0>         0.0676
     64 H25       -10.9200   -0.0847  -10.9855 H         1 <0>         0.0858
     65 H26        -9.7099   -2.2415  -10.4997 H         1 <0>         0.0720
     66 H27        -8.6094   -0.8777  -10.8148 H         1 <0>         0.0657
     67 H28        -9.4499   -1.8696   -8.0528 H         1 <0>         0.0617
     68 H29       -11.6640    4.1087  -11.0047 H         1 <0>         0.0648
     69 H30       -10.1195    3.9510  -11.8754 H         1 <0>         0.0655
     70 H31       -11.3208    2.6770  -13.6771 H         1 <0>         0.0822
     71 H32       -13.7994    2.7472  -13.6928 H         1 <0>         0.0558
     72 H33       -13.1945    1.8565  -12.2753 H         1 <0>         0.0628
     73 H34       -13.7876    3.5247  -12.0917 H         1 <0>         0.0532
     74 H35       -10.9357    5.1185  -13.8762 H         1 <0>         0.0583
     75 H36       -12.4804    4.6520  -14.6276 H         1 <0>         0.0637
     76 H37       -12.4685    5.4296  -13.0265 H         1 <0>         0.0576
@<TRIPOS>BOND
     1    1    2 1
     2    1   40 1
     3    1   41 1
     4    1   42 1
     5    2    6 1
     6    2    3 2
     7    3    4 1
     8    3   13 1
     9    4    5 2
    10    5    6 1
    11    5    7 1
    12    7   12 ar
    13    7    8 ar
    14    8    9 ar
    15    8   43 1
    16    9   10 ar
    17    9   44 1
    18   10   11 ar
    19   10   45 1
    20   11   12 ar
    21   11   46 1
    22   12   47 1
    23   13   14 1
    24   13   48 1
    25   13   49 1
    26   14   15 1
    27   14   50 1
    28   14   51 1
    29   15   16 1
    30   16   21 ar
    31   16   17 ar
    32   17   18 ar
    33   17   52 1
    34   18   19 ar
    35   18   53 1
    36   19   20 ar
    37   19   22 1
    38   20   21 ar
    39   20   54 1
    40   21   55 1
    41   22   23 1
    42   22   56 1
    43   22   57 1
    44   23   24 1
    45   23   58 1
    46   23   59 1
    47   24   29 1
    48   24   25 1
    49   24   60 1
    50   25   26 1
    51   25   61 1
    52   25   62 1
    53   26   27 1
    54   26   33 am
    55   27   28 1
    56   27   63 1
    57   27   64 1
    58   28   29 1
    59   28   65 1
    60   28   66 1
    61   29   30 1
    62   29   67 1
    63   30   31 2
    64   30   32 1
    65   33   34 2
    66   33   35 1
    67   35   36 1
    68   36   37 1
    69   36   68 1
    70   36   69 1
    71   37   38 1
    72   37   39 1
    73   37   70 1
    74   38   71 1
    75   38   72 1
    76   38   73 1
    77   39   74 1
    78   39   75 1
    79   39   76 1
@<TRIPOS>MOLECULE
CHEMBL257164__2
   76    79     0     0     0
SMALL
USER_CHARGES

@<TRIPOS>ATOM
      1 C1         -0.7613    2.8901    0.1857 C.3       1 <0>        -0.0715
      2 C2         -0.5170    1.4033    0.2096 C.2       1 <0>        -0.0334
      3 C3         -1.4562    0.4401    0.1899 C.2       1 <0>        -0.0062
      4 N1         -0.8297   -0.7457    0.2228 N.2       1 <0>        -0.4584
      5 C4          0.4650   -0.5352    0.2620 C.2       1 <0>         0.2299
      6 O1          0.6831    0.7912    0.2487 O.3       1 <0>        -0.1934
      7 C5          1.5086   -1.5812    0.3067 C.ar      1 <0>        -0.0179
      8 C6          1.1497   -2.9300    0.3040 C.ar      1 <0>        -0.0701
      9 C7          2.1286   -3.9012    0.3454 C.ar      1 <0>        -0.1202
     10 C8          3.4636   -3.5407    0.3896 C.ar      1 <0>        -0.1008
     11 C9          3.8262   -2.2055    0.3930 C.ar      1 <0>        -0.1215
     12 C10         2.8573   -1.2244    0.3460 C.ar      1 <0>        -0.0907
     13 C11        -2.9470    0.6551    0.1403 C.3       1 <0>        -0.0345
     14 C12        -3.4057    0.7126   -1.3182 C.3       1 <0>         0.0684
     15 O2         -4.8193    0.9164   -1.3652 O.3       1 <0>        -0.3158
     16 C13        -5.3912    0.9917   -2.5957 C.ar      1 <0>         0.1174
     17 C14        -4.6088    0.8660   -3.7344 C.ar      1 <0>        -0.2063
     18 C15        -5.1926    0.9424   -4.9841 C.ar      1 <0>        -0.0790
     19 C16        -6.5555    1.1443   -5.1006 C.ar      1 <0>        -0.1035
     20 C17        -7.3374    1.2703   -3.9673 C.ar      1 <0>        -0.0741
     21 C18        -6.7593    1.1885   -2.7152 C.ar      1 <0>        -0.1462
     22 C19        -7.1896    1.2277   -6.4651 C.3       1 <0>        -0.0799
     23 C20        -7.6167   -0.1708   -6.9154 C.3       1 <0>        -0.1005
     24 C21        -8.2605   -0.0861   -8.3007 C.3       1 <0>        -0.0774
     25 C22        -7.2096    0.3482   -9.3273 C.3       1 <0>         0.1303
     26 N2         -7.8093    0.2989  -10.6677 N.am      1 <0>        -0.5847
     27 C23        -8.4494   -0.9475  -11.1098 C.3       1 <0>         0.1121
     28 C24        -9.4864   -1.3674  -10.0633 C.3       1 <0>        -0.1124
     29 C25        -8.8132   -1.4586   -8.6919 C.3       1 <0>        -0.1507
     30 C26        -9.8227   -1.9044   -7.6657 C.2       1 <0>         0.5021
     31 O3        -10.8178   -1.2316   -7.4572 O.co2     1 <0>        -0.6964
     32 O4         -9.6443   -2.9379   -7.0440 O.co2     1 <0>        -0.7010
     33 C27        -7.7732    1.3766  -11.4762 C.2       1 <0>         0.6495
     34 O5         -7.2411    2.4017  -11.0988 O.2       1 <0>        -0.5814
     35 O6         -8.3267    1.3172  -12.7021 O.3       1 <0>        -0.3622
     36 C28        -8.2518    2.4967  -13.5055 C.3       1 <0>         0.0890
     37 C29        -8.9291    2.2397  -14.8531 C.3       1 <0>        -0.0953
     38 C30       -10.4232    1.9932  -14.6342 C.3       1 <0>        -0.1482
     39 C31        -8.7406    3.4580  -15.7592 C.3       1 <0>        -0.1447
     40 H1          0.1935    3.4156    0.2054 H         1 <0>         0.0804
     41 H2         -1.3030    3.1548   -0.7224 H         1 <0>         0.0919
     42 H3         -1.3512    3.1755    1.0567 H         1 <0>         0.0930
     43 H4          0.1079   -3.2127    0.2699 H         1 <0>         0.1394
     44 H5          1.8522   -4.9452    0.3437 H         1 <0>         0.1332
     45 H6          4.2261   -4.3049    0.4219 H         1 <0>         0.1286
     46 H7          4.8700   -1.9307    0.4283 H         1 <0>         0.1305
     47 H8          3.1418   -0.1825    0.3439 H         1 <0>         0.1298
     48 H9         -3.4499   -0.1685    0.6472 H         1 <0>         0.0953
     49 H10        -3.1955    1.5931    0.6366 H         1 <0>         0.0926
     50 H11        -2.9028    1.5362   -1.8250 H         1 <0>         0.0600
     51 H12        -3.1572   -0.2255   -1.8145 H         1 <0>         0.0656
     52 H13        -3.5441    0.7090   -3.6440 H         1 <0>         0.1217
     53 H14        -4.5839    0.8446   -5.8709 H         1 <0>         0.1227
     54 H15        -8.4017    1.4283   -4.0609 H         1 <0>         0.1316
     55 H16        -7.3711    1.2826   -1.8302 H         1 <0>         0.1287
     56 H17        -8.0635    1.8777   -6.4205 H         1 <0>         0.0724
     57 H18        -6.4703    1.6344   -7.1759 H         1 <0>         0.0687
     58 H19        -6.7428   -0.8208   -6.9600 H         1 <0>         0.0593
     59 H20        -8.3360   -0.5775   -6.2046 H         1 <0>         0.0790
     60 H21        -9.0725    0.6408   -8.2807 H         1 <0>         0.0783
     61 H22        -6.8848    1.3657   -9.1095 H         1 <0>         0.0921
     62 H23        -6.3554   -0.3274   -9.2840 H         1 <0>         0.0676
     63 H24        -8.9426   -0.7851  -12.0682 H         1 <0>         0.0857
     64 H25        -7.6963   -1.7289  -11.2119 H         1 <0>         0.0667
     65 H26       -10.2867   -0.6283  -10.0272 H         1 <0>         0.0698
     66 H27        -9.9002   -2.3396  -10.3308 H         1 <0>         0.0692
     67 H28        -7.9970   -2.1798   -8.7353 H         1 <0>         0.0612
     68 H29        -8.7574    3.3165  -12.9953 H         1 <0>         0.0660
     69 H30        -7.2066    2.7596  -13.6685 H         1 <0>         0.0642
     70 H31        -8.4816    1.3642  -15.3236 H         1 <0>         0.0806
     71 H32       -10.9057    1.8101  -15.5943 H         1 <0>         0.0558
     72 H33       -10.5575    1.1252  -13.9887 H         1 <0>         0.0642
     73 H34       -10.8707    2.8687  -14.1637 H         1 <0>         0.0546
     74 H35        -7.6762    3.6336  -15.9152 H         1 <0>         0.0572
     75 H36        -9.2231    3.2749  -16.7193 H         1 <0>         0.0637
     76 H37        -9.1882    4.3334  -15.2888 H         1 <0>         0.0584
@<TRIPOS>BOND
     1    1    2 1
     2    1   40 1
     3    1   41 1
     4    1   42 1
     5    2    6 1
     6    2    3 2
     7    3    4 1
     8    3   13 1
     9    4    5 2
    10    5    6 1
    11    5    7 1
    12    7   12 ar
    13    7    8 ar
    14    8    9 ar
    15    8   43 1
    16    9   10 ar
    17    9   44 1
    18   10   11 ar
    19   10   45 1
    20   11   12 ar
    21   11   46 1
    22   12   47 1
    23   13   14 1
    24   13   48 1
    25   13   49 1
    26   14   15 1
    27   14   50 1
    28   14   51 1
    29   15   16 1
    30   16   21 ar
    31   16   17 ar
    32   17   18 ar
    33   17   52 1
    34   18   19 ar
    35   18   53 1
    36   19   20 ar
    37   19   22 1
    38   20   21 ar
    39   20   54 1
    40   21   55 1
    41   22   23 1
    42   22   56 1
    43   22   57 1
    44   23   24 1
    45   23   58 1
    46   23   59 1
    47   24   29 1
    48   24   25 1
    49   24   60 1
    50   25   26 1
    51   25   61 1
    52   25   62 1
    53   26   27 1
    54   26   33 am
    55   27   28 1
    56   27   63 1
    57   27   64 1
    58   28   29 1
    59   28   65 1
    60   28   66 1
    61   29   30 1
    62   29   67 1
    63   30   31 2
    64   30   32 1
    65   33   34 2
    66   33   35 1
    67   35   36 1
    68   36   37 1
    69   36   68 1
    70   36   69 1
    71   37   38 1
    72   37   39 1
    73   37   70 1
    74   38   71 1
    75   38   72 1
    76   38   73 1
    77   39   74 1
    78   39   75 1
    79   39   76 1
@<TRIPOS>MOLECULE
CHEMBL257164__3
   76    79     0     0     0
SMALL
USER_CHARGES

@<TRIPOS>ATOM
      1 C1         -0.2828    1.7928    0.2115 C.3       1 <0>        -0.0715
      2 C2         -0.1265    0.2963    0.1275 C.2       1 <0>        -0.0331
      3 C3         -1.1214   -0.6077    0.0706 C.2       1 <0>        -0.0061
      4 N1         -0.5656   -1.8270    0.0047 N.2       1 <0>        -0.4584
      5 C4          0.7398   -1.6943    0.0196 C.2       1 <0>         0.2295
      6 O1          1.0358   -0.3849    0.0896 O.3       1 <0>        -0.1933
      7 C5          1.7204   -2.7990   -0.0374 C.ar      1 <0>        -0.0175
      8 C6          1.2822   -4.1215   -0.1207 C.ar      1 <0>        -0.0703
      9 C7          2.2026   -5.1479   -0.1741 C.ar      1 <0>        -0.1202
     10 C8          3.5574   -4.8685   -0.1453 C.ar      1 <0>        -0.1009
     11 C9          3.9984   -3.5597   -0.0623 C.ar      1 <0>        -0.1214
     12 C10         3.0885   -2.5238   -0.0141 C.ar      1 <0>        -0.0907
     13 C11        -2.5976   -0.3047    0.0799 C.3       1 <0>        -0.0343
     14 C12        -3.0893   -0.1201   -1.3571 C.3       1 <0>         0.0687
     15 O2         -4.4891    0.1673   -1.3484 O.3       1 <0>        -0.3161
     16 C13        -5.0869    0.3603   -2.5535 C.ar      1 <0>         0.1159
     17 C14        -4.3427    0.2691   -3.7208 C.ar      1 <0>        -0.2065
     18 C15        -4.9528    0.4652   -4.9446 C.ar      1 <0>        -0.0764
     19 C16        -6.3039    0.7525   -5.0067 C.ar      1 <0>        -0.1005
     20 C17        -7.0476    0.8444   -3.8448 C.ar      1 <0>        -0.0749
     21 C18        -6.4435    0.6431   -2.6188 C.ar      1 <0>        -0.1475
     22 C19        -6.9667    0.9665   -6.3431 C.3       1 <0>        -0.0809
     23 C20        -7.4873   -0.3707   -6.8740 C.3       1 <0>        -0.0966
     24 C21        -8.1603   -0.1535   -8.2308 C.3       1 <0>        -0.0771
     25 C22        -7.1102    0.2786   -9.2591 C.3       1 <0>         0.1267
     26 N2         -6.1664   -0.8284   -9.4650 N.am      1 <0>        -0.5812
     27 C23        -6.6963   -2.1513   -9.8226 C.3       1 <0>         0.1097
     28 C24        -7.7510   -2.5562   -8.7880 C.3       1 <0>        -0.1087
     29 C25        -8.8132   -1.4586   -8.6919 C.3       1 <0>        -0.1515
     30 C26        -9.8707   -1.8689   -7.6997 C.2       1 <0>         0.4999
     31 O3        -10.5395   -1.0198   -7.1355 O.co2     1 <0>        -0.6965
     32 O4        -10.0575   -3.0498   -7.4612 O.co2     1 <0>        -0.6993
     33 C27        -4.8397   -0.6340   -9.3287 C.2       1 <0>         0.6486
     34 O5         -4.4139    0.4650   -9.0330 O.2       1 <0>        -0.5810
     35 O6         -3.9861   -1.6574   -9.5203 O.3       1 <0>        -0.3627
     36 C28        -2.5937   -1.3797   -9.3594 C.3       1 <0>         0.0905
     37 C29        -1.7866   -2.6541   -9.6152 C.3       1 <0>        -0.0966
     38 C30        -1.9489   -3.0759  -11.0769 C.3       1 <0>        -0.1461
     39 C31        -0.3085   -2.3891   -9.3220 C.3       1 <0>        -0.1445
     40 H1          0.7016    2.2600    0.2384 H         1 <0>         0.0804
     41 H2         -0.8309    2.1504   -0.6602 H         1 <0>         0.0919
     42 H3         -0.8322    2.0505    1.1170 H         1 <0>         0.0930
     43 H4          0.2250   -4.3410   -0.1430 H         1 <0>         0.1393
     44 H5          1.8649   -6.1717   -0.2382 H         1 <0>         0.1331
     45 H6          4.2738   -5.6755   -0.1873 H         1 <0>         0.1285
     46 H7          5.0572   -3.3484   -0.0395 H         1 <0>         0.1305
     47 H8          3.4341   -1.5023    0.0458 H         1 <0>         0.1298
     48 H9         -3.1353   -1.1311    0.5445 H         1 <0>         0.0950
     49 H10        -2.7773    0.6095    0.6456 H         1 <0>         0.0926
     50 H11        -2.5516    0.7064   -1.8218 H         1 <0>         0.0597
     51 H12        -2.9096   -1.0342   -1.9229 H         1 <0>         0.0648
     52 H13        -3.2872    0.0453   -3.6728 H         1 <0>         0.1200
     53 H14        -4.3739    0.3943   -5.8536 H         1 <0>         0.1211
     54 H15        -8.1027    1.0694   -3.8959 H         1 <0>         0.1320
     55 H16        -7.0258    0.7106   -1.7118 H         1 <0>         0.1282
     56 H17        -7.7991    1.6608   -6.2288 H         1 <0>         0.0709
     57 H18        -6.2430    1.3794   -7.0457 H         1 <0>         0.0713
     58 H19        -6.6549   -1.0651   -6.9884 H         1 <0>         0.0525
     59 H20        -8.2111   -0.7837   -6.1714 H         1 <0>         0.0752
     60 H21        -8.9213    0.6215   -8.1395 H         1 <0>         0.0902
     61 H22        -7.6003    0.5211  -10.2020 H         1 <0>         0.0663
     62 H23        -6.5737    1.1521   -8.8886 H         1 <0>         0.0929
     63 H24        -7.1526   -2.1070  -10.8115 H         1 <0>         0.0651
     64 H25        -5.8866   -2.8811   -9.8239 H         1 <0>         0.0838
     65 H26        -8.2205   -3.4911   -9.0939 H         1 <0>         0.0786
     66 H27        -7.2754   -2.6883   -7.8162 H         1 <0>         0.0628
     67 H28        -9.2711   -1.3098   -9.6698 H         1 <0>         0.0630
     68 H29        -2.2922   -0.6100  -10.0699 H         1 <0>         0.0642
     69 H30        -2.4079   -1.0296   -8.3440 H         1 <0>         0.0638
     70 H31        -2.1489   -3.4503   -8.9649 H         1 <0>         0.0820
     71 H32        -1.3739   -3.9838  -11.2591 H         1 <0>         0.0558
     72 H33        -3.0019   -3.2647  -11.2858 H         1 <0>         0.0630
     73 H34        -1.5865   -2.2797  -11.7272 H         1 <0>         0.0529
     74 H35        -0.1928   -2.0886   -8.2806 H         1 <0>         0.0575
     75 H36         0.2665   -3.2970   -9.5041 H         1 <0>         0.0637
     76 H37         0.0539   -1.5930   -9.9723 H         1 <0>         0.0575
@<TRIPOS>BOND
     1    1    2 1
     2    1   40 1
     3    1   41 1
     4    1   42 1
     5    2    6 1
     6    2    3 2
     7    3    4 1
     8    3   13 1
     9    4    5 2
    10    5    6 1
    11    5    7 1
    12    7   12 ar
    13    7    8 ar
    14    8    9 ar
    15    8   43 1
    16    9   10 ar
    17    9   44 1
    18   10   11 ar
    19   10   45 1
    20   11   12 ar
    21   11   46 1
    22   12   47 1
    23   13   14 1
    24   13   48 1
    25   13   49 1
    26   14   15 1
    27   14   50 1
    28   14   51 1
    29   15   16 1
    30   16   21 ar
    31   16   17 ar
    32   17   18 ar
    33   17   52 1
    34   18   19 ar
    35   18   53 1
    36   19   20 ar
    37   19   22 1
    38   20   21 ar
    39   20   54 1
    40   21   55 1
    41   22   23 1
    42   22   56 1
    43   22   57 1
    44   23   24 1
    45   23   58 1
    46   23   59 1
    47   24   29 1
    48   24   25 1
    49   24   60 1
    50   25   26 1
    51   25   61 1
    52   25   62 1
    53   26   27 1
    54   26   33 am
    55   27   28 1
    56   27   63 1
    57   27   64 1
    58   28   29 1
    59   28   65 1
    60   28   66 1
    61   29   30 1
    62   29   67 1
    63   30   31 2
    64   30   32 1
    65   33   34 2
    66   33   35 1
    67   35   36 1
    68   36   37 1
    69   36   68 1
    70   36   69 1
    71   37   38 1
    72   37   39 1
    73   37   70 1
    74   38   71 1
    75   38   72 1
    76   38   73 1
    77   39   74 1
    78   39   75 1
    79   39   76 1
@<TRIPOS>MOLECULE
CHEMBL122418
   69    72     0     0     0
SMALL
USER_CHARGES

@<TRIPOS>ATOM
      1 C1         -0.0187    1.5258    0.0104 C.3       1 <0>        -0.1526
      2 C2          0.0021   -0.0041    0.0020 C.3       1 <0>        -0.1153
      3 C3         -1.4333   -0.5336    0.0129 C.3       1 <0>        -0.0720
      4 C4         -1.4129   -2.0405    0.0046 C.ar      1 <0>        -0.1076
      5 C5         -1.5134   -2.7268   -1.1904 C.ar      1 <0>        -0.0758
      6 C6         -1.4953   -4.1091   -1.1986 C.ar      1 <0>        -0.1090
      7 C7         -1.3760   -4.8084   -0.0116 C.ar      1 <0>        -0.0826
      8 C8         -1.2747   -4.1270    1.1856 C.ar      1 <0>        -0.2033
      9 C9         -1.2874   -2.7396    1.1961 C.ar      1 <0>         0.1263
     10 O1         -1.1822   -2.0667    2.3721 O.3       1 <0>        -0.3075
     11 C10        -1.0560   -2.8517    3.5596 C.3       1 <0>         0.0645
     12 C11        -0.9506   -1.9266    4.7737 C.3       1 <0>        -0.1197
     13 C12        -0.8154   -2.7670    6.0450 C.3       1 <0>         0.0636
     14 O2         -0.7169   -1.9030    7.1789 O.3       1 <0>        -0.3080
     15 C13        -0.5904   -2.4943    8.3960 C.ar      1 <0>         0.1360
     16 C14        -0.5559   -3.8777    8.4963 C.ar      1 <0>        -0.1914
     17 C15        -0.4268   -4.4763    9.7344 C.ar      1 <0>        -0.0708
     18 C16        -0.3320   -3.6979   10.8734 C.ar      1 <0>        -0.1323
     19 C17        -0.3666   -2.3193   10.7763 C.ar      1 <0>        -0.0409
     20 C18        -0.4899   -1.7156    9.5396 C.ar      1 <0>        -0.1186
     21 C19        -0.2636   -1.4741   12.0197 C.3       1 <0>        -0.0337
     22 C20         0.9442   -1.8676   12.8585 C.2       1 <0>         0.5342
     23 O3          2.0799   -1.7685   12.4458 O.2       1 <0>        -0.4481
     24 N1          0.6692   -2.3255   14.0682 N.am      1 <0>        -0.6896
     25 C21        -0.5820   -2.4455   14.5494 C.2       1 <0>         0.5628
     26 O4         -0.9297   -2.8528   15.6409 O.2       1 <0>        -0.4137
     27 S1         -1.6128   -1.8659   13.2099 S.3       1 <0>        -0.1361
     28 C22        -1.6061   -4.8551   -2.5033 C.3       1 <0>        -0.0737
     29 C23        -0.2074   -5.0878   -3.0781 C.3       1 <0>        -0.0802
     30 C24         0.4282   -3.7423   -3.4339 C.3       1 <0>        -0.1160
     31 C25         1.8268   -3.9751   -4.0087 C.3       1 <0>        -0.1200
     32 C26         1.7237   -4.8391   -5.2672 C.3       1 <0>        -0.1206
     33 C27         1.0881   -6.1846   -4.9114 C.3       1 <0>        -0.1200
     34 C28        -0.3105   -5.9519   -4.3366 C.3       1 <0>        -0.1150
     35 H1          1.0039    1.9031    0.0027 H         1 <0>         0.0539
     36 H2         -0.5459    1.8868   -0.8726 H         1 <0>         0.0533
     37 H3         -0.5289    1.8773    0.9072 H         1 <0>         0.0546
     38 H4          0.5123   -0.3556   -0.8948 H         1 <0>         0.0593
     39 H5          0.5293   -0.3651    0.8851 H         1 <0>         0.0628
     40 H6         -1.9435   -0.1821    0.9097 H         1 <0>         0.0749
     41 H7         -1.9605   -0.1726   -0.8702 H         1 <0>         0.0691
     42 H8         -1.6067   -2.1829   -2.1187 H         1 <0>         0.1272
     43 H9         -1.3624   -5.8883   -0.0206 H         1 <0>         0.1223
     44 H10        -1.1816   -4.6736    2.1124 H         1 <0>         0.1253
     45 H11        -1.9311   -3.4927    3.6661 H         1 <0>         0.0652
     46 H12        -0.1596   -3.4684    3.4938 H         1 <0>         0.0652
     47 H13        -0.0755   -1.2855    4.6671 H         1 <0>         0.0880
     48 H14        -1.8469   -1.3099    4.8394 H         1 <0>         0.0880
     49 H15        -1.6905   -3.4081    6.1515 H         1 <0>         0.0685
     50 H16         0.0810   -3.3837    5.9792 H         1 <0>         0.0682
     51 H17        -0.6302   -4.4861    7.6070 H         1 <0>         0.1337
     52 H18        -0.4001   -5.5531    9.8129 H         1 <0>         0.1337
     53 H19        -0.2311   -4.1678   11.8406 H         1 <0>         0.1208
     54 H20        -0.5124   -0.6385    9.4637 H         1 <0>         0.1406
     55 H21        -0.2476   -0.4124   11.7736 H         1 <0>         0.1697
     56 H22         1.4082   -2.5890   14.6387 H         1 <0>         0.4203
     57 H23        -2.0932   -5.8151   -2.3326 H         1 <0>         0.0709
     58 H24        -2.1956   -4.2687   -3.2081 H         1 <0>         0.0712
     59 H25         0.4097   -5.5967   -2.3376 H         1 <0>         0.0696
     60 H26        -0.1889   -3.2335   -4.1744 H         1 <0>         0.0603
     61 H27         0.5016   -3.1268   -2.5373 H         1 <0>         0.0658
     62 H28         2.2796   -3.0166   -4.2622 H         1 <0>         0.0600
     63 H29         2.4439   -4.4840   -3.2682 H         1 <0>         0.0595
     64 H30         1.1066   -4.3303   -6.0077 H         1 <0>         0.0608
     65 H31         2.7202   -5.0050   -5.6767 H         1 <0>         0.0594
     66 H32         1.0147   -6.8002   -5.8079 H         1 <0>         0.0607
     67 H33         1.7052   -6.6935   -4.1709 H         1 <0>         0.0603
     68 H34        -0.7633   -6.9104   -4.0831 H         1 <0>         0.0610
     69 H35        -0.9276   -5.4430   -5.0771 H         1 <0>         0.0623
@<TRIPOS>BOND
     1    1    2 1
     2    1   35 1
     3    1   36 1
     4    1   37 1
     5    2    3 1
     6    2   38 1
     7    2   39 1
     8    3    4 1
     9    3   40 1
    10    3   41 1
    11    4    9 ar
    12    4    5 ar
    13    5    6 ar
    14    5   42 1
    15    6    7 ar
    16    6   28 1
    17    7    8 ar
    18    7   43 1
    19    8    9 ar
    20    8   44 1
    21    9   10 1
    22   10   11 1
    23   11   12 1
    24   11   45 1
    25   11   46 1
    26   12   13 1
    27   12   47 1
    28   12   48 1
    29   13   14 1
    30   13   49 1
    31   13   50 1
    32   14   15 1
    33   15   20 ar
    34   15   16 ar
    35   16   17 ar
    36   16   51 1
    37   17   18 ar
    38   17   52 1
    39   18   19 ar
    40   18   53 1
    41   19   20 ar
    42   19   21 1
    43   20   54 1
    44   21   27 1
    45   21   22 1
    46   21   55 1
    47   22   23 2
    48   22   24 am
    49   24   25 am
    50   24   56 1
    51   25   26 2
    52   25   27 1
    53   28   29 1
    54   28   57 1
    55   28   58 1
    56   29   34 1
    57   29   30 1
    58   29   59 1
    59   30   31 1
    60   30   60 1
    61   30   61 1
    62   31   32 1
    63   31   62 1
    64   31   63 1
    65   32   33 1
    66   32   64 1
    67   32   65 1
    68   33   34 1
    69   33   66 1
    70   33   67 1
    71   34   68 1
    72   34   69 1
@<TRIPOS>MOLECULE
CHEMBL122418__1
   69    72     0     0     0
SMALL
USER_CHARGES

@<TRIPOS>ATOM
      1 C1         -0.0187    1.5258    0.0104 C.3       1 <0>        -0.1526
      2 C2          0.0021   -0.0041    0.0020 C.3       1 <0>        -0.1154
      3 C3         -1.4333   -0.5336    0.0129 C.3       1 <0>        -0.0720
      4 C4         -1.4129   -2.0405    0.0046 C.ar      1 <0>        -0.1071
      5 C5         -1.5134   -2.7268   -1.1904 C.ar      1 <0>        -0.0779
      6 C6         -1.4953   -4.1091   -1.1986 C.ar      1 <0>        -0.1089
      7 C7         -1.3760   -4.8084   -0.0116 C.ar      1 <0>        -0.0804
      8 C8         -1.2747   -4.1270    1.1856 C.ar      1 <0>        -0.2040
      9 C9         -1.2874   -2.7396    1.1961 C.ar      1 <0>         0.1264
     10 O1         -1.1822   -2.0667    2.3721 O.3       1 <0>        -0.3075
     11 C10        -1.0560   -2.8517    3.5596 C.3       1 <0>         0.0646
     12 C11        -0.9506   -1.9266    4.7737 C.3       1 <0>        -0.1197
     13 C12        -0.8154   -2.7670    6.0450 C.3       1 <0>         0.0636
     14 O2         -0.7169   -1.9030    7.1789 O.3       1 <0>        -0.3080
     15 C13        -0.5904   -2.4943    8.3960 C.ar      1 <0>         0.1360
     16 C14        -0.5559   -3.8777    8.4963 C.ar      1 <0>        -0.1914
     17 C15        -0.4268   -4.4763    9.7344 C.ar      1 <0>        -0.0707
     18 C16        -0.3320   -3.6979   10.8734 C.ar      1 <0>        -0.1323
     19 C17        -0.3666   -2.3193   10.7763 C.ar      1 <0>        -0.0408
     20 C18        -0.4899   -1.7156    9.5396 C.ar      1 <0>        -0.1187
     21 C19        -0.2636   -1.4741   12.0197 C.3       1 <0>        -0.0337
     22 C20        -1.2760   -1.9085   13.0702 C.2       1 <0>         0.5343
     23 O3         -2.4720   -1.8523   12.8799 O.2       1 <0>        -0.4481
     24 N1         -0.7608   -2.3518   14.2046 N.am      1 <0>        -0.6896
     25 C21         0.5624   -2.4244   14.4403 C.2       1 <0>         0.5629
     26 O4          1.1247   -2.8156   15.4447 O.2       1 <0>        -0.4136
     27 S1          1.2996   -1.8123   12.9321 S.3       1 <0>        -0.1364
     28 C22        -1.6061   -4.8551   -2.5033 C.3       1 <0>        -0.0736
     29 C23        -0.2074   -5.0878   -3.0781 C.3       1 <0>        -0.0803
     30 C24         0.5786   -6.0139   -2.1479 C.3       1 <0>        -0.1156
     31 C25         1.9773   -6.2467   -2.7227 C.3       1 <0>        -0.1202
     32 C26         1.8597   -6.8923   -4.1048 C.3       1 <0>        -0.1205
     33 C27         1.0737   -5.9662   -5.0351 C.3       1 <0>        -0.1201
     34 C28        -0.3250   -5.7334   -4.4602 C.3       1 <0>        -0.1150
     35 H1          1.0039    1.9031    0.0027 H         1 <0>         0.0539
     36 H2         -0.5459    1.8868   -0.8726 H         1 <0>         0.0533
     37 H3         -0.5289    1.8773    0.9072 H         1 <0>         0.0546
     38 H4          0.5123   -0.3556   -0.8948 H         1 <0>         0.0593
     39 H5          0.5293   -0.3651    0.8851 H         1 <0>         0.0628
     40 H6         -1.9435   -0.1821    0.9097 H         1 <0>         0.0749
     41 H7         -1.9605   -0.1726   -0.8702 H         1 <0>         0.0692
     42 H8         -1.6067   -2.1829   -2.1187 H         1 <0>         0.1268
     43 H9         -1.3624   -5.8883   -0.0206 H         1 <0>         0.1227
     44 H10        -1.1816   -4.6736    2.1124 H         1 <0>         0.1253
     45 H11        -1.9311   -3.4927    3.6661 H         1 <0>         0.0652
     46 H12        -0.1596   -3.4684    3.4938 H         1 <0>         0.0652
     47 H13        -0.0755   -1.2855    4.6671 H         1 <0>         0.0880
     48 H14        -1.8469   -1.3099    4.8394 H         1 <0>         0.0880
     49 H15        -1.6905   -3.4081    6.1515 H         1 <0>         0.0683
     50 H16         0.0810   -3.3837    5.9792 H         1 <0>         0.0684
     51 H17        -0.6302   -4.4861    7.6070 H         1 <0>         0.1337
     52 H18        -0.4001   -5.5531    9.8129 H         1 <0>         0.1337
     53 H19        -0.2311   -4.1678   11.8406 H         1 <0>         0.1208
     54 H20        -0.5124   -0.6385    9.4637 H         1 <0>         0.1406
     55 H21        -0.3645   -0.4145   11.7848 H         1 <0>         0.1697
     56 H22        -1.3685   -2.6395   14.9037 H         1 <0>         0.4203
     57 H23        -2.0932   -5.8151   -2.3326 H         1 <0>         0.0706
     58 H24        -2.1956   -4.2687   -3.2081 H         1 <0>         0.0715
     59 H25         0.3128   -4.1340   -3.1657 H         1 <0>         0.0705
     60 H26         0.6624   -5.5540   -1.1632 H         1 <0>         0.0649
     61 H27         0.0584   -6.9678   -2.0603 H         1 <0>         0.0597
     62 H28         2.4975   -5.2929   -2.8102 H         1 <0>         0.0600
     63 H29         2.5373   -6.9065   -2.0599 H         1 <0>         0.0594
     64 H30         2.8562   -7.0581   -4.5143 H         1 <0>         0.0595
     65 H31         1.3395   -7.8461   -4.0172 H         1 <0>         0.0605
     66 H32         1.5939   -5.0123   -5.1226 H         1 <0>         0.0608
     67 H33         0.9899   -6.4261   -6.0197 H         1 <0>         0.0608
     68 H34        -0.8452   -6.6873   -4.3727 H         1 <0>         0.0619
     69 H35        -0.8850   -5.0736   -5.1230 H         1 <0>         0.0615
@<TRIPOS>BOND
     1    1    2 1
     2    1   35 1
     3    1   36 1
     4    1   37 1
     5    2    3 1
     6    2   38 1
     7    2   39 1
     8    3    4 1
     9    3   40 1
    10    3   41 1
    11    4    9 ar
    12    4    5 ar
    13    5    6 ar
    14    5   42 1
    15    6    7 ar
    16    6   28 1
    17    7    8 ar
    18    7   43 1
    19    8    9 ar
    20    8   44 1
    21    9   10 1
    22   10   11 1
    23   11   12 1
    24   11   45 1
    25   11   46 1
    26   12   13 1
    27   12   47 1
    28   12   48 1
    29   13   14 1
    30   13   49 1
    31   13   50 1
    32   14   15 1
    33   15   20 ar
    34   15   16 ar
    35   16   17 ar
    36   16   51 1
    37   17   18 ar
    38   17   52 1
    39   18   19 ar
    40   18   53 1
    41   19   20 ar
    42   19   21 1
    43   20   54 1
    44   21   27 1
    45   21   22 1
    46   21   55 1
    47   22   23 2
    48   22   24 am
    49   24   25 am
    50   24   56 1
    51   25   26 2
    52   25   27 1
    53   28   29 1
    54   28   57 1
    55   28   58 1
    56   29   34 1
    57   29   30 1
    58   29   59 1
    59   30   31 1
    60   30   60 1
    61   30   61 1
    62   31   32 1
    63   31   62 1
    64   31   63 1
    65   32   33 1
    66   32   64 1
    67   32   65 1
    68   33   34 1
    69   33   66 1
    70   33   67 1
    71   34   68 1
    72   34   69 1
@<TRIPOS>MOLECULE
CHEMBL122417
   50    52     0     0     0
SMALL
USER_CHARGES

@<TRIPOS>ATOM
      1 C1         -0.0187    1.5258    0.0104 C.3       1 <0>        -0.1527
      2 C2          0.0021   -0.0041    0.0020 C.3       1 <0>        -0.1162
      3 C3         -1.4333   -0.5336    0.0129 C.3       1 <0>        -0.0726
      4 C4         -1.4129   -2.0405    0.0046 C.ar      1 <0>        -0.1113
      5 C5         -1.5134   -2.7268   -1.1904 C.ar      1 <0>        -0.0807
      6 C6         -1.4953   -4.1091   -1.1986 C.ar      1 <0>        -0.1533
      7 C7         -1.3760   -4.8084   -0.0116 C.ar      1 <0>        -0.0853
      8 C8         -1.2747   -4.1270    1.1856 C.ar      1 <0>        -0.2072
      9 C9         -1.2874   -2.7396    1.1961 C.ar      1 <0>         0.1303
     10 O1         -1.1822   -2.0667    2.3721 O.3       1 <0>        -0.3071
     11 C10        -1.0560   -2.8517    3.5596 C.3       1 <0>         0.0640
     12 C11        -0.9506   -1.9266    4.7737 C.3       1 <0>        -0.1198
     13 C12        -0.8154   -2.7670    6.0450 C.3       1 <0>         0.0635
     14 O2         -0.7169   -1.9030    7.1789 O.3       1 <0>        -0.3076
     15 C13        -0.5904   -2.4943    8.3960 C.ar      1 <0>         0.1354
     16 C14        -0.5559   -3.8777    8.4963 C.ar      1 <0>        -0.1910
     17 C15        -0.4268   -4.4763    9.7344 C.ar      1 <0>        -0.0733
     18 C16        -0.3320   -3.6979   10.8734 C.ar      1 <0>        -0.1312
     19 C17        -0.3666   -2.3193   10.7763 C.ar      1 <0>        -0.0712
     20 C18        -0.4899   -1.7156    9.5396 C.ar      1 <0>        -0.1182
     21 C19        -0.2636   -1.4741   12.0197 C.3       1 <0>         0.0882
     22 C20         1.1832   -1.3323   12.4468 C.2       1 <0>         0.5126
     23 O3          2.0883   -0.8289   11.8166 O.2       1 <0>        -0.4339
     24 N1          1.2521   -1.8831   13.6760 N.am      1 <0>        -0.6836
     25 C21         0.0533   -2.3407   14.0593 C.2       1 <0>         0.6500
     26 O4         -0.1547   -2.8815   15.1268 O.2       1 <0>        -0.4648
     27 O5         -0.8922   -2.1332   13.1294 O.3       1 <0>        -0.2873
     28 H1          1.0039    1.9031    0.0027 H         1 <0>         0.0542
     29 H2         -0.5459    1.8868   -0.8726 H         1 <0>         0.0536
     30 H3         -0.5289    1.8773    0.9072 H         1 <0>         0.0548
     31 H4          0.5123   -0.3556   -0.8948 H         1 <0>         0.0597
     32 H5          0.5293   -0.3651    0.8851 H         1 <0>         0.0630
     33 H6         -1.9435   -0.1821    0.9097 H         1 <0>         0.0753
     34 H7         -1.9605   -0.1726   -0.8702 H         1 <0>         0.0701
     35 H8         -1.6067   -2.1829   -2.1187 H         1 <0>         0.1289
     36 H9         -1.5747   -4.6437   -2.1336 H         1 <0>         0.1243
     37 H10        -1.3624   -5.8883   -0.0206 H         1 <0>         0.1244
     38 H11        -1.1816   -4.6736    2.1124 H         1 <0>         0.1263
     39 H12        -1.9311   -3.4927    3.6661 H         1 <0>         0.0659
     40 H13        -0.1596   -3.4684    3.4938 H         1 <0>         0.0658
     41 H14        -0.0755   -1.2855    4.6671 H         1 <0>         0.0884
     42 H15        -1.8469   -1.3099    4.8394 H         1 <0>         0.0883
     43 H16        -1.6905   -3.4081    6.1515 H         1 <0>         0.0687
     44 H17         0.0810   -3.3837    5.9792 H         1 <0>         0.0683
     45 H18        -0.6302   -4.4861    7.6070 H         1 <0>         0.1341
     46 H19        -0.4001   -5.5531    9.8129 H         1 <0>         0.1343
     47 H20        -0.2311   -4.1678   11.8406 H         1 <0>         0.1253
     48 H21        -0.5124   -0.6385    9.4637 H         1 <0>         0.1418
     49 H22        -0.7125   -0.4949   11.8530 H         1 <0>         0.1634
     50 H23         2.0600   -1.9399   14.2098 H         1 <0>         0.4454
@<TRIPOS>BOND
     1    1    2 1
     2    1   28 1
     3    1   29 1
     4    1   30 1
     5    2    3 1
     6    2   31 1
     7    2   32 1
     8    3    4 1
     9    3   33 1
    10    3   34 1
    11    4    9 ar
    12    4    5 ar
    13    5    6 ar
    14    5   35 1
    15    6    7 ar
    16    6   36 1
    17    7    8 ar
    18    7   37 1
    19    8    9 ar
    20    8   38 1
    21    9   10 1
    22   10   11 1
    23   11   12 1
    24   11   39 1
    25   11   40 1
    26   12   13 1
    27   12   41 1
    28   12   42 1
    29   13   14 1
    30   13   43 1
    31   13   44 1
    32   14   15 1
    33   15   20 ar
    34   15   16 ar
    35   16   17 ar
    36   16   45 1
    37   17   18 ar
    38   17   46 1
    39   18   19 ar
    40   18   47 1
    41   19   20 ar
    42   19   21 1
    43   20   48 1
    44   21   27 1
    45   21   22 1
    46   21   49 1
    47   22   23 2
    48   22   24 am
    49   24   25 am
    50   24   50 1
    51   25   26 2
    52   25   27 1
@<TRIPOS>MOLECULE
CHEMBL122417__1
   50    52     0     0     0
SMALL
USER_CHARGES

@<TRIPOS>ATOM
      1 C1         -0.0187    1.5258    0.0104 C.3       1 <0>        -0.1527
      2 C2          0.0021   -0.0041    0.0020 C.3       1 <0>        -0.1161
      3 C3         -1.4333   -0.5336    0.0129 C.3       1 <0>        -0.0726
      4 C4         -1.4129   -2.0405    0.0046 C.ar      1 <0>        -0.1113
      5 C5         -1.5134   -2.7268   -1.1904 C.ar      1 <0>        -0.0807
      6 C6         -1.4953   -4.1091   -1.1986 C.ar      1 <0>        -0.1533
      7 C7         -1.3760   -4.8084   -0.0116 C.ar      1 <0>        -0.0853
      8 C8         -1.2747   -4.1270    1.1856 C.ar      1 <0>        -0.2072
      9 C9         -1.2874   -2.7396    1.1961 C.ar      1 <0>         0.1303
     10 O1         -1.1822   -2.0667    2.3721 O.3       1 <0>        -0.3071
     11 C10        -1.0560   -2.8517    3.5596 C.3       1 <0>         0.0639
     12 C11        -0.9506   -1.9266    4.7737 C.3       1 <0>        -0.1198
     13 C12        -0.8154   -2.7670    6.0450 C.3       1 <0>         0.0635
     14 O2         -0.7169   -1.9030    7.1789 O.3       1 <0>        -0.3076
     15 C13        -0.5904   -2.4943    8.3960 C.ar      1 <0>         0.1353
     16 C14        -0.5559   -3.8777    8.4963 C.ar      1 <0>        -0.1905
     17 C15        -0.4268   -4.4763    9.7344 C.ar      1 <0>        -0.0730
     18 C16        -0.3320   -3.6979   10.8734 C.ar      1 <0>        -0.1313
     19 C17        -0.3666   -2.3193   10.7763 C.ar      1 <0>        -0.0706
     20 C18        -0.4899   -1.7156    9.5396 C.ar      1 <0>        -0.1175
     21 C19        -0.2636   -1.4741   12.0197 C.3       1 <0>         0.0879
     22 C20        -1.5751   -1.4837   12.7783 C.2       1 <0>         0.5126
     23 O3         -2.6526   -1.0902   12.3858 O.2       1 <0>        -0.4339
     24 N1         -1.2919   -2.0228   13.9817 N.am      1 <0>        -0.6837
     25 C21         0.0057   -2.3433   14.0650 C.2       1 <0>         0.6498
     26 O4          0.5171   -2.8446   15.0461 O.2       1 <0>        -0.4649
     27 O5          0.6767   -2.0471   12.9409 O.3       1 <0>        -0.2871
     28 H1          1.0039    1.9031    0.0027 H         1 <0>         0.0542
     29 H2         -0.5459    1.8868   -0.8726 H         1 <0>         0.0536
     30 H3         -0.5289    1.8773    0.9072 H         1 <0>         0.0547
     31 H4          0.5123   -0.3556   -0.8948 H         1 <0>         0.0598
     32 H5          0.5293   -0.3651    0.8851 H         1 <0>         0.0630
     33 H6         -1.9435   -0.1821    0.9097 H         1 <0>         0.0753
     34 H7         -1.9605   -0.1726   -0.8702 H         1 <0>         0.0701
     35 H8         -1.6067   -2.1829   -2.1187 H         1 <0>         0.1289
     36 H9         -1.5747   -4.6437   -2.1336 H         1 <0>         0.1243
     37 H10        -1.3624   -5.8883   -0.0206 H         1 <0>         0.1244
     38 H11        -1.1816   -4.6736    2.1124 H         1 <0>         0.1263
     39 H12        -1.9311   -3.4927    3.6661 H         1 <0>         0.0658
     40 H13        -0.1596   -3.4684    3.4938 H         1 <0>         0.0659
     41 H14        -0.0755   -1.2855    4.6671 H         1 <0>         0.0884
     42 H15        -1.8469   -1.3099    4.8394 H         1 <0>         0.0883
     43 H16        -1.6905   -3.4081    6.1515 H         1 <0>         0.0685
     44 H17         0.0810   -3.3837    5.9792 H         1 <0>         0.0687
     45 H18        -0.6302   -4.4861    7.6070 H         1 <0>         0.1343
     46 H19        -0.4001   -5.5531    9.8129 H         1 <0>         0.1344
     47 H20        -0.2311   -4.1678   11.8406 H         1 <0>         0.1238
     48 H21        -0.5124   -0.6385    9.4637 H         1 <0>         0.1419
     49 H22         0.0248   -0.4544   11.7644 H         1 <0>         0.1630
     50 H23        -1.9400   -2.1599   14.6903 H         1 <0>         0.4454
@<TRIPOS>BOND
     1    1    2 1
     2    1   28 1
     3    1   29 1
     4    1   30 1
     5    2    3 1
     6    2   31 1
     7    2   32 1
     8    3    4 1
     9    3   33 1
    10    3   34 1
    11    4    9 ar
    12    4    5 ar
    13    5    6 ar
    14    5   35 1
    15    6    7 ar
    16    6   36 1
    17    7    8 ar
    18    7   37 1
    19    8    9 ar
    20    8   38 1
    21    9   10 1
    22   10   11 1
    23   11   12 1
    24   11   39 1
    25   11   40 1
    26   12   13 1
    27   12   41 1
    28   12   42 1
    29   13   14 1
    30   13   43 1
    31   13   44 1
    32   14   15 1
    33   15   20 ar
    34   15   16 ar
    35   16   17 ar
    36   16   45 1
    37   17   18 ar
    38   17   46 1
    39   18   19 ar
    40   18   47 1
    41   19   20 ar
    42   19   21 1
    43   20   48 1
    44   21   27 1
    45   21   22 1
    46   21   49 1
    47   22   23 2
    48   22   24 am
    49   24   25 am
    50   24   50 1
    51   25   26 2
    52   25   27 1
@<TRIPOS>MOLECULE
CHEMBL192518
   34    35     0     0     0
SMALL
USER_CHARGES

@<TRIPOS>ATOM
      1 C1          0.4783    1.6723   -0.7098 C.ar      1 <0>        -0.1321
      2 C2          1.7117    2.2744   -0.5452 C.ar      1 <0>        -0.1225
      3 C3          2.8388    1.4986   -0.3481 C.ar      1 <0>        -0.1042
      4 C4          2.7323    0.1208   -0.3151 C.ar      1 <0>        -0.0723
      5 C5          1.4987   -0.4813   -0.4787 C.ar      1 <0>        -0.1193
      6 C6          0.3719    0.2945   -0.6773 C.ar      1 <0>        -0.1226
      7 C7          3.9611   -0.7250   -0.1011 C.3       1 <0>        -0.0633
      8 C8          4.1636   -0.9606    1.3970 C.3       1 <0>         0.0199
      9 H1          3.2583   -1.3938    1.8223 H         1 <0>         0.0696
     10 C9          5.3186   -1.9058    1.6053 C.2       1 <0>         0.4806
     11 O1          6.3294   -1.5189    2.1667 O.co2     1 <0>        -0.6690
     12 O2          5.2424   -3.0575    1.2124 O.co2     1 <0>        -0.6860
     13 O3          4.4442    0.2837    2.0412 O.3       1 <0>        -0.2829
     14 C10         4.1525    0.3724    3.3656 C.ar      1 <0>         0.2019
     15 C11         4.2886    1.5841    4.0274 C.ar      1 <0>        -0.1678
     16 C12         3.9910    1.6718    5.3735 C.ar      1 <0>        -0.0338
     17 C13         3.5582    0.5532    6.0614 C.ar      1 <0>        -0.2472
     18 C14         3.4222   -0.6557    5.4042 C.ar      1 <0>        -0.0277
     19 C15         3.7126   -0.7472    4.0567 C.ar      1 <0>        -0.2044
     20 C16         3.2347    0.6516    7.5299 C.3       1 <0>         0.5153
     21 F1          1.8851    0.9838    7.6889 F         1 <0>        -0.1832
     22 F2          3.4880   -0.5784    8.1467 F         1 <0>        -0.1809
     23 F3          4.0308    1.6406    8.1176 F         1 <0>        -0.1821
     24 H2         -0.4029    2.2786   -0.8594 H         1 <0>         0.1157
     25 H3          1.7949    3.3509   -0.5710 H         1 <0>         0.1176
     26 H4          3.8025    1.9690   -0.2202 H         1 <0>         0.1229
     27 H5          1.4156   -1.5578   -0.4533 H         1 <0>         0.1217
     28 H6         -0.5917   -0.1759   -0.8056 H         1 <0>         0.1176
     29 H7          3.8352   -1.6829   -0.6058 H         1 <0>         0.0980
     30 H8          4.8315   -0.2110   -0.5090 H         1 <0>         0.0798
     31 H9          4.6273    2.4580    3.4907 H         1 <0>         0.1368
     32 H10         4.0968    2.6148    5.8892 H         1 <0>         0.1344
     33 H11         3.0843   -1.5281    5.9437 H         1 <0>         0.1313
     34 H12         3.6020   -1.6906    3.5428 H         1 <0>         0.1381
@<TRIPOS>BOND
     1    1    6 ar
     2    1    2 ar
     3    1   24 1
     4    2    3 ar
     5    2   25 1
     6    3    4 ar
     7    3   26 1
     8    4    5 ar
     9    4    7 1
    10    5    6 ar
    11    5   27 1
    12    6   28 1
    13    7    8 1
    14    7   29 1
    15    7   30 1
    16    8    9 1
    17    8   10 1
    18    8   13 1
    19   10   11 2
    20   10   12 1
    21   13   14 1
    22   14   19 ar
    23   14   15 ar
    24   15   16 ar
    25   15   31 1
    26   16   17 ar
    27   16   32 1
    28   17   18 ar
    29   17   20 1
    30   18   19 ar
    31   18   33 1
    32   19   34 1
    33   20   21 1
    34   20   22 1
    35   20   23 1
@<TRIPOS>MOLECULE
CHEMBL237307
   61    63     0     0     0
SMALL
USER_CHARGES

@<TRIPOS>ATOM
      1 C1          1.9020    1.5714    0.1142 C.3       1 <0>        -0.1078
      2 C2          1.5449    0.1087    0.0508 C.ar      1 <0>        -0.1071
      3 C3          1.5690   -0.5571   -1.1596 C.ar      1 <0>        -0.0893
      4 C4          1.2420   -1.8991   -1.2183 C.ar      1 <0>        -0.1368
      5 C5          0.8899   -2.5786   -0.0665 C.ar      1 <0>        -0.0847
      6 C6          0.8637   -1.9177    1.1460 C.ar      1 <0>        -0.1687
      7 C7          1.1971   -0.5719    1.2087 C.ar      1 <0>         0.1292
      8 O1          1.1776    0.0793    2.4011 O.3       1 <0>        -0.2465
      9 C8          0.8441   -0.6315    3.5111 C.ar      1 <0>         0.0182
     10 C9          1.8172   -1.3437    4.1972 C.ar      1 <0>        -0.1025
     11 C10         1.4784   -2.0657    5.3247 C.ar      1 <0>        -0.1410
     12 C11         0.1650   -2.0787    5.7713 C.ar      1 <0>         0.1812
     13 C12        -0.8078   -1.3668    5.0856 C.ar      1 <0>        -0.1282
     14 C13        -0.4680   -0.6400    3.9610 C.ar      1 <0>        -0.0942
     15 C14        -2.2344   -1.3811    5.5708 C.3       1 <0>        -0.0964
     16 O2         -0.1686   -2.7900    6.8811 O.3       1 <0>        -0.2949
     17 C15         0.8634   -3.5731    7.4843 C.3       1 <0>         0.0281
     18 C16         0.3079   -4.2839    8.7200 C.3       1 <0>        -0.1152
     19 C17         1.3670   -4.6128    6.4812 C.3       1 <0>        -0.1732
     20 C18         2.0028   -2.6747    7.8914 C.2       1 <0>         0.4812
     21 O3          1.9372   -1.4750    7.6841 O.co2     1 <0>        -0.6682
     22 O4          2.9902   -3.1476    8.4279 O.co2     1 <0>        -0.6826
     23 C19         0.5341   -4.0414   -0.1344 C.3       1 <0>         0.1639
     24 N1          1.7431   -4.8473    0.0526 N.am      1 <0>        -0.7147
     25 C20         1.6664   -6.1927    0.0302 C.2       1 <0>         0.5556
     26 O5          0.5938   -6.7375   -0.1452 O.2       1 <0>        -0.5157
     27 C21         2.8852   -7.0051    0.2188 C.ar      1 <0>        -0.1394
     28 C22         4.1182   -6.3829    0.4263 C.ar      1 <0>        -0.0563
     29 C23         5.2521   -7.1471    0.6021 C.ar      1 <0>        -0.0868
     30 C24         5.1725   -8.5291    0.5730 C.ar      1 <0>        -0.1319
     31 C25         3.9571   -9.1542    0.3679 C.ar      1 <0>        -0.1155
     32 C26         2.8096   -8.4012    0.1961 C.ar      1 <0>         0.1623
     33 F1          1.6207   -9.0124    0.0011 F         1 <0>        -0.1039
     34 C27         6.4176   -9.3559    0.7657 C.3       1 <0>         0.5106
     35 F2          6.5914   -9.6269    2.1271 F         1 <0>        -0.1686
     36 F3          6.2918  -10.5591    0.0631 F         1 <0>        -0.1732
     37 F4          7.5255   -8.6492    0.2857 F         1 <0>        -0.1713
     38 H1          2.9741    1.6768    0.2803 H         1 <0>         0.0692
     39 H2          1.6308    2.0527   -0.8255 H         1 <0>         0.0639
     40 H3          1.3593    2.0427    0.9336 H         1 <0>         0.0724
     41 H4          1.8433   -0.0286   -2.0606 H         1 <0>         0.1290
     42 H5          1.2612   -2.4176   -2.1655 H         1 <0>         0.1232
     43 H6          0.5884   -2.4487    2.0452 H         1 <0>         0.1340
     44 H7          2.8396   -1.3339    3.8493 H         1 <0>         0.1212
     45 H8          2.2358   -2.6204    5.8585 H         1 <0>         0.1469
     46 H9         -1.2247   -0.0820    3.4296 H         1 <0>         0.1264
     47 H10        -2.3878   -0.5611    6.2724 H         1 <0>         0.0651
     48 H11        -2.9081   -1.2639    4.7220 H         1 <0>         0.0582
     49 H12        -2.4393   -2.3287    6.0691 H         1 <0>         0.0683
     50 H13        -0.4716   -4.9831    8.4173 H         1 <0>         0.0513
     51 H14         1.1106   -4.8279    9.2178 H         1 <0>         0.0791
     52 H15        -0.1111   -3.5471    9.4054 H         1 <0>         0.0577
     53 H16         1.6396   -4.1166    5.5497 H         1 <0>         0.0652
     54 H17         2.2399   -5.1205    6.8914 H         1 <0>         0.0761
     55 H18         0.5801   -5.3419    6.2877 H         1 <0>         0.0520
     56 H19        -0.1848   -4.2773    0.6503 H         1 <0>         0.0811
     57 H20         0.0960   -4.2640   -1.1073 H         1 <0>         0.0815
     58 H21         2.5989   -4.4126    0.1926 H         1 <0>         0.4026
     59 H22         4.1834   -5.3051    0.4487 H         1 <0>         0.1502
     60 H23         6.2057   -6.6661    0.7626 H         1 <0>         0.1526
     61 H24         3.9025  -10.2326    0.3457 H         1 <0>         0.1573
@<TRIPOS>BOND
     1    1    2 1
     2    1   38 1
     3    1   39 1
     4    1   40 1
     5    2    7 ar
     6    2    3 ar
     7    3    4 ar
     8    3   41 1
     9    4    5 ar
    10    4   42 1
    11    5    6 ar
    12    5   23 1
    13    6    7 ar
    14    6   43 1
    15    7    8 1
    16    8    9 1
    17    9   14 ar
    18    9   10 ar
    19   10   11 ar
    20   10   44 1
    21   11   12 ar
    22   11   45 1
    23   12   13 ar
    24   12   16 1
    25   13   14 ar
    26   13   15 1
    27   14   46 1
    28   15   47 1
    29   15   48 1
    30   15   49 1
    31   16   17 1
    32   17   18 1
    33   17   19 1
    34   17   20 1
    35   18   50 1
    36   18   51 1
    37   18   52 1
    38   19   53 1
    39   19   54 1
    40   19   55 1
    41   20   21 2
    42   20   22 1
    43   23   24 1
    44   23   56 1
    45   23   57 1
    46   24   25 am
    47   24   58 1
    48   25   26 2
    49   25   27 1
    50   27   32 ar
    51   27   28 ar
    52   28   29 ar
    53   28   59 1
    54   29   30 ar
    55   29   60 1
    56   30   31 ar
    57   30   34 1
    58   31   32 ar
    59   31   61 1
    60   32   33 1
    61   34   35 1
    62   34   36 1
    63   34   37 1
@<TRIPOS>MOLECULE
CHEMBL252995
   74    77     0     0     0
SMALL
USER_CHARGES

@<TRIPOS>ATOM
      1 C1         -2.2473   -5.4422    8.1572 C.3       1 <0>        -0.1424
      2 C2         -1.4983   -6.0773    6.9839 C.3       1 <0>        -0.0147
      3 C3         -0.4394   -5.1008    6.4723 C.3       1 <0>        -0.1290
      4 C4          0.4439   -5.8220    5.4459 C.3       1 <0>         0.1277
      5 N1          1.1371   -6.9158    6.1392 N.pl3     1 <0>        -0.6151
      6 C5          0.4147   -7.7296    7.0082 C.ar      1 <0>         0.2541
      7 C6         -0.8547   -7.3605    7.4398 C.ar      1 <0>        -0.1493
      8 C7         -1.5438   -8.1758    8.2981 C.ar      1 <0>        -0.0110
      9 C8         -0.9753   -9.3749    8.7376 C.ar      1 <0>        -0.2202
     10 C9          0.3011   -9.7423    8.2980 C.ar      1 <0>        -0.0327
     11 C10         0.9843   -8.9259    7.4430 C.ar      1 <0>        -0.2103
     12 C11        -1.7185  -10.2498    9.6621 C.2       1 <0>         0.4422
     13 O1         -2.9310  -10.1795    9.7233 O.2       1 <0>        -0.4577
     14 C12        -0.9902  -11.2124   10.5148 C.ar      1 <0>        -0.1569
     15 C13         0.3540  -10.9965   10.8262 C.ar      1 <0>        -0.0810
     16 C14         1.0277  -11.8990   11.6225 C.ar      1 <0>        -0.1320
     17 C15         0.3748  -13.0166   12.1122 C.ar      1 <0>        -0.0924
     18 C16        -0.9569  -13.2369   11.8072 C.ar      1 <0>        -0.1300
     19 C17        -1.6445  -12.3391   11.0175 C.ar      1 <0>        -0.0657
     20 C18         2.5671   -7.1468    5.9202 C.3       1 <0>         0.1266
     21 C19         2.7546   -8.1003    4.7384 C.3       1 <0>         0.0346
     22 O2          2.2852   -7.4746    3.5425 O.3       1 <0>        -0.3073
     23 C20         2.3805   -8.1923    2.3924 C.ar      1 <0>         0.1379
     24 C21         2.9095   -9.4746    2.4154 C.ar      1 <0>        -0.2053
     25 C22         3.0049  -10.2022    1.2450 C.ar      1 <0>        -0.0643
     26 C23         2.5741   -9.6534    0.0513 C.ar      1 <0>        -0.1362
     27 C24         2.0470   -8.3754    0.0257 C.ar      1 <0>        -0.0706
     28 C25         1.9437   -7.6460    1.1943 C.ar      1 <0>        -0.1473
     29 C26         2.6798  -10.4493   -1.2240 C.3       1 <0>        -0.0560
     30 C27         1.4134  -11.2877   -1.4084 C.3       1 <0>        -0.0706
     31 C28         0.2243  -10.3746   -1.5614 C.2       1 <0>         0.4777
     32 O3          0.1477   -9.6370   -2.5154 O.2       1 <0>        -0.4867
     33 O4         -0.7498  -10.3806   -0.6379 O.3       1 <0>        -0.3400
     34 C29        -1.8471   -9.4893   -0.8466 C.3       1 <0>         0.0321
     35 C30         1.5521  -12.1427   -2.6416 C.2       1 <0>         0.4725
     36 O5          2.2918  -11.8009   -3.5337 O.2       1 <0>        -0.4747
     37 O6          0.8538  -13.2840   -2.7490 O.3       1 <0>        -0.3487
     38 C31         1.0341  -14.0448   -3.9451 C.3       1 <0>         0.0317
     39 C32        -2.4877   -6.3802    5.8568 C.3       1 <0>        -0.1412
     40 H1         -1.5460   -5.2318    8.9647 H         1 <0>         0.0572
     41 H2         -2.7142   -4.5132    7.8302 H         1 <0>         0.0600
     42 H3         -3.0152   -6.1293    8.5127 H         1 <0>         0.0607
     43 H4         -0.9268   -4.2480    5.9997 H         1 <0>         0.0806
     44 H5          0.1741   -4.7578    7.3054 H         1 <0>         0.0710
     45 H6         -0.1754   -6.2263    4.6453 H         1 <0>         0.0680
     46 H7          1.1738   -5.1256    5.0330 H         1 <0>         0.0821
     47 H8         -2.5291   -7.8912    8.6367 H         1 <0>         0.1317
     48 H9          0.7444  -10.6680    8.6339 H         1 <0>         0.1324
     49 H10         1.9696   -9.2077    7.1022 H         1 <0>         0.1253
     50 H11         0.8649  -10.1250   10.4441 H         1 <0>         0.1351
     51 H12         2.0672  -11.7332   11.8641 H         1 <0>         0.1288
     52 H13         0.9072  -13.7202   12.7350 H         1 <0>         0.1270
     53 H14        -1.4601  -14.1116   12.1921 H         1 <0>         0.1292
     54 H15        -2.6851  -12.5098   10.7842 H         1 <0>         0.1317
     55 H16         3.0593   -6.1987    5.7038 H         1 <0>         0.0903
     56 H17         3.0052   -7.5875    6.8157 H         1 <0>         0.1006
     57 H18         3.8119   -8.3423    4.6310 H         1 <0>         0.0721
     58 H19         2.1888   -9.0148    4.9162 H         1 <0>         0.0690
     59 H20         3.2468   -9.9034    3.3475 H         1 <0>         0.1289
     60 H21         3.4167  -11.2005    1.2624 H         1 <0>         0.1285
     61 H22         1.7115   -7.9488   -0.9081 H         1 <0>         0.1283
     62 H23         1.5278   -6.6495    1.1745 H         1 <0>         0.1308
     63 H24         2.7915   -9.7692   -2.0685 H         1 <0>         0.0992
     64 H25         3.5469  -11.1077   -1.1706 H         1 <0>         0.0995
     65 H26         1.2708  -11.9270   -0.5372 H         1 <0>         0.1383
     66 H27        -2.3367   -9.7305   -1.7901 H         1 <0>         0.0634
     67 H28        -2.5610   -9.5945   -0.0296 H         1 <0>         0.1068
     68 H29        -1.4808   -8.4633   -0.8792 H         1 <0>         0.0641
     69 H30         0.7445  -13.4422   -4.8061 H         1 <0>         0.0641
     70 H31         2.0814  -14.3322   -4.0386 H         1 <0>         0.0658
     71 H32         0.4139  -14.9402   -3.9032 H         1 <0>         0.1077
     72 H33        -2.9605   -5.4542    5.5296 H         1 <0>         0.0594
     73 H34        -1.9569   -6.8328    5.0193 H         1 <0>         0.0561
     74 H35        -3.2507   -7.0695    6.2186 H         1 <0>         0.0582
@<TRIPOS>BOND
     1    1    2 1
     2    1   40 1
     3    1   41 1
     4    1   42 1
     5    2    7 1
     6    2    3 1
     7    2   39 1
     8    3    4 1
     9    3   43 1
    10    3   44 1
    11    4    5 1
    12    4   45 1
    13    4   46 1
    14    5    6 1
    15    5   20 1
    16    6   11 ar
    17    6    7 ar
    18    7    8 ar
    19    8    9 ar
    20    8   47 1
    21    9   10 ar
    22    9   12 1
    23   10   11 ar
    24   10   48 1
    25   11   49 1
    26   12   13 2
    27   12   14 1
    28   14   19 ar
    29   14   15 ar
    30   15   16 ar
    31   15   50 1
    32   16   17 ar
    33   16   51 1
    34   17   18 ar
    35   17   52 1
    36   18   19 ar
    37   18   53 1
    38   19   54 1
    39   20   21 1
    40   20   55 1
    41   20   56 1
    42   21   22 1
    43   21   57 1
    44   21   58 1
    45   22   23 1
    46   23   28 ar
    47   23   24 ar
    48   24   25 ar
    49   24   59 1
    50   25   26 ar
    51   25   60 1
    52   26   27 ar
    53   26   29 1
    54   27   28 ar
    55   27   61 1
    56   28   62 1
    57   29   30 1
    58   29   63 1
    59   29   64 1
    60   30   31 1
    61   30   35 1
    62   30   65 1
    63   31   32 2
    64   31   33 1
    65   33   34 1
    66   34   66 1
    67   34   67 1
    68   34   68 1
    69   35   36 2
    70   35   37 1
    71   37   38 1
    72   38   69 1
    73   38   70 1
    74   38   71 1
    75   39   72 1
    76   39   73 1
    77   39   74 1
@<TRIPOS>MOLECULE
CHEMBL120611
   53    54     0     0     0
SMALL
USER_CHARGES

@<TRIPOS>ATOM
      1 C1          2.4169    0.3152   -0.3102 C.3       1 <0>        -0.1498
      2 C2          1.5104    0.6199    0.8841 C.3       1 <0>        -0.1019
      3 C3          0.6827   -0.6207    1.2257 C.3       1 <0>        -0.1528
      4 C4         -0.2382   -0.9587    0.0515 C.3       1 <0>        -0.0570
      5 C5         -0.9633   -2.2485    0.3369 C.ar      1 <0>        -0.1072
      6 C6         -0.4018   -3.4551   -0.0486 C.ar      1 <0>        -0.0501
      7 C7         -1.0564   -4.6434    0.2072 C.ar      1 <0>        -0.2231
      8 C8         -2.2835   -4.6361    0.8540 C.ar      1 <0>         0.1723
      9 C9         -2.8545   -3.4178    1.2459 C.ar      1 <0>        -0.1739
     10 C10        -2.1789   -2.2230    0.9850 C.ar      1 <0>        -0.0216
     11 C11        -4.1591   -3.3973    1.9345 C.2       1 <0>         0.5693
     12 O1         -4.7421   -4.4395    2.1635 O.2       1 <0>        -0.5299
     13 N1         -4.7048   -2.2235    2.3097 N.am      1 <0>        -0.7318
     14 C12        -6.0002   -2.2032    2.9935 C.3       1 <0>         0.1316
     15 C13        -6.3891   -0.7569    3.3065 C.3       1 <0>        -0.1039
     16 C14        -7.7217   -0.7360    4.0099 C.ar      1 <0>        -0.0396
     17 C15        -8.8898   -0.6531    3.2752 C.ar      1 <0>        -0.1151
     18 C16       -10.1122   -0.6339    3.9204 C.ar      1 <0>        -0.0693
     19 C17       -10.1665   -0.6982    5.3002 C.ar      1 <0>        -0.1908
     20 C18        -8.9985   -0.7821    6.0348 C.ar      1 <0>        -0.0677
     21 C19        -7.7763   -0.8056    5.3894 C.ar      1 <0>        -0.1130
     22 C20       -11.4991   -0.6763    6.0036 C.3       1 <0>         0.5090
     23 F1        -11.9666   -1.9859    6.1578 F         1 <0>        -0.1774
     24 F2        -11.3526   -0.0823    7.2618 F         1 <0>        -0.1779
     25 F3        -12.4152    0.0595    5.2443 F         1 <0>        -0.1786
     26 O2         -2.9280   -5.8029    1.1056 O.3       1 <0>        -0.2850
     27 C21        -2.2851   -7.0048    0.6766 C.3       1 <0>         0.0234
     28 C22        -0.1480   -0.3480    2.4532 C.2       1 <0>         0.5006
     29 O3         -0.0699   -1.0881    3.4189 O.co2     1 <0>        -0.6969
     30 O4         -0.8981    0.6128    2.4805 O.co2     1 <0>        -0.7019
     31 H1          1.8054    0.1440   -1.1961 H         1 <0>         0.0510
     32 H2          3.0826    1.1601   -0.4859 H         1 <0>         0.0445
     33 H3          3.0084   -0.5757   -0.0993 H         1 <0>         0.0477
     34 H4          2.1218    0.8966    1.7430 H         1 <0>         0.0521
     35 H5          0.8429    1.4441    0.6326 H         1 <0>         0.0641
     36 H6          1.3498   -1.4610    1.4178 H         1 <0>         0.0583
     37 H7         -0.9635   -0.1564   -0.0840 H         1 <0>         0.0728
     38 H8          0.3556   -1.0687   -0.8559 H         1 <0>         0.0611
     39 H9          0.5534   -3.4661   -0.5524 H         1 <0>         0.1248
     40 H10        -0.6127   -5.5799   -0.0969 H         1 <0>         0.1295
     41 H11        -2.6109   -1.2804    1.2872 H         1 <0>         0.1345
     42 H12        -4.2397   -1.3921    2.1270 H         1 <0>         0.4056
     43 H13        -6.7575   -2.6520    2.3506 H         1 <0>         0.0678
     44 H14        -5.9299   -2.7696    3.9221 H         1 <0>         0.0688
     45 H15        -5.6319   -0.3081    3.9494 H         1 <0>         0.0922
     46 H16        -6.4595   -0.1905    2.3779 H         1 <0>         0.0873
     47 H17        -8.8473   -0.6028    2.1973 H         1 <0>         0.1364
     48 H18       -11.0247   -0.5684    3.3465 H         1 <0>         0.1349
     49 H19        -9.0410   -0.8320    7.1128 H         1 <0>         0.1358
     50 H20        -6.8639   -0.8748    5.9631 H         1 <0>         0.1389
     51 H21        -2.1436   -6.9754   -0.4038 H         1 <0>         0.0518
     52 H22        -1.3160   -7.0937    1.1676 H         1 <0>         0.0534
     53 H23        -2.9052   -7.8620    0.9386 H         1 <0>         0.0968
@<TRIPOS>BOND
     1    1    2 1
     2    1   31 1
     3    1   32 1
     4    1   33 1
     5    2    3 1
     6    2   34 1
     7    2   35 1
     8    3    4 1
     9    3   28 1
    10    3   36 1
    11    4    5 1
    12    4   37 1
    13    4   38 1
    14    5   10 ar
    15    5    6 ar
    16    6    7 ar
    17    6   39 1
    18    7    8 ar
    19    7   40 1
    20    8    9 ar
    21    8   26 1
    22    9   10 ar
    23    9   11 1
    24   10   41 1
    25   11   12 2
    26   11   13 am
    27   13   14 1
    28   13   42 1
    29   14   15 1
    30   14   43 1
    31   14   44 1
    32   15   16 1
    33   15   45 1
    34   15   46 1
    35   16   21 ar
    36   16   17 ar
    37   17   18 ar
    38   17   47 1
    39   18   19 ar
    40   18   48 1
    41   19   20 ar
    42   19   22 1
    43   20   21 ar
    44   20   49 1
    45   21   50 1
    46   22   23 1
    47   22   24 1
    48   22   25 1
    49   26   27 1
    50   27   51 1
    51   27   52 1
    52   27   53 1
    53   28   29 2
    54   28   30 1
@<TRIPOS>MOLECULE
CHEMBL120611__1
   53    54     0     0     0
SMALL
USER_CHARGES

@<TRIPOS>ATOM
      1 C1         -0.0187    1.5258    0.0104 C.3       1 <0>        -0.1451
      2 C2          0.0021   -0.0041    0.0020 C.3       1 <0>        -0.1000
      3 C3          0.7421   -0.5109    1.2415 C.3       1 <0>        -0.1556
      4 C4          0.6554   -2.0374    1.2986 C.3       1 <0>        -0.0571
      5 C5          1.2769   -2.5282    2.5808 C.ar      1 <0>        -0.1053
      6 C6          2.6288   -2.8284    2.6211 C.ar      1 <0>        -0.0222
      7 C7          3.2097   -3.2788    3.7897 C.ar      1 <0>        -0.2161
      8 C8          2.4407   -3.4335    4.9337 C.ar      1 <0>         0.1749
      9 C9          1.0730   -3.1305    4.8972 C.ar      1 <0>        -0.1838
     10 C10         0.4991   -2.6710    3.7091 C.ar      1 <0>        -0.0496
     11 C11         0.2449   -3.2910    6.1076 C.2       1 <0>         0.5691
     12 O1          0.7488   -3.6872    7.1408 O.2       1 <0>        -0.5244
     13 N1         -1.0701   -2.9985    6.0681 N.am      1 <0>        -0.7367
     14 C12        -1.8924   -3.1579    7.2701 C.3       1 <0>         0.1293
     15 C13        -3.3364   -2.7612    6.9564 C.3       1 <0>        -0.1003
     16 C14        -4.1823   -2.9252    8.1928 C.ar      1 <0>        -0.0440
     17 C15        -4.8074   -4.1315    8.4476 C.ar      1 <0>        -0.1144
     18 C16        -5.5833   -4.2819    9.5818 C.ar      1 <0>        -0.0684
     19 C17        -5.7337   -3.2261   10.4613 C.ar      1 <0>        -0.1882
     20 C18        -5.1079   -2.0201   10.2070 C.ar      1 <0>        -0.0676
     21 C19        -4.3285   -1.8710    9.0750 C.ar      1 <0>        -0.1136
     22 C20        -6.5804   -3.3898   11.6972 C.3       1 <0>         0.5085
     23 F1         -5.7831   -3.8490   12.7512 F         1 <0>        -0.1765
     24 F2         -7.1450   -2.1572   12.0423 F         1 <0>        -0.1776
     25 F3         -7.5989   -4.3152   11.4455 F         1 <0>        -0.1780
     26 O2          3.0100   -3.8764    6.0826 O.3       1 <0>        -0.2868
     27 C21         4.4089   -4.1656    6.0439 C.3       1 <0>         0.0220
     28 C22         2.1879   -0.0922    1.1696 C.2       1 <0>         0.5051
     29 O3          2.6616    0.6161    2.0417 O.co2     1 <0>        -0.6994
     30 O4          2.8841   -0.4617    0.2394 O.co2     1 <0>        -0.7016
     31 H1          1.0039    1.9031    0.0027 H         1 <0>         0.0585
     32 H2         -0.5459    1.8868   -0.8726 H         1 <0>         0.0421
     33 H3         -0.5289    1.8773    0.9072 H         1 <0>         0.0459
     34 H4         -1.0205   -0.3814    0.0098 H         1 <0>         0.0440
     35 H5          0.5123   -0.3556   -0.8948 H         1 <0>         0.0635
     36 H6          0.2852   -0.0874    2.1360 H         1 <0>         0.0584
     37 H7         -0.3900   -2.3436    1.2611 H         1 <0>         0.0572
     38 H8          1.1896   -2.4636    0.4495 H         1 <0>         0.0755
     39 H9          3.2318   -2.7096    1.7330 H         1 <0>         0.1362
     40 H10         4.2641   -3.5114    3.8131 H         1 <0>         0.1314
     41 H11        -0.5535   -2.4319    3.6742 H         1 <0>         0.1253
     42 H12        -1.4722   -2.6824    5.2439 H         1 <0>         0.3997
     43 H13        -1.8637   -4.1980    7.5947 H         1 <0>         0.0689
     44 H14        -1.5042   -2.5189    8.0632 H         1 <0>         0.0694
     45 H15        -3.3652   -1.7211    6.6318 H         1 <0>         0.0876
     46 H16        -3.7246   -3.4002    6.1633 H         1 <0>         0.0865
     47 H17        -4.6899   -4.9564    7.7605 H         1 <0>         0.1367
     48 H18        -6.0722   -5.2242    9.7805 H         1 <0>         0.1360
     49 H19        -5.2256   -1.1952   10.8940 H         1 <0>         0.1364
     50 H20        -3.8365   -0.9300    8.8782 H         1 <0>         0.1377
     51 H21         4.5989   -4.9432    5.3042 H         1 <0>         0.0533
     52 H22         4.9589   -3.2643    5.7731 H         1 <0>         0.0561
     53 H23         4.7360   -4.5097    7.0251 H         1 <0>         0.0973
@<TRIPOS>BOND
     1    1    2 1
     2    1   31 1
     3    1   32 1
     4    1   33 1
     5    2    3 1
     6    2   34 1
     7    2   35 1
     8    3    4 1
     9    3   28 1
    10    3   36 1
    11    4    5 1
    12    4   37 1
    13    4   38 1
    14    5   10 ar
    15    5    6 ar
    16    6    7 ar
    17    6   39 1
    18    7    8 ar
    19    7   40 1
    20    8    9 ar
    21    8   26 1
    22    9   10 ar
    23    9   11 1
    24   10   41 1
    25   11   12 2
    26   11   13 am
    27   13   14 1
    28   13   42 1
    29   14   15 1
    30   14   43 1
    31   14   44 1
    32   15   16 1
    33   15   45 1
    34   15   46 1
    35   16   21 ar
    36   16   17 ar
    37   17   18 ar
    38   17   47 1
    39   18   19 ar
    40   18   48 1
    41   19   20 ar
    42   19   22 1
    43   20   21 ar
    44   20   49 1
    45   21   50 1
    46   22   23 1
    47   22   24 1
    48   22   25 1
    49   26   27 1
    50   27   51 1
    51   27   52 1
    52   27   53 1
    53   28   29 2
    54   28   30 1
@<TRIPOS>MOLECULE
CHEMBL218094
   55    57     0     0     0
SMALL
USER_CHARGES

@<TRIPOS>ATOM
      1 C1         -0.5700    1.3220   -0.6097 C.3       1 <0>        -0.1068
      2 C2         -0.5622   -0.1834   -0.6785 C.2       1 <0>         0.1359
      3 C3         -0.4629   -0.8095   -1.8812 C.2       1 <0>        -0.2982
      4 S1         -0.5028   -2.5217   -1.3660 S.3       1 <0>         0.0720
      5 C4         -0.6469   -2.2173    0.3900 C.2       1 <0>         0.1973
      6 N1         -0.6459   -0.8921    0.4227 N.2       1 <0>        -0.5012
      7 C5         -0.7373   -3.1835    1.5057 C.ar      1 <0>        -0.0094
      8 C6         -0.7091   -4.5549    1.2490 C.ar      1 <0>        -0.0842
      9 C7         -0.7940   -5.4512    2.2944 C.ar      1 <0>        -0.0670
     10 C8         -0.9072   -4.9930    3.5949 C.ar      1 <0>        -0.1516
     11 C9         -0.9362   -3.6347    3.8561 C.ar      1 <0>        -0.0694
     12 C10        -0.8455   -2.7279    2.8202 C.ar      1 <0>        -0.0599
     13 C11        -0.9999   -5.9777    4.7319 C.3       1 <0>         0.5066
     14 F1          0.2856   -6.2765    5.1960 F         1 <0>        -0.1707
     15 F2         -1.7532   -5.4208    5.7709 F         1 <0>        -0.1720
     16 F3         -1.6182   -7.1501    4.2842 F         1 <0>        -0.1723
     17 C12        -0.3509   -0.2234   -3.2650 C.3       1 <0>         0.1037
     18 N2          1.0659   -0.0305   -3.6019 N.4       1 <0>        -0.5114
     19 C13         1.1751    0.5409   -4.9508 C.3       1 <0>         0.0584
     20 C14         2.6286    0.7387   -5.2964 C.ar      1 <0>        -0.2348
     21 C15         3.2559    1.9309   -4.9852 C.ar      1 <0>        -0.0596
     22 C16         4.5880    2.1148   -5.3014 C.ar      1 <0>        -0.1741
     23 C17         5.2966    1.1019   -5.9312 C.ar      1 <0>         0.2141
     24 C18         4.6649   -0.0936   -6.2419 C.ar      1 <0>        -0.1596
     25 C19         3.3340   -0.2745   -5.9190 C.ar      1 <0>        -0.0663
     26 O1          6.6070    1.2806   -6.2436 O.3       1 <0>        -0.2903
     27 C20         7.3064    0.1541   -6.7765 C.3       1 <0>         0.0258
     28 C21         8.7672    0.5330   -7.0279 C.3       1 <0>        -0.1195
     29 C22         7.2443   -1.0036   -5.7782 C.3       1 <0>        -0.1755
     30 C23         6.6661   -0.2667   -8.0742 C.2       1 <0>         0.4809
     31 O2          5.7004    0.3417   -8.5030 O.co2     1 <0>        -0.6728
     32 O3          7.1138   -1.2155   -8.6953 O.co2     1 <0>        -0.6721
     33 H1          0.4527    1.6866   -0.5137 H         1 <0>         0.0880
     34 H2         -1.0155    1.7250   -1.5192 H         1 <0>         0.0809
     35 H3         -1.1528    1.6433    0.2536 H         1 <0>         0.0916
     36 H4         -0.6215   -4.9138    0.2341 H         1 <0>         0.1414
     37 H5         -0.7723   -6.5128    2.0971 H         1 <0>         0.1512
     38 H6         -1.0251   -3.2834    4.8735 H         1 <0>         0.1510
     39 H7         -0.8630   -1.6678    3.0258 H         1 <0>         0.1520
     40 H8         -0.8064   -0.9028   -3.9854 H         1 <0>         0.1440
     41 H9         -0.8656    0.7370   -3.2956 H         1 <0>         0.1509
     42 H10         1.4876    0.5984   -2.9350 H         1 <0>         0.4253
     43 H11         0.7196   -0.1386   -5.6712 H         1 <0>         0.1332
     44 H12         0.6605    1.5012   -4.9813 H         1 <0>         0.1336
     45 H13         2.7039    2.7191   -4.4949 H         1 <0>         0.1263
     46 H14         5.0774    3.0465   -5.0587 H         1 <0>         0.1332
     47 H15         5.2144   -0.8836   -6.7322 H         1 <0>         0.1516
     48 H16         2.8430   -1.2066   -6.1567 H         1 <0>         0.1224
     49 H17         9.2537    0.7549   -6.0781 H         1 <0>         0.0544
     50 H18         9.2797   -0.2976   -7.5133 H         1 <0>         0.0844
     51 H19         8.8091    1.4117   -7.6716 H         1 <0>         0.0611
     52 H20         6.2069   -1.1871   -5.4987 H         1 <0>         0.0642
     53 H21         7.6615   -1.9007   -6.2358 H         1 <0>         0.0820
     54 H22         7.8204   -0.7478   -4.8889 H         1 <0>         0.0553
     55 H23         1.5423   -0.9195   -3.5736 H         1 <0>         0.4261
@<TRIPOS>BOND
     1    1    2 1
     2    1   33 1
     3    1   34 1
     4    1   35 1
     5    2    6 1
     6    2    3 2
     7    3    4 1
     8    3   17 1
     9    4    5 1
    10    5    6 2
    11    5    7 1
    12    7   12 ar
    13    7    8 ar
    14    8    9 ar
    15    8   36 1
    16    9   10 ar
    17    9   37 1
    18   10   11 ar
    19   10   13 1
    20   11   12 ar
    21   11   38 1
    22   12   39 1
    23   13   14 1
    24   13   15 1
    25   13   16 1
    26   17   18 1
    27   17   40 1
    28   17   41 1
    29   18   19 1
    30   18   42 1
    31   18   55 1
    32   19   20 1
    33   19   43 1
    34   19   44 1
    35   20   25 ar
    36   20   21 ar
    37   21   22 ar
    38   21   45 1
    39   22   23 ar
    40   22   46 1
    41   23   24 ar
    42   23   26 1
    43   24   25 ar
    44   24   47 1
    45   25   48 1
    46   26   27 1
    47   27   28 1
    48   27   29 1
    49   27   30 1
    50   28   49 1
    51   28   50 1
    52   28   51 1
    53   29   52 1
    54   29   53 1
    55   29   54 1
    56   30   31 2
    57   30   32 1
@<TRIPOS>MOLECULE
CHEMBL218094__1
   54    56     0     0     0
SMALL
USER_CHARGES

@<TRIPOS>ATOM
      1 C1         -0.5594    1.3252   -0.6186 C.3       1 <0>        -0.0847
      2 C2         -0.5502   -0.1802   -0.6865 C.2       1 <0>         0.0537
      3 C3         -0.4498   -0.8070   -1.8888 C.2       1 <0>        -0.1481
      4 S1         -0.4882   -2.5189   -1.3726 S.3       1 <0>         0.0532
      5 C4         -0.6333   -2.2136    0.3832 C.2       1 <0>         0.1182
      6 N1         -0.6336   -0.8883    0.4151 N.2       1 <0>        -0.4809
      7 C5         -0.7233   -3.1792    1.4994 C.ar      1 <0>         0.0288
      8 C6         -0.6936   -4.5507    1.2435 C.ar      1 <0>        -0.0971
      9 C7         -0.7780   -5.4465    2.2894 C.ar      1 <0>        -0.0651
     10 C8         -0.8922   -4.9876    3.5896 C.ar      1 <0>        -0.1738
     11 C9         -0.9226   -3.6291    3.8500 C.ar      1 <0>        -0.0684
     12 C10        -0.8324   -2.7229    2.8136 C.ar      1 <0>        -0.0767
     13 C11        -0.9844   -5.9717    4.7272 C.3       1 <0>         0.5088
     14 F1          0.3012   -6.2690    5.1920 F         1 <0>        -0.1743
     15 F2         -1.7387   -5.4149    5.7656 F         1 <0>        -0.1759
     16 F3         -1.6014   -7.1450    4.2799 F         1 <0>        -0.1758
     17 C12        -0.3377   -0.2215   -3.2729 C.3       1 <0>         0.1431
     18 N2          1.0790   -0.0276   -3.6094 N.3       1 <0>        -0.6791
     19 C13         1.2272    0.5430   -4.9549 C.3       1 <0>         0.1135
     20 C14         2.6906    0.7272   -5.2640 C.ar      1 <0>        -0.1461
     21 C15         3.3211    1.9134   -4.9367 C.ar      1 <0>        -0.0864
     22 C16         4.6624    2.0850   -5.2194 C.ar      1 <0>        -0.1735
     23 C17         5.3769    1.0656   -5.8318 C.ar      1 <0>         0.1741
     24 C18         4.7421   -0.1239   -6.1587 C.ar      1 <0>        -0.1605
     25 C19         3.4019   -0.2924   -5.8692 C.ar      1 <0>        -0.0695
     26 O1          6.6964    1.2320   -6.1113 O.3       1 <0>        -0.3034
     27 C20         7.3983    0.0991   -6.6271 C.3       1 <0>         0.0300
     28 C21         8.8684    0.4644   -6.8417 C.3       1 <0>        -0.1153
     29 C22         7.3004   -1.0582   -5.6311 C.3       1 <0>        -0.1756
     30 C23         6.7867   -0.3155   -7.9405 C.2       1 <0>         0.4823
     31 O2          5.8377    0.3020   -8.3930 O.co2     1 <0>        -0.6700
     32 O3          7.2408   -1.2683   -8.5507 O.co2     1 <0>        -0.6860
     33 H1          0.4630    1.6909   -0.5224 H         1 <0>         0.0764
     34 H2         -1.0050    1.7273   -1.5285 H         1 <0>         0.0730
     35 H3         -1.1428    1.6464    0.2443 H         1 <0>         0.0749
     36 H4         -0.6052   -4.9102    0.2289 H         1 <0>         0.1405
     37 H5         -0.7552   -6.5082    2.0928 H         1 <0>         0.1449
     38 H6         -1.0123   -3.2773    4.8672 H         1 <0>         0.1439
     39 H7         -0.8510   -1.6627    3.0186 H         1 <0>         0.1481
     40 H8         -0.7924   -0.9018   -3.9931 H         1 <0>         0.0910
     41 H9         -0.8533    0.7383   -3.3043 H         1 <0>         0.0605
     42 H10         1.5389    0.5479   -2.9199 H         1 <0>         0.3456
     43 H11         0.7835   -0.1320   -5.6867 H         1 <0>         0.0784
     44 H12         0.7225    1.5082   -4.9979 H         1 <0>         0.0368
     45 H13         2.7645    2.7067   -4.4601 H         1 <0>         0.1135
     46 H14         5.1543    3.0120   -4.9643 H         1 <0>         0.1192
     47 H15         5.2962   -0.9189   -6.6355 H         1 <0>         0.1395
     48 H16         2.9083   -1.2198   -6.1195 H         1 <0>         0.1142
     49 H17         9.3331    0.6815   -5.8799 H         1 <0>         0.0502
     50 H18         9.3850   -0.3710   -7.3145 H         1 <0>         0.0784
     51 H19         8.9346    1.3427   -7.4838 H         1 <0>         0.0567
     52 H20         6.2547   -1.2320   -5.3776 H         1 <0>         0.0702
     53 H21         7.7205   -1.9590   -6.0784 H         1 <0>         0.0745
     54 H22         7.8565   -0.8080   -4.7276 H         1 <0>         0.0502
@<TRIPOS>BOND
     1    1    2 1
     2    1   33 1
     3    1   34 1
     4    1   35 1
     5    2    6 1
     6    2    3 2
     7    3    4 1
     8    3   17 1
     9    4    5 1
    10    5    6 2
    11    5    7 1
    12    7   12 ar
    13    7    8 ar
    14    8    9 ar
    15    8   36 1
    16    9   10 ar
    17    9   37 1
    18   10   11 ar
    19   10   13 1
    20   11   12 ar
    21   11   38 1
    22   12   39 1
    23   13   14 1
    24   13   15 1
    25   13   16 1
    26   17   18 1
    27   17   40 1
    28   17   41 1
    29   18   19 1
    30   18   42 1
    31   19   20 1
    32   19   43 1
    33   19   44 1
    34   20   25 ar
    35   20   21 ar
    36   21   22 ar
    37   21   45 1
    38   22   23 ar
    39   22   46 1
    40   23   24 ar
    41   23   26 1
    42   24   25 ar
    43   24   47 1
    44   25   48 1
    45   26   27 1
    46   27   28 1
    47   27   29 1
    48   27   30 1
    49   28   49 1
    50   28   50 1
    51   28   51 1
    52   29   52 1
    53   29   53 1
    54   29   54 1
    55   30   31 2
    56   30   32 1
@<TRIPOS>MOLECULE
CHEMBL1091196
   58    61     0     0     0
SMALL
USER_CHARGES

@<TRIPOS>ATOM
      1 C1         -0.0184    1.5028    0.0103 C.3       1 <0>        -0.0768
      2 C2          0.0021   -0.0041    0.0020 C.2       1 <0>        -0.0012
      3 C3         -1.0704   -0.8163    0.0025 C.2       1 <0>        -0.0174
      4 N1         -0.6270   -2.0826   -0.0069 N.2       1 <0>        -0.4452
      5 C4          0.6852   -2.0676   -0.0131 C.2       1 <0>         0.2239
      6 O1          1.0982   -0.7883   -0.0131 O.3       1 <0>        -0.1906
      7 C5          1.5619   -3.2576   -0.0233 C.ar      1 <0>        -0.0082
      8 C6          1.0056   -4.5377   -0.0330 C.ar      1 <0>        -0.0580
      9 C7          1.8288   -5.6444   -0.0424 C.ar      1 <0>        -0.1097
     10 C8          3.2046   -5.4873   -0.0419 C.ar      1 <0>        -0.0196
     11 C9          3.7624   -4.2198   -0.0324 C.ar      1 <0>        -0.1103
     12 C10         2.9494   -3.1056   -0.0291 C.ar      1 <0>        -0.0775
     13 Cl1         4.2343   -6.8849   -0.0527 Cl        1 <0>        -0.0624
     14 C11        -2.5132   -0.3812    0.0123 C.3       1 <0>         0.1475
     15 O2         -2.9759   -0.2356   -1.3319 O.3       1 <0>        -0.3085
     16 C12        -4.2667    0.1544   -1.5011 C.ar      1 <0>         0.1227
     17 C13        -5.0698    0.3977   -0.3961 C.ar      1 <0>        -0.2087
     18 C14        -6.3812    0.7945   -0.5708 C.ar      1 <0>        -0.0865
     19 C15        -6.8940    0.9493   -1.8457 C.ar      1 <0>        -0.1282
     20 C16        -6.0960    0.7072   -2.9484 C.ar      1 <0>        -0.0615
     21 C17        -4.7819    0.3156   -2.7789 C.ar      1 <0>        -0.1306
     22 C18        -6.6582    0.8764   -4.3363 C.3       1 <0>         0.1773
     23 N2         -6.4403    2.2533   -4.7869 N.am      1 <0>        -0.5541
     24 C19        -5.2130    2.6030   -5.5064 C.3       1 <0>         0.0432
     25 C20        -5.4291    2.4200   -6.9866 C.2       1 <0>         0.4820
     26 O3         -6.5082    2.0334   -7.4019 O.co2     1 <0>        -0.6832
     27 O4         -4.5248    2.6587   -7.7687 O.co2     1 <0>        -0.6990
     28 C21        -7.3688    3.1983   -4.5394 C.2       1 <0>         0.6619
     29 O5         -8.3868    2.9082   -3.9426 O.2       1 <0>        -0.5930
     30 O6         -7.1686    4.4636   -4.9535 O.3       1 <0>        -0.3532
     31 C22        -8.1944    5.4133   -4.6570 C.3       1 <0>         0.1190
     32 C23        -7.7920    6.7853   -5.2016 C.3       1 <0>        -0.1547
     33 C24        -7.5764    7.9118   -4.1889 C.3       1 <0>        -0.1776
     34 C25        -8.8144    7.9180   -5.0880 C.3       1 <0>        -0.1698
     35 H1          1.0042    1.8801    0.0026 H         1 <0>         0.0837
     36 H2         -0.5455    1.8639   -0.8728 H         1 <0>         0.0998
     37 H3         -0.5286    1.8543    0.9071 H         1 <0>         0.0937
     38 H4         -0.0673   -4.6614   -0.0326 H         1 <0>         0.1495
     39 H5          1.3994   -6.6354   -0.0499 H         1 <0>         0.1443
     40 H6          4.8362   -4.1036   -0.0317 H         1 <0>         0.1425
     41 H7          3.3856   -2.1176   -0.0266 H         1 <0>         0.1413
     42 H8         -3.1154   -1.1315    0.5246 H         1 <0>         0.0811
     43 H9         -2.6015    0.5726    0.5323 H         1 <0>         0.0803
     44 H10        -4.6699    0.2765    0.5998 H         1 <0>         0.1234
     45 H11        -7.0068    0.9836    0.2890 H         1 <0>         0.1228
     46 H12        -7.9196    1.2597   -1.9803 H         1 <0>         0.1321
     47 H13        -4.1576    0.1309   -3.6406 H         1 <0>         0.1317
     48 H14        -6.1581    0.1878   -5.0173 H         1 <0>         0.0933
     49 H15        -7.7270    0.6631   -4.3239 H         1 <0>         0.0955
     50 H16        -4.9559    3.6424   -5.3025 H         1 <0>         0.0811
     51 H17        -4.4007    1.9560   -5.1751 H         1 <0>         0.0758
     52 H18        -9.1278    5.0971   -5.1225 H         1 <0>         0.0690
     53 H19        -8.3300    5.4764   -3.5773 H         1 <0>         0.0627
     54 H20        -7.1519    6.7717   -6.0837 H         1 <0>         0.1193
     55 H21        -7.7212    7.6755   -3.1348 H         1 <0>         0.0945
     56 H22        -6.7941    8.6395   -4.4047 H         1 <0>         0.0962
     57 H23        -8.8465    8.6497   -5.8952 H         1 <0>         0.0989
     58 H24        -9.7736    7.6857   -4.6253 H         1 <0>         0.0957
@<TRIPOS>BOND
     1    1    2 1
     2    1   35 1
     3    1   36 1
     4    1   37 1
     5    2    6 1
     6    2    3 2
     7    3    4 1
     8    3   14 1
     9    4    5 2
    10    5    6 1
    11    5    7 1
    12    7   12 ar
    13    7    8 ar
    14    8    9 ar
    15    8   38 1
    16    9   10 ar
    17    9   39 1
    18   10   11 ar
    19   10   13 1
    20   11   12 ar
    21   11   40 1
    22   12   41 1
    23   14   15 1
    24   14   42 1
    25   14   43 1
    26   15   16 1
    27   16   21 ar
    28   16   17 ar
    29   17   18 ar
    30   17   44 1
    31   18   19 ar
    32   18   45 1
    33   19   20 ar
    34   19   46 1
    35   20   21 ar
    36   20   22 1
    37   21   47 1
    38   22   23 1
    39   22   48 1
    40   22   49 1
    41   23   24 1
    42   23   28 am
    43   24   25 1
    44   24   50 1
    45   24   51 1
    46   25   26 2
    47   25   27 1
    48   28   29 2
    49   28   30 1
    50   30   31 1
    51   31   32 1
    52   31   52 1
    53   31   53 1
    54   32   34 1
    55   32   33 1
    56   32   54 1
    57   33   34 1
    58   33   55 1
    59   33   56 1
    60   34   57 1
    61   34   58 1
@<TRIPOS>MOLECULE
CHEMBL218687
   52    54     0     0     0
SMALL
USER_CHARGES

@<TRIPOS>ATOM
      1 C1          0.7728    1.7965    0.1498 C.3       1 <0>        -0.0843
      2 C2          0.7969    0.2903    0.1910 C.2       1 <0>         0.0449
      3 C3          0.6960   -0.4241   -0.9614 C.2       1 <0>        -0.1365
      4 S1          0.7794   -2.0928   -0.3234 S.3       1 <0>         0.0193
      5 C4          0.9392   -1.6578    1.4036 C.2       1 <0>         0.1160
      6 N1          0.9208   -0.3339    1.3386 N.2       1 <0>        -0.4754
      7 C5          1.0638   -2.5377    2.5854 C.ar      1 <0>         0.0315
      8 C6          1.0726   -3.9244    2.4287 C.ar      1 <0>        -0.0988
      9 C7          1.1891   -4.7398    3.5355 C.ar      1 <0>        -0.0653
     10 C8          1.2966   -4.1856    4.7986 C.ar      1 <0>        -0.1753
     11 C9          1.2881   -2.8116    4.9607 C.ar      1 <0>        -0.0677
     12 C10         1.1789   -1.9850    3.8615 C.ar      1 <0>        -0.0778
     13 C11         1.4231   -5.0824    6.0031 C.3       1 <0>         0.5090
     14 F1          2.7754   -5.3379    6.2543 F         1 <0>        -0.1748
     15 F2          0.8529   -4.4531    7.1149 F         1 <0>        -0.1758
     16 F3          0.7583   -6.2887    5.7581 F         1 <0>        -0.1760
     17 C12         0.5529    0.0568   -2.3824 C.3       1 <0>        -0.0301
     18 C13         1.9402    0.2391   -3.0013 C.3       1 <0>        -0.0590
     19 C14         1.7972    0.7200   -4.4223 C.ar      1 <0>        -0.1452
     20 C15         1.7047   -0.1951   -5.4546 C.ar      1 <0>        -0.0883
     21 C16         1.5740    0.2431   -6.7581 C.ar      1 <0>        -0.1705
     22 C17         1.5350    1.6028   -7.0309 C.ar      1 <0>         0.1699
     23 C18         1.6274    2.5190   -5.9933 C.ar      1 <0>        -0.1573
     24 C19         1.7528    2.0756   -4.6910 C.ar      1 <0>        -0.0878
     25 O1          1.4068    2.0365   -8.3125 O.3       1 <0>        -0.3032
     26 C20         1.2483    3.4431   -8.5086 C.3       1 <0>         0.0298
     27 C21         1.0811    3.7342  -10.0013 C.3       1 <0>        -0.1155
     28 C22         0.0091    3.9269   -7.7527 C.3       1 <0>        -0.1753
     29 C23         2.4662    4.1631   -7.9897 C.2       1 <0>         0.4819
     30 O2          3.3848    3.5304   -7.4975 O.co2     1 <0>        -0.6696
     31 O3          2.5329    5.3783   -8.0620 O.co2     1 <0>        -0.6861
     32 H1          1.7895    2.1732    0.0373 H         1 <0>         0.0766
     33 H2          0.1674    2.1273   -0.6941 H         1 <0>         0.0775
     34 H3          0.3442    2.1786    1.0763 H         1 <0>         0.0731
     35 H4          0.9880   -4.3582    1.4433 H         1 <0>         0.1398
     36 H5          1.1960   -5.8131    3.4156 H         1 <0>         0.1441
     37 H6          1.3720   -2.3852    5.9494 H         1 <0>         0.1438
     38 H7          1.1775   -0.9125    3.9889 H         1 <0>         0.1483
     39 H8         -0.0088   -0.6776   -2.9597 H         1 <0>         0.0848
     40 H9          0.0227    1.0091   -2.3921 H         1 <0>         0.0963
     41 H10         2.5019    0.9735   -2.4240 H         1 <0>         0.0715
     42 H11         2.4704   -0.7132   -2.9916 H         1 <0>         0.0680
     43 H12         1.7352   -1.2535   -5.2417 H         1 <0>         0.1160
     44 H13         1.5026   -0.4721   -7.5642 H         1 <0>         0.1197
     45 H14         1.5973    3.5780   -6.2031 H         1 <0>         0.1398
     46 H15         1.8204    2.7884   -3.8824 H         1 <0>         0.1139
     47 H16         0.1544    3.2843  -10.3577 H         1 <0>         0.0503
     48 H17         1.0460    4.8121  -10.1595 H         1 <0>         0.0784
     49 H18         1.9237    3.3137  -10.5501 H         1 <0>         0.0568
     50 H19         0.0683    3.6037   -6.7134 H         1 <0>         0.0696
     51 H20        -0.0390    5.0151   -7.7927 H         1 <0>         0.0746
     52 H21        -0.8848    3.5065   -8.2136 H         1 <0>         0.0504
@<TRIPOS>BOND
     1    1    2 1
     2    1   32 1
     3    1   33 1
     4    1   34 1
     5    2    6 1
     6    2    3 2
     7    3    4 1
     8    3   17 1
     9    4    5 1
    10    5    6 2
    11    5    7 1
    12    7   12 ar
    13    7    8 ar
    14    8    9 ar
    15    8   35 1
    16    9   10 ar
    17    9   36 1
    18   10   11 ar
    19   10   13 1
    20   11   12 ar
    21   11   37 1
    22   12   38 1
    23   13   14 1
    24   13   15 1
    25   13   16 1
    26   17   18 1
    27   17   39 1
    28   17   40 1
    29   18   19 1
    30   18   41 1
    31   18   42 1
    32   19   24 ar
    33   19   20 ar
    34   20   21 ar
    35   20   43 1
    36   21   22 ar
    37   21   44 1
    38   22   23 ar
    39   22   25 1
    40   23   24 ar
    41   23   45 1
    42   24   46 1
    43   25   26 1
    44   26   27 1
    45   26   28 1
    46   26   29 1
    47   27   47 1
    48   27   48 1
    49   27   49 1
    50   28   50 1
    51   28   51 1
    52   28   52 1
    53   29   30 2
    54   29   31 1
@<TRIPOS>MOLECULE
CHEMBL441554
   67    70     0     0     0
SMALL
USER_CHARGES

@<TRIPOS>ATOM
      1 C1         -0.0184    1.5028    0.0103 C.3       1 <0>        -0.0726
      2 C2          0.0021   -0.0041    0.0020 C.2       1 <0>        -0.0309
      3 C3         -1.0705   -0.8164    0.0025 C.2       1 <0>        -0.0079
      4 N1         -0.6270   -2.0826   -0.0064 N.2       1 <0>        -0.4590
      5 C4          0.6851   -2.0676   -0.0123 C.2       1 <0>         0.2292
      6 O1          1.0981   -0.7883   -0.0131 O.3       1 <0>        -0.1930
      7 C5          1.5619   -3.2577   -0.0227 C.ar      1 <0>        -0.0175
      8 C6          1.0059   -4.5378   -0.0330 C.ar      1 <0>        -0.0707
      9 C7          1.8298   -5.6443   -0.0432 C.ar      1 <0>        -0.1206
     10 C8          3.2044   -5.4871   -0.0433 C.ar      1 <0>        -0.1010
     11 C9          3.7620   -4.2209   -0.0327 C.ar      1 <0>        -0.1211
     12 C10         2.9493   -3.1060   -0.0282 C.ar      1 <0>        -0.0905
     13 C11        -2.5133   -0.3814    0.0119 C.3       1 <0>        -0.0338
     14 C12        -3.0085   -0.2260   -1.4274 C.3       1 <0>         0.0682
     15 O2         -4.3766    0.1865   -1.4185 O.3       1 <0>        -0.3152
     16 C13        -4.9731    0.3716   -2.6255 C.ar      1 <0>         0.1104
     17 C14        -4.2579    0.1549   -3.7946 C.ar      1 <0>        -0.1915
     18 C15        -4.8665    0.3431   -5.0201 C.ar      1 <0>        -0.0829
     19 C16        -6.1876    0.7473   -5.0825 C.ar      1 <0>        -0.0756
     20 C17        -6.9022    0.9643   -3.9192 C.ar      1 <0>        -0.0773
     21 C18        -6.2996    0.7718   -2.6908 C.ar      1 <0>        -0.1236
     22 C19        -8.3415    1.4051   -3.9909 C.3       1 <0>         0.1774
     23 N2         -9.1951    0.2444   -4.2557 N.am      1 <0>        -0.6980
     24 C20       -10.5297    0.3996   -4.3618 C.2       1 <0>         0.6497
     25 O3        -11.0249    1.5022   -4.2378 O.2       1 <0>        -0.5692
     26 O4        -11.3142   -0.6672   -4.6052 O.3       1 <0>        -0.3603
     27 C21       -12.7198   -0.4295   -4.7053 C.3       1 <0>         0.1266
     28 C22       -13.4310   -1.7298   -4.9781 C.ar      1 <0>        -0.0947
     29 C23       -13.6371   -2.1449   -6.2804 C.ar      1 <0>        -0.0912
     30 C24       -14.2895   -3.3377   -6.5306 C.ar      1 <0>        -0.1233
     31 C25       -14.7353   -4.1156   -5.4784 C.ar      1 <0>        -0.1118
     32 C26       -14.5283   -3.7009   -4.1761 C.ar      1 <0>        -0.1266
     33 C27       -13.8722   -2.5102   -3.9258 C.ar      1 <0>        -0.0950
     34 C28        -6.8492    0.9520   -6.4210 C.3       1 <0>        -0.0624
     35 C29        -6.7596    2.4280   -6.8138 C.3       1 <0>        -0.1756
     36 C30        -7.4212    2.6326   -8.1522 C.2       1 <0>         0.4902
     37 O5         -7.9183    1.6857   -8.7377 O.co2     1 <0>        -0.6975
     38 O6         -7.4593    3.7451   -8.6496 O.co2     1 <0>        -0.7052
     39 H1          1.0042    1.8801    0.0026 H         1 <0>         0.0809
     40 H2         -0.5455    1.8639   -0.8728 H         1 <0>         0.0929
     41 H3         -0.5286    1.8543    0.9071 H         1 <0>         0.0934
     42 H4         -0.0670   -4.6619   -0.0326 H         1 <0>         0.1389
     43 H5          1.4008   -6.6354   -0.0508 H         1 <0>         0.1328
     44 H6          3.8450   -6.3565   -0.0513 H         1 <0>         0.1285
     45 H7          4.8357   -4.1050   -0.0321 H         1 <0>         0.1307
     46 H8          3.3858   -2.1181   -0.0249 H         1 <0>         0.1302
     47 H9         -3.1156   -1.1316    0.5243 H         1 <0>         0.0944
     48 H10        -2.6018    0.5726    0.5316 H         1 <0>         0.0930
     49 H11        -2.4061    0.5242   -1.9398 H         1 <0>         0.0613
     50 H12        -2.9200   -1.1800   -1.9471 H         1 <0>         0.0653
     51 H13        -3.2261   -0.1604   -3.7464 H         1 <0>         0.1238
     52 H14        -4.3102    0.1749   -5.9304 H         1 <0>         0.1275
     53 H15        -6.8596    0.9372   -1.7823 H         1 <0>         0.1309
     54 H16        -8.6299    1.8596   -3.0430 H         1 <0>         0.0787
     55 H17        -8.4589    2.1332   -4.7935 H         1 <0>         0.0928
     56 H18        -8.7998   -0.6359   -4.3547 H         1 <0>         0.4079
     57 H19       -13.0841   -0.0054   -3.7697 H         1 <0>         0.0761
     58 H20       -12.9131    0.2682   -5.5201 H         1 <0>         0.0798
     59 H21       -13.2889   -1.5372   -7.1024 H         1 <0>         0.1285
     60 H22       -14.4512   -3.6617   -7.5481 H         1 <0>         0.1254
     61 H23       -15.2456   -5.0471   -5.6739 H         1 <0>         0.1223
     62 H24       -14.8769   -4.3085   -3.3540 H         1 <0>         0.1234
     63 H25       -13.7072   -2.1881   -2.9083 H         1 <0>         0.1238
     64 H26        -6.3444    0.3447   -7.1724 H         1 <0>         0.0710
     65 H27        -7.8962    0.6557   -6.3578 H         1 <0>         0.0750
     66 H28        -7.2643    3.0352   -6.0624 H         1 <0>         0.0578
     67 H29        -5.7125    2.7242   -6.8770 H         1 <0>         0.0570
@<TRIPOS>BOND
     1    1    2 1
     2    1   39 1
     3    1   40 1
     4    1   41 1
     5    2    6 1
     6    2    3 2
     7    3    4 1
     8    3   13 1
     9    4    5 2
    10    5    6 1
    11    5    7 1
    12    7   12 ar
    13    7    8 ar
    14    8    9 ar
    15    8   42 1
    16    9   10 ar
    17    9   43 1
    18   10   11 ar
    19   10   44 1
    20   11   12 ar
    21   11   45 1
    22   12   46 1
    23   13   14 1
    24   13   47 1
    25   13   48 1
    26   14   15 1
    27   14   49 1
    28   14   50 1
    29   15   16 1
    30   16   21 ar
    31   16   17 ar
    32   17   18 ar
    33   17   51 1
    34   18   19 ar
    35   18   52 1
    36   19   20 ar
    37   19   34 1
    38   20   21 ar
    39   20   22 1
    40   21   53 1
    41   22   23 1
    42   22   54 1
    43   22   55 1
    44   23   24 am
    45   23   56 1
    46   24   25 2
    47   24   26 1
    48   26   27 1
    49   27   28 1
    50   27   57 1
    51   27   58 1
    52   28   33 ar
    53   28   29 ar
    54   29   30 ar
    55   29   59 1
    56   30   31 ar
    57   30   60 1
    58   31   32 ar
    59   31   61 1
    60   32   33 ar
    61   32   62 1
    62   33   63 1
    63   34   35 1
    64   34   64 1
    65   34   65 1
    66   35   36 1
    67   35   66 1
    68   35   67 1
    69   36   37 2
    70   36   38 1
@<TRIPOS>MOLECULE
CHEMBL221044
   70    74     0     0     0
SMALL
USER_CHARGES

@<TRIPOS>ATOM
      1 C1         -1.0794    2.6432    0.6209 C.3       1 <0>        -0.1524
      2 C2         -0.8197    1.1413    0.4877 C.3       1 <0>        -0.1172
      3 C3         -2.1546    0.3956    0.4357 C.3       1 <0>        -0.0715
      4 C4         -1.8988   -1.0838    0.3045 C.ar      1 <0>        -0.1188
      5 C5         -1.8903   -1.6729   -0.9414 C.ar      1 <0>        -0.0211
      6 C6         -1.6528   -3.0427   -1.0620 C.ar      1 <0>        -0.0840
      7 C7         -1.4247   -3.8115    0.0806 C.ar      1 <0>        -0.0376
      8 C8         -1.4346   -3.2159    1.3229 C.ar      1 <0>        -0.2104
      9 C9         -1.6661   -1.8508    1.4389 C.ar      1 <0>         0.1654
     10 O1         -1.6700   -1.2662    2.6643 O.3       1 <0>        -0.3008
     11 C10        -1.4237   -2.1137    3.7882 C.3       1 <0>         0.0603
     12 C11        -1.4672   -1.2832    5.0724 C.3       1 <0>        -0.1184
     13 C12        -1.2034   -2.1905    6.2758 C.3       1 <0>         0.0656
     14 O2         -1.2440   -1.4148    7.4752 O.3       1 <0>        -0.3151
     15 C13        -1.0280   -2.0740    8.6439 C.ar      1 <0>         0.1139
     16 C14        -0.7763   -3.4384    8.6367 C.ar      1 <0>        -0.2081
     17 C15        -0.5575   -4.1034    9.8260 C.ar      1 <0>        -0.0704
     18 C16        -0.5886   -3.4146   11.0277 C.ar      1 <0>        -0.1077
     19 C17        -0.8393   -2.0549   11.0374 C.ar      1 <0>        -0.0610
     20 C18        -1.0529   -1.3841    9.8457 C.ar      1 <0>        -0.1400
     21 C19        -0.8204   -1.5413   12.4613 C.3       1 <0>        -0.0828
     22 C20        -0.9664   -2.7976   13.3459 C.3       1 <0>        -0.1019
     23 C21        -0.3838   -3.9069   12.4446 C.3       1 <0>        -0.0267
     24 H1          0.6785   -4.0410   12.6486 H         1 <0>         0.0889
     25 C22        -1.1377   -5.2200   12.6645 C.3       1 <0>        -0.1740
     26 C23        -0.8097   -5.7649   14.0307 C.2       1 <0>         0.4909
     27 O3          0.0345   -5.2171   14.7189 O.co2     1 <0>        -0.6953
     28 O4         -1.3886   -6.7535   14.4478 O.co2     1 <0>        -0.7081
     29 C24        -1.6435   -3.6787   -2.3975 C.2       1 <0>         0.2854
     30 N1         -1.8332   -3.0979   -3.5510 N.2       1 <0>        -0.5474
     31 C25        -1.8123   -3.8670   -4.7789 C.3       1 <0>         0.2493
     32 C26        -1.1267   -5.2279   -4.5949 C.3       1 <0>        -0.0804
     33 S1         -1.3623   -5.4022   -2.7727 S.3       1 <0>        -0.2353
     34 C27         0.3666   -5.1728   -4.8702 C.3       1 <0>        -0.1143
     35 C28         0.6716   -4.3961   -6.1468 C.3       1 <0>        -0.1530
     36 C29         0.0580   -2.9971   -6.0346 C.3       1 <0>         0.0542
     37 O5         -1.3517   -3.1288   -5.8841 O.3       1 <0>        -0.3415
     38 H2         -0.1284    3.1746    0.6579 H         1 <0>         0.0539
     39 H3         -1.6560    2.9897   -0.2368 H         1 <0>         0.0532
     40 H4         -1.6389    2.8354    1.5364 H         1 <0>         0.0558
     41 H5         -0.2602    0.9492   -0.4279 H         1 <0>         0.0599
     42 H6         -0.2431    0.7949    1.3453 H         1 <0>         0.0648
     43 H7         -2.7141    0.5877    1.3512 H         1 <0>         0.0793
     44 H8         -2.7312    0.7420   -0.4220 H         1 <0>         0.0726
     45 H9         -2.0675   -1.0753   -1.8233 H         1 <0>         0.1424
     46 H10        -1.2409   -4.8720   -0.0091 H         1 <0>         0.1336
     47 H11        -1.2584   -3.8102    2.2073 H         1 <0>         0.1388
     48 H12        -2.1872   -2.8904    3.8318 H         1 <0>         0.0703
     49 H13        -0.4413   -2.5750    3.6870 H         1 <0>         0.0701
     50 H14        -0.7037   -0.5064    5.0288 H         1 <0>         0.0867
     51 H15        -2.4495   -0.8218    5.1737 H         1 <0>         0.0869
     52 H16        -1.9669   -2.9673    6.3194 H         1 <0>         0.0645
     53 H17        -0.2211   -2.6519    6.1745 H         1 <0>         0.0642
     54 H18        -0.7520   -3.9792    7.7022 H         1 <0>         0.1233
     55 H19        -0.3615   -5.1654    9.8200 H         1 <0>         0.1224
     56 H20        -1.2440   -0.3212    9.8527 H         1 <0>         0.1240
     57 H21         0.1246   -1.0396   12.6699 H         1 <0>         0.0794
     58 H22        -1.6556   -0.8614   12.6293 H         1 <0>         0.0709
     59 H23        -0.3838   -2.6966   14.2616 H         1 <0>         0.0855
     60 H24        -2.0147   -2.9927   13.5719 H         1 <0>         0.0643
     61 H25        -2.2103   -5.0395   12.5931 H         1 <0>         0.0567
     62 H26        -0.8394   -5.9419   11.9042 H         1 <0>         0.0557
     63 H27        -2.8540   -4.1042   -4.9948 H         1 <0>         0.1186
     64 H28        -1.6237   -6.0184   -5.1572 H         1 <0>         0.1412
     65 H29         0.8658   -4.6886   -4.0309 H         1 <0>         0.0756
     66 H30         0.7477   -6.1889   -4.9718 H         1 <0>         0.0827
     67 H31         1.7509   -4.3123   -6.2740 H         1 <0>         0.0855
     68 H32         0.2407   -4.9163   -7.0023 H         1 <0>         0.0784
     69 H33         0.4722   -2.4845   -5.1665 H         1 <0>         0.0554
     70 H34         0.2777   -2.4278   -6.9378 H         1 <0>         0.1051
@<TRIPOS>BOND
     1    1    2 1
     2    1   38 1
     3    1   39 1
     4    1   40 1
     5    2    3 1
     6    2   41 1
     7    2   42 1
     8    3    4 1
     9    3   43 1
    10    3   44 1
    11    4    9 ar
    12    4    5 ar
    13    5    6 ar
    14    5   45 1
    15    6    7 ar
    16    6   29 1
    17    7    8 ar
    18    7   46 1
    19    8    9 ar
    20    8   47 1
    21    9   10 1
    22   10   11 1
    23   11   12 1
    24   11   48 1
    25   11   49 1
    26   12   13 1
    27   12   50 1
    28   12   51 1
    29   13   14 1
    30   13   52 1
    31   13   53 1
    32   14   15 1
    33   15   20 ar
    34   15   16 ar
    35   16   17 ar
    36   16   54 1
    37   17   18 ar
    38   17   55 1
    39   18   23 1
    40   18   19 ar
    41   19   20 ar
    42   19   21 1
    43   20   56 1
    44   21   22 1
    45   21   57 1
    46   21   58 1
    47   22   23 1
    48   22   59 1
    49   22   60 1
    50   23   24 1
    51   23   25 1
    52   25   26 1
    53   25   61 1
    54   25   62 1
    55   26   27 2
    56   26   28 1
    57   29   33 1
    58   29   30 2
    59   30   31 1
    60   31   37 1
    61   31   32 1
    62   31   63 1
    63   32   33 1
    64   32   34 1
    65   32   64 1
    66   34   35 1
    67   34   65 1
    68   34   66 1
    69   35   36 1
    70   35   67 1
    71   35   68 1
    72   36   37 1
    73   36   69 1
    74   36   70 1
@<TRIPOS>MOLECULE
CHEMBL221044__1
   70    74     0     0     0
SMALL
USER_CHARGES

@<TRIPOS>ATOM
      1 C1         -1.0794    2.6432    0.6209 C.3       1 <0>        -0.1523
      2 C2         -0.8197    1.1413    0.4877 C.3       1 <0>        -0.1178
      3 C3         -2.1546    0.3956    0.4357 C.3       1 <0>        -0.0715
      4 C4         -1.8988   -1.0838    0.3045 C.ar      1 <0>        -0.1190
      5 C5         -1.8903   -1.6729   -0.9414 C.ar      1 <0>        -0.0201
      6 C6         -1.6528   -3.0427   -1.0620 C.ar      1 <0>        -0.0833
      7 C7         -1.4247   -3.8115    0.0806 C.ar      1 <0>        -0.0355
      8 C8         -1.4346   -3.2159    1.3229 C.ar      1 <0>        -0.2105
      9 C9         -1.6661   -1.8508    1.4389 C.ar      1 <0>         0.1667
     10 O1         -1.6700   -1.2662    2.6643 O.3       1 <0>        -0.3005
     11 C10        -1.4237   -2.1137    3.7882 C.3       1 <0>         0.0601
     12 C11        -1.4672   -1.2832    5.0724 C.3       1 <0>        -0.1184
     13 C12        -1.2034   -2.1905    6.2758 C.3       1 <0>         0.0655
     14 O2         -1.2440   -1.4148    7.4752 O.3       1 <0>        -0.3151
     15 C13        -1.0280   -2.0740    8.6439 C.ar      1 <0>         0.1140
     16 C14        -0.7763   -3.4384    8.6367 C.ar      1 <0>        -0.2081
     17 C15        -0.5575   -4.1034    9.8260 C.ar      1 <0>        -0.0704
     18 C16        -0.5886   -3.4146   11.0277 C.ar      1 <0>        -0.1077
     19 C17        -0.8393   -2.0549   11.0374 C.ar      1 <0>        -0.0610
     20 C18        -1.0529   -1.3841    9.8457 C.ar      1 <0>        -0.1400
     21 C19        -0.8204   -1.5413   12.4613 C.3       1 <0>        -0.0829
     22 C20        -0.9664   -2.7976   13.3459 C.3       1 <0>        -0.1019
     23 C21        -0.3838   -3.9069   12.4446 C.3       1 <0>        -0.0266
     24 H1          0.6785   -4.0410   12.6486 H         1 <0>         0.0889
     25 C22        -1.1377   -5.2200   12.6645 C.3       1 <0>        -0.1740
     26 C23        -0.8097   -5.7649   14.0307 C.2       1 <0>         0.4909
     27 O3          0.0345   -5.2171   14.7189 O.co2     1 <0>        -0.6953
     28 O4         -1.3886   -6.7535   14.4478 O.co2     1 <0>        -0.7082
     29 C24        -1.6435   -3.6787   -2.3975 C.2       1 <0>         0.2839
     30 N1         -1.8353   -3.0922   -3.5648 N.2       1 <0>        -0.5247
     31 C25        -1.9067   -3.9058   -4.7547 C.3       1 <0>         0.2473
     32 C26        -1.0509   -5.1899   -4.5474 C.3       1 <0>        -0.1193
     33 S1         -1.3610   -5.4108   -2.7761 S.3       1 <0>        -0.2040
     34 C27        -1.5029   -6.2269   -5.5159 C.3       1 <0>        -0.0914
     35 C28        -1.2471   -5.6466   -6.9249 C.3       1 <0>        -0.1504
     36 C29        -1.8362   -4.2472   -7.0690 C.3       1 <0>         0.0541
     37 O5         -1.4528   -3.3669   -5.9941 O.3       1 <0>        -0.3464
     38 H2         -0.1284    3.1746    0.6579 H         1 <0>         0.0540
     39 H3         -1.6560    2.9897   -0.2368 H         1 <0>         0.0532
     40 H4         -1.6389    2.8354    1.5364 H         1 <0>         0.0556
     41 H5         -0.2602    0.9492   -0.4279 H         1 <0>         0.0606
     42 H6         -0.2431    0.7949    1.3453 H         1 <0>         0.0649
     43 H7         -2.7141    0.5877    1.3512 H         1 <0>         0.0794
     44 H8         -2.7312    0.7420   -0.4220 H         1 <0>         0.0728
     45 H9         -2.0675   -1.0753   -1.8233 H         1 <0>         0.1432
     46 H10        -1.2409   -4.8720   -0.0091 H         1 <0>         0.1348
     47 H11        -1.2584   -3.8102    2.2073 H         1 <0>         0.1395
     48 H12        -2.1872   -2.8904    3.8318 H         1 <0>         0.0705
     49 H13        -0.4413   -2.5750    3.6870 H         1 <0>         0.0704
     50 H14        -0.7037   -0.5064    5.0288 H         1 <0>         0.0868
     51 H15        -2.4495   -0.8218    5.1737 H         1 <0>         0.0868
     52 H16        -1.9669   -2.9673    6.3194 H         1 <0>         0.0645
     53 H17        -0.2211   -2.6519    6.1745 H         1 <0>         0.0643
     54 H18        -0.7520   -3.9792    7.7022 H         1 <0>         0.1234
     55 H19        -0.3615   -5.1654    9.8200 H         1 <0>         0.1224
     56 H20        -1.2440   -0.3212    9.8527 H         1 <0>         0.1240
     57 H21         0.1246   -1.0396   12.6699 H         1 <0>         0.0794
     58 H22        -1.6556   -0.8614   12.6293 H         1 <0>         0.0708
     59 H23        -0.3838   -2.6966   14.2616 H         1 <0>         0.0854
     60 H24        -2.0147   -2.9927   13.5719 H         1 <0>         0.0643
     61 H25        -2.2103   -5.0395   12.5931 H         1 <0>         0.0567
     62 H26        -0.8394   -5.9419   11.9042 H         1 <0>         0.0557
     63 H27        -2.9398   -4.2285   -4.8842 H         1 <0>         0.0881
     64 H28         0.0028   -4.9625   -4.7088 H         1 <0>         0.1122
     65 H29        -0.9282   -7.1429   -5.3786 H         1 <0>         0.0866
     66 H30        -2.5658   -6.4270   -5.3810 H         1 <0>         0.0808
     67 H31        -0.1725   -5.6005   -7.1014 H         1 <0>         0.0772
     68 H32        -1.7010   -6.3023   -7.6679 H         1 <0>         0.0906
     69 H33        -1.4978   -3.8186   -8.0123 H         1 <0>         0.1073
     70 H34        -2.9233   -4.3238   -7.0900 H         1 <0>         0.0592
@<TRIPOS>BOND
     1    1    2 1
     2    1   38 1
     3    1   39 1
     4    1   40 1
     5    2    3 1
     6    2   41 1
     7    2   42 1
     8    3    4 1
     9    3   43 1
    10    3   44 1
    11    4    9 ar
    12    4    5 ar
    13    5    6 ar
    14    5   45 1
    15    6    7 ar
    16    6   29 1
    17    7    8 ar
    18    7   46 1
    19    8    9 ar
    20    8   47 1
    21    9   10 1
    22   10   11 1
    23   11   12 1
    24   11   48 1
    25   11   49 1
    26   12   13 1
    27   12   50 1
    28   12   51 1
    29   13   14 1
    30   13   52 1
    31   13   53 1
    32   14   15 1
    33   15   20 ar
    34   15   16 ar
    35   16   17 ar
    36   16   54 1
    37   17   18 ar
    38   17   55 1
    39   18   23 1
    40   18   19 ar
    41   19   20 ar
    42   19   21 1
    43   20   56 1
    44   21   22 1
    45   21   57 1
    46   21   58 1
    47   22   23 1
    48   22   59 1
    49   22   60 1
    50   23   24 1
    51   23   25 1
    52   25   26 1
    53   25   61 1
    54   25   62 1
    55   26   27 2
    56   26   28 1
    57   29   33 1
    58   29   30 2
    59   30   31 1
    60   31   37 1
    61   31   32 1
    62   31   63 1
    63   32   33 1
    64   32   34 1
    65   32   64 1
    66   34   35 1
    67   34   65 1
    68   34   66 1
    69   35   36 1
    70   35   67 1
    71   35   68 1
    72   36   37 1
    73   36   69 1
    74   36   70 1
@<TRIPOS>MOLECULE
CHEMBL221044__2
   70    74     0     0     0
SMALL
USER_CHARGES

@<TRIPOS>ATOM
      1 C1         -1.0794    2.6432    0.6209 C.3       1 <0>        -0.1524
      2 C2         -0.8197    1.1413    0.4877 C.3       1 <0>        -0.1175
      3 C3         -2.1546    0.3956    0.4357 C.3       1 <0>        -0.0717
      4 C4         -1.8988   -1.0838    0.3045 C.ar      1 <0>        -0.1190
      5 C5         -1.8903   -1.6729   -0.9414 C.ar      1 <0>        -0.0201
      6 C6         -1.6528   -3.0427   -1.0620 C.ar      1 <0>        -0.0834
      7 C7         -1.4247   -3.8115    0.0806 C.ar      1 <0>        -0.0356
      8 C8         -1.4346   -3.2159    1.3229 C.ar      1 <0>        -0.2105
      9 C9         -1.6661   -1.8508    1.4389 C.ar      1 <0>         0.1667
     10 O1         -1.6700   -1.2662    2.6643 O.3       1 <0>        -0.3005
     11 C10        -1.4237   -2.1137    3.7882 C.3       1 <0>         0.0601
     12 C11        -1.4672   -1.2832    5.0724 C.3       1 <0>        -0.1184
     13 C12        -1.2034   -2.1905    6.2758 C.3       1 <0>         0.0655
     14 O2         -1.2440   -1.4148    7.4752 O.3       1 <0>        -0.3151
     15 C13        -1.0280   -2.0740    8.6439 C.ar      1 <0>         0.1140
     16 C14        -0.7763   -3.4384    8.6367 C.ar      1 <0>        -0.2081
     17 C15        -0.5575   -4.1034    9.8260 C.ar      1 <0>        -0.0704
     18 C16        -0.5886   -3.4146   11.0277 C.ar      1 <0>        -0.1077
     19 C17        -0.8393   -2.0549   11.0374 C.ar      1 <0>        -0.0610
     20 C18        -1.0529   -1.3841    9.8457 C.ar      1 <0>        -0.1400
     21 C19        -0.8204   -1.5413   12.4613 C.3       1 <0>        -0.0829
     22 C20        -0.9664   -2.7976   13.3459 C.3       1 <0>        -0.1019
     23 C21        -0.3838   -3.9069   12.4446 C.3       1 <0>        -0.0266
     24 H1          0.6785   -4.0410   12.6486 H         1 <0>         0.0889
     25 C22        -1.1377   -5.2200   12.6645 C.3       1 <0>        -0.1741
     26 C23        -0.8097   -5.7649   14.0307 C.2       1 <0>         0.4909
     27 O3          0.0345   -5.2171   14.7189 O.co2     1 <0>        -0.6953
     28 O4         -1.3886   -6.7535   14.4478 O.co2     1 <0>        -0.7081
     29 C24        -1.6435   -3.6787   -2.3975 C.2       1 <0>         0.2839
     30 N1         -1.8353   -3.0922   -3.5648 N.2       1 <0>        -0.5242
     31 C25        -1.6681   -3.8639   -4.7729 C.3       1 <0>         0.2470
     32 C26        -1.9980   -5.3561   -4.4753 C.3       1 <0>        -0.1172
     33 S1         -1.3610   -5.4108   -2.7761 S.3       1 <0>        -0.2063
     34 C27        -1.3690   -6.2034   -5.5261 C.3       1 <0>        -0.0918
     35 C28        -2.0102   -5.7806   -6.8668 C.3       1 <0>        -0.1505
     36 C29        -1.9578   -4.2686   -7.0597 C.3       1 <0>         0.0540
     37 O5         -2.4545   -3.5427   -5.9179 O.3       1 <0>        -0.3465
     38 H2         -0.1284    3.1746    0.6579 H         1 <0>         0.0539
     39 H3         -1.6560    2.9897   -0.2368 H         1 <0>         0.0532
     40 H4         -1.6389    2.8354    1.5364 H         1 <0>         0.0556
     41 H5         -0.2602    0.9492   -0.4279 H         1 <0>         0.0604
     42 H6         -0.2431    0.7949    1.3453 H         1 <0>         0.0649
     43 H7         -2.7141    0.5877    1.3512 H         1 <0>         0.0794
     44 H8         -2.7312    0.7420   -0.4220 H         1 <0>         0.0729
     45 H9         -2.0675   -1.0753   -1.8233 H         1 <0>         0.1432
     46 H10        -1.2409   -4.8720   -0.0091 H         1 <0>         0.1348
     47 H11        -1.2584   -3.8102    2.2073 H         1 <0>         0.1395
     48 H12        -2.1872   -2.8904    3.8318 H         1 <0>         0.0705
     49 H13        -0.4413   -2.5750    3.6870 H         1 <0>         0.0703
     50 H14        -0.7037   -0.5064    5.0288 H         1 <0>         0.0867
     51 H15        -2.4495   -0.8218    5.1737 H         1 <0>         0.0869
     52 H16        -1.9669   -2.9673    6.3194 H         1 <0>         0.0645
     53 H17        -0.2211   -2.6519    6.1745 H         1 <0>         0.0642
     54 H18        -0.7520   -3.9792    7.7022 H         1 <0>         0.1234
     55 H19        -0.3615   -5.1654    9.8200 H         1 <0>         0.1224
     56 H20        -1.2440   -0.3212    9.8527 H         1 <0>         0.1240
     57 H21         0.1246   -1.0396   12.6699 H         1 <0>         0.0794
     58 H22        -1.6556   -0.8614   12.6293 H         1 <0>         0.0708
     59 H23        -0.3838   -2.6966   14.2616 H         1 <0>         0.0854
     60 H24        -2.0147   -2.9927   13.5719 H         1 <0>         0.0643
     61 H25        -2.2103   -5.0395   12.5931 H         1 <0>         0.0567
     62 H26        -0.8394   -5.9419   11.9042 H         1 <0>         0.0557
     63 H27        -0.6177   -3.8209   -5.0609 H         1 <0>         0.0882
     64 H28        -3.0781   -5.5033   -4.4743 H         1 <0>         0.1127
     65 H29        -0.2936   -6.0281   -5.5539 H         1 <0>         0.0808
     66 H30        -1.5727   -7.2560   -5.3295 H         1 <0>         0.0867
     67 H31        -1.4754   -6.2627   -7.6851 H         1 <0>         0.0906
     68 H32        -3.0505   -6.1057   -6.8823 H         1 <0>         0.0773
     69 H33        -0.9247   -3.9729   -7.2421 H         1 <0>         0.0592
     70 H34        -2.5561   -4.0044   -7.9318 H         1 <0>         0.1073
@<TRIPOS>BOND
     1    1    2 1
     2    1   38 1
     3    1   39 1
     4    1   40 1
     5    2    3 1
     6    2   41 1
     7    2   42 1
     8    3    4 1
     9    3   43 1
    10    3   44 1
    11    4    9 ar
    12    4    5 ar
    13    5    6 ar
    14    5   45 1
    15    6    7 ar
    16    6   29 1
    17    7    8 ar
    18    7   46 1
    19    8    9 ar
    20    8   47 1
    21    9   10 1
    22   10   11 1
    23   11   12 1
    24   11   48 1
    25   11   49 1
    26   12   13 1
    27   12   50 1
    28   12   51 1
    29   13   14 1
    30   13   52 1
    31   13   53 1
    32   14   15 1
    33   15   20 ar
    34   15   16 ar
    35   16   17 ar
    36   16   54 1
    37   17   18 ar
    38   17   55 1
    39   18   23 1
    40   18   19 ar
    41   19   20 ar
    42   19   21 1
    43   20   56 1
    44   21   22 1
    45   21   57 1
    46   21   58 1
    47   22   23 1
    48   22   59 1
    49   22   60 1
    50   23   24 1
    51   23   25 1
    52   25   26 1
    53   25   61 1
    54   25   62 1
    55   26   27 2
    56   26   28 1
    57   29   33 1
    58   29   30 2
    59   30   31 1
    60   31   37 1
    61   31   32 1
    62   31   63 1
    63   32   33 1
    64   32   34 1
    65   32   64 1
    66   34   35 1
    67   34   65 1
    68   34   66 1
    69   35   36 1
    70   35   67 1
    71   35   68 1
    72   36   37 1
    73   36   69 1
    74   36   70 1
@<TRIPOS>MOLECULE
CHEMBL221044__3
   70    74     0     0     0
SMALL
USER_CHARGES

@<TRIPOS>ATOM
      1 C1         -1.0794    2.6432    0.6209 C.3       1 <0>        -0.1523
      2 C2         -0.8197    1.1413    0.4877 C.3       1 <0>        -0.1175
      3 C3         -2.1546    0.3956    0.4357 C.3       1 <0>        -0.0713
      4 C4         -1.8988   -1.0838    0.3045 C.ar      1 <0>        -0.1189
      5 C5         -1.8903   -1.6729   -0.9414 C.ar      1 <0>        -0.0211
      6 C6         -1.6528   -3.0427   -1.0620 C.ar      1 <0>        -0.0844
      7 C7         -1.4247   -3.8115    0.0806 C.ar      1 <0>        -0.0373
      8 C8         -1.4346   -3.2159    1.3229 C.ar      1 <0>        -0.2105
      9 C9         -1.6661   -1.8508    1.4389 C.ar      1 <0>         0.1656
     10 O1         -1.6700   -1.2662    2.6643 O.3       1 <0>        -0.3007
     11 C10        -1.4237   -2.1137    3.7882 C.3       1 <0>         0.0603
     12 C11        -1.4672   -1.2832    5.0724 C.3       1 <0>        -0.1184
     13 C12        -1.2034   -2.1905    6.2758 C.3       1 <0>         0.0656
     14 O2         -1.2440   -1.4148    7.4752 O.3       1 <0>        -0.3151
     15 C13        -1.0280   -2.0740    8.6439 C.ar      1 <0>         0.1139
     16 C14        -0.7763   -3.4384    8.6367 C.ar      1 <0>        -0.2081
     17 C15        -0.5575   -4.1034    9.8260 C.ar      1 <0>        -0.0704
     18 C16        -0.5886   -3.4146   11.0277 C.ar      1 <0>        -0.1077
     19 C17        -0.8393   -2.0549   11.0374 C.ar      1 <0>        -0.0610
     20 C18        -1.0529   -1.3841    9.8457 C.ar      1 <0>        -0.1400
     21 C19        -0.8204   -1.5413   12.4613 C.3       1 <0>        -0.0828
     22 C20        -0.9664   -2.7976   13.3459 C.3       1 <0>        -0.1019
     23 C21        -0.3838   -3.9069   12.4446 C.3       1 <0>        -0.0268
     24 H1          0.6785   -4.0410   12.6486 H         1 <0>         0.0890
     25 C22        -1.1377   -5.2200   12.6645 C.3       1 <0>        -0.1740
     26 C23        -0.8097   -5.7649   14.0307 C.2       1 <0>         0.4908
     27 O3          0.0345   -5.2171   14.7189 O.co2     1 <0>        -0.6952
     28 O4         -1.3886   -6.7535   14.4478 O.co2     1 <0>        -0.7081
     29 C24        -1.6435   -3.6787   -2.3975 C.2       1 <0>         0.2860
     30 N1         -1.8334   -3.0973   -3.5521 N.2       1 <0>        -0.5468
     31 C25        -1.7630   -3.8610   -4.7784 C.3       1 <0>         0.2447
     32 C26        -1.9330   -5.3691   -4.5325 C.3       1 <0>        -0.0752
     33 S1         -1.3623   -5.4024   -2.7727 S.3       1 <0>        -0.2376
     34 C27        -3.3784   -5.8187   -4.5690 C.3       1 <0>        -0.1153
     35 C28        -4.2156   -5.1340   -5.6304 C.3       1 <0>        -0.1500
     36 C29        -3.9933   -3.6236   -5.6118 C.3       1 <0>         0.0517
     37 O5         -2.6000   -3.3688   -5.8025 O.3       1 <0>        -0.3379
     38 H2         -0.1284    3.1746    0.6579 H         1 <0>         0.0541
     39 H3         -1.6560    2.9897   -0.2368 H         1 <0>         0.0531
     40 H4         -1.6389    2.8354    1.5364 H         1 <0>         0.0556
     41 H5         -0.2602    0.9492   -0.4279 H         1 <0>         0.0604
     42 H6         -0.2431    0.7949    1.3453 H         1 <0>         0.0649
     43 H7         -2.7141    0.5877    1.3512 H         1 <0>         0.0791
     44 H8         -2.7312    0.7420   -0.4220 H         1 <0>         0.0723
     45 H9         -2.0675   -1.0753   -1.8233 H         1 <0>         0.1424
     46 H10        -1.2409   -4.8720   -0.0091 H         1 <0>         0.1337
     47 H11        -1.2584   -3.8102    2.2073 H         1 <0>         0.1389
     48 H12        -2.1872   -2.8904    3.8318 H         1 <0>         0.0703
     49 H13        -0.4413   -2.5750    3.6870 H         1 <0>         0.0702
     50 H14        -0.7037   -0.5064    5.0288 H         1 <0>         0.0868
     51 H15        -2.4495   -0.8218    5.1737 H         1 <0>         0.0868
     52 H16        -1.9669   -2.9673    6.3194 H         1 <0>         0.0644
     53 H17        -0.2211   -2.6519    6.1745 H         1 <0>         0.0642
     54 H18        -0.7520   -3.9792    7.7022 H         1 <0>         0.1233
     55 H19        -0.3615   -5.1654    9.8200 H         1 <0>         0.1224
     56 H20        -1.2440   -0.3212    9.8527 H         1 <0>         0.1240
     57 H21         0.1246   -1.0396   12.6699 H         1 <0>         0.0794
     58 H22        -1.6556   -0.8614   12.6293 H         1 <0>         0.0708
     59 H23        -0.3838   -2.6966   14.2616 H         1 <0>         0.0855
     60 H24        -2.0147   -2.9927   13.5719 H         1 <0>         0.0643
     61 H25        -2.2103   -5.0395   12.5931 H         1 <0>         0.0566
     62 H26        -0.8394   -5.9419   11.9042 H         1 <0>         0.0557
     63 H27        -0.7427   -3.7455   -5.1441 H         1 <0>         0.1197
     64 H28        -1.2957   -5.9667   -5.1843 H         1 <0>         0.1410
     65 H29        -3.4024   -6.8935   -4.7487 H         1 <0>         0.0809
     66 H30        -3.8267   -5.6237   -3.5948 H         1 <0>         0.0754
     67 H31        -3.9408   -5.5243   -6.6102 H         1 <0>         0.0759
     68 H32        -5.2692   -5.3431   -5.4453 H         1 <0>         0.0838
     69 H33        -4.5640   -3.1594   -6.4161 H         1 <0>         0.1043
     70 H34        -4.3117   -3.2182   -4.6514 H         1 <0>         0.0581
@<TRIPOS>BOND
     1    1    2 1
     2    1   38 1
     3    1   39 1
     4    1   40 1
     5    2    3 1
     6    2   41 1
     7    2   42 1
     8    3    4 1
     9    3   43 1
    10    3   44 1
    11    4    9 ar
    12    4    5 ar
    13    5    6 ar
    14    5   45 1
    15    6    7 ar
    16    6   29 1
    17    7    8 ar
    18    7   46 1
    19    8    9 ar
    20    8   47 1
    21    9   10 1
    22   10   11 1
    23   11   12 1
    24   11   48 1
    25   11   49 1
    26   12   13 1
    27   12   50 1
    28   12   51 1
    29   13   14 1
    30   13   52 1
    31   13   53 1
    32   14   15 1
    33   15   20 ar
    34   15   16 ar
    35   16   17 ar
    36   16   54 1
    37   17   18 ar
    38   17   55 1
    39   18   23 1
    40   18   19 ar
    41   19   20 ar
    42   19   21 1
    43   20   56 1
    44   21   22 1
    45   21   57 1
    46   21   58 1
    47   22   23 1
    48   22   59 1
    49   22   60 1
    50   23   24 1
    51   23   25 1
    52   25   26 1
    53   25   61 1
    54   25   62 1
    55   26   27 2
    56   26   28 1
    57   29   33 1
    58   29   30 2
    59   30   31 1
    60   31   37 1
    61   31   32 1
    62   31   63 1
    63   32   33 1
    64   32   34 1
    65   32   64 1
    66   34   35 1
    67   34   65 1
    68   34   66 1
    69   35   36 1
    70   35   67 1
    71   35   68 1
    72   36   37 1
    73   36   69 1
    74   36   70 1
@<TRIPOS>MOLECULE
CHEMBL118169
   64    67     0     0     0
SMALL
USER_CHARGES

@<TRIPOS>ATOM
      1 C1         -0.7800    1.6839   -0.0326 C.3       1 <0>        -0.1525
      2 C2         -0.5211    0.1766   -0.0761 C.3       1 <0>        -0.1161
      3 C3         -1.8465   -0.5730    0.0739 C.3       1 <0>        -0.0726
      4 C4         -1.5915   -2.0577    0.0311 C.ar      1 <0>        -0.0694
      5 C5         -1.7108   -2.7449   -1.1614 C.ar      1 <0>        -0.1138
      6 C6         -1.4757   -4.1110   -1.2009 C.ar      1 <0>         0.1019
      7 C7         -1.1208   -4.7875   -0.0430 C.ar      1 <0>        -0.1747
      8 C8         -1.0016   -4.1005    1.1491 C.ar      1 <0>        -0.1657
      9 C9         -1.2316   -2.7330    1.1876 C.ar      1 <0>         0.0947
     10 O1         -1.1087   -2.0556    2.3602 O.3       1 <0>        -0.3065
     11 C10        -0.7349   -2.8146    3.5118 C.3       1 <0>         0.0646
     12 C11        -0.6475   -1.8886    4.7266 C.3       1 <0>        -0.1195
     13 C12        -0.2473   -2.7012    5.9596 C.3       1 <0>         0.0635
     14 O2         -0.1656   -1.8363    7.0942 O.3       1 <0>        -0.3079
     15 C13         0.1811   -2.4042    8.2792 C.ar      1 <0>         0.1361
     16 C14         0.4431   -3.7651    8.3474 C.ar      1 <0>        -0.1914
     17 C15         0.7958   -4.3397    9.5529 C.ar      1 <0>        -0.0708
     18 C16         0.8879   -3.5600   10.6912 C.ar      1 <0>        -0.1323
     19 C17         0.6269   -2.2040   10.6260 C.ar      1 <0>        -0.0408
     20 C18         0.2793   -1.6233    9.4215 C.ar      1 <0>        -0.1186
     21 C19         0.7277   -1.3573   11.8686 C.3       1 <0>        -0.0337
     22 C20         2.0647   -1.5574   12.5683 C.2       1 <0>         0.5342
     23 O3          3.1202   -1.2783   12.0411 O.2       1 <0>        -0.4481
     24 N1          1.9955   -2.0571   13.7907 N.am      1 <0>        -0.6896
     25 C21         0.8372   -2.3754   14.3977 C.2       1 <0>         0.5629
     26 O4          0.6761   -2.8363   15.5111 O.2       1 <0>        -0.4137
     27 S1         -0.4087   -1.9618   13.1854 S.3       1 <0>        -0.1363
     28 O5         -1.5935   -4.7876   -2.3746 O.3       1 <0>        -0.3078
     29 C22        -1.4566   -6.2090   -2.3207 C.3       1 <0>         0.0802
     30 C23         0.0304   -6.6016   -2.4420 C.3       1 <0>        -0.1486
     31 C24         0.0131   -7.8974   -3.2903 C.3       1 <0>        -0.1244
     32 C25        -1.1080   -7.6160   -4.3213 C.3       1 <0>        -0.1240
     33 C26        -2.1804   -6.8540   -3.5156 C.3       1 <0>        -0.1222
     34 H1          0.1642    2.2179   -0.1394 H         1 <0>         0.0543
     35 H2         -1.4486    1.9614   -0.8475 H         1 <0>         0.0539
     36 H3         -1.2400    1.9462    0.9201 H         1 <0>         0.0550
     37 H4         -0.0611   -0.0857   -1.0288 H         1 <0>         0.0606
     38 H5          0.1475   -0.1009    0.7389 H         1 <0>         0.0641
     39 H6         -2.3065   -0.3107    1.0266 H         1 <0>         0.0786
     40 H7         -2.5150   -0.2955   -0.7410 H         1 <0>         0.0723
     41 H8         -1.9874   -2.2183   -2.0628 H         1 <0>         0.1370
     42 H9         -0.9381   -5.8515   -0.0737 H         1 <0>         0.1304
     43 H10        -0.7260   -4.6273    2.0507 H         1 <0>         0.1289
     44 H11        -1.4821   -3.5865    3.6964 H         1 <0>         0.0643
     45 H12         0.2350   -3.2814    3.3402 H         1 <0>         0.0644
     46 H13         0.0996   -1.1167    4.5420 H         1 <0>         0.0882
     47 H14        -1.6174   -1.4218    4.8982 H         1 <0>         0.0882
     48 H15        -0.9944   -3.4731    6.1442 H         1 <0>         0.0683
     49 H16         0.7226   -3.1680    5.7880 H         1 <0>         0.0681
     50 H17         0.3710   -4.3745    7.4587 H         1 <0>         0.1336
     51 H18         0.9994   -5.3990    9.6065 H         1 <0>         0.1336
     52 H19         1.1638   -4.0112   11.6329 H         1 <0>         0.1208
     53 H20         0.0799   -0.5631    9.3701 H         1 <0>         0.1407
     54 H21         0.5503   -0.3056   11.6437 H         1 <0>         0.1697
     55 H22         2.8232   -2.2022   14.2753 H         1 <0>         0.4203
     56 H23        -1.8685   -6.5883   -1.3855 H         1 <0>         0.0751
     57 H24         0.5912   -5.8187   -2.9526 H         1 <0>         0.0804
     58 H25         0.4552   -6.7960   -1.4572 H         1 <0>         0.0699
     59 H26         0.9702   -8.0442   -3.7909 H         1 <0>         0.0722
     60 H27        -0.2374   -8.7600   -2.6729 H         1 <0>         0.0699
     61 H28        -0.7311   -6.9970   -5.1354 H         1 <0>         0.0704
     62 H29        -1.5140   -8.5508   -4.7080 H         1 <0>         0.0711
     63 H30        -2.9431   -7.5470   -3.1603 H         1 <0>         0.0773
     64 H31        -2.6361   -6.0828   -4.1366 H         1 <0>         0.0818
@<TRIPOS>BOND
     1    1    2 1
     2    1   34 1
     3    1   35 1
     4    1   36 1
     5    2    3 1
     6    2   37 1
     7    2   38 1
     8    3    4 1
     9    3   39 1
    10    3   40 1
    11    4    9 ar
    12    4    5 ar
    13    5    6 ar
    14    5   41 1
    15    6    7 ar
    16    6   28 1
    17    7    8 ar
    18    7   42 1
    19    8    9 ar
    20    8   43 1
    21    9   10 1
    22   10   11 1
    23   11   12 1
    24   11   44 1
    25   11   45 1
    26   12   13 1
    27   12   46 1
    28   12   47 1
    29   13   14 1
    30   13   48 1
    31   13   49 1
    32   14   15 1
    33   15   20 ar
    34   15   16 ar
    35   16   17 ar
    36   16   50 1
    37   17   18 ar
    38   17   51 1
    39   18   19 ar
    40   18   52 1
    41   19   20 ar
    42   19   21 1
    43   20   53 1
    44   21   27 1
    45   21   22 1
    46   21   54 1
    47   22   23 2
    48   22   24 am
    49   24   25 am
    50   24   55 1
    51   25   26 2
    52   25   27 1
    53   28   29 1
    54   29   33 1
    55   29   30 1
    56   29   56 1
    57   30   31 1
    58   30   57 1
    59   30   58 1
    60   31   32 1
    61   31   59 1
    62   31   60 1
    63   32   33 1
    64   32   61 1
    65   32   62 1
    66   33   63 1
    67   33   64 1
@<TRIPOS>MOLECULE
CHEMBL118169__1
   64    67     0     0     0
SMALL
USER_CHARGES

@<TRIPOS>ATOM
      1 C1         -0.7800    1.6839   -0.0326 C.3       1 <0>        -0.1525
      2 C2         -0.5211    0.1766   -0.0761 C.3       1 <0>        -0.1160
      3 C3         -1.8465   -0.5730    0.0739 C.3       1 <0>        -0.0727
      4 C4         -1.5915   -2.0577    0.0311 C.ar      1 <0>        -0.0694
      5 C5         -1.7108   -2.7449   -1.1614 C.ar      1 <0>        -0.1138
      6 C6         -1.4757   -4.1110   -1.2009 C.ar      1 <0>         0.1019
      7 C7         -1.1208   -4.7875   -0.0430 C.ar      1 <0>        -0.1747
      8 C8         -1.0016   -4.1005    1.1491 C.ar      1 <0>        -0.1657
      9 C9         -1.2316   -2.7330    1.1876 C.ar      1 <0>         0.0947
     10 O1         -1.1087   -2.0556    2.3602 O.3       1 <0>        -0.3065
     11 C10        -0.7349   -2.8146    3.5118 C.3       1 <0>         0.0646
     12 C11        -0.6475   -1.8886    4.7266 C.3       1 <0>        -0.1195
     13 C12        -0.2473   -2.7012    5.9596 C.3       1 <0>         0.0635
     14 O2         -0.1656   -1.8363    7.0942 O.3       1 <0>        -0.3079
     15 C13         0.1811   -2.4042    8.2792 C.ar      1 <0>         0.1361
     16 C14         0.4431   -3.7651    8.3474 C.ar      1 <0>        -0.1915
     17 C15         0.7958   -4.3397    9.5529 C.ar      1 <0>        -0.0708
     18 C16         0.8879   -3.5600   10.6912 C.ar      1 <0>        -0.1323
     19 C17         0.6269   -2.2040   10.6260 C.ar      1 <0>        -0.0408
     20 C18         0.2793   -1.6233    9.4215 C.ar      1 <0>        -0.1187
     21 C19         0.7277   -1.3573   11.8686 C.3       1 <0>        -0.0336
     22 C20        -0.0861   -1.9501   13.0104 C.2       1 <0>         0.5343
     23 O3         -1.2895   -2.0834   12.9474 O.2       1 <0>        -0.4481
     24 N1          0.6102   -2.3100   14.0754 N.am      1 <0>        -0.6896
     25 C21         1.9458   -2.1730   14.1699 C.2       1 <0>         0.5629
     26 O4          2.6663   -2.4735   15.1018 O.2       1 <0>        -0.4136
     27 S1          2.4128   -1.4467   12.6055 S.3       1 <0>        -0.1365
     28 O5         -1.5935   -4.7876   -2.3746 O.3       1 <0>        -0.3078
     29 C22        -1.4566   -6.2090   -2.3207 C.3       1 <0>         0.0801
     30 C23         0.0304   -6.6016   -2.4420 C.3       1 <0>        -0.1485
     31 C24         0.0131   -7.8974   -3.2903 C.3       1 <0>        -0.1244
     32 C25        -1.1080   -7.6160   -4.3213 C.3       1 <0>        -0.1240
     33 C26        -2.1804   -6.8540   -3.5156 C.3       1 <0>        -0.1223
     34 H1          0.1642    2.2179   -0.1394 H         1 <0>         0.0544
     35 H2         -1.4486    1.9614   -0.8475 H         1 <0>         0.0538
     36 H3         -1.2400    1.9462    0.9201 H         1 <0>         0.0550
     37 H4         -0.0611   -0.0857   -1.0288 H         1 <0>         0.0606
     38 H5          0.1475   -0.1009    0.7389 H         1 <0>         0.0641
     39 H6         -2.3065   -0.3107    1.0266 H         1 <0>         0.0786
     40 H7         -2.5150   -0.2955   -0.7410 H         1 <0>         0.0723
     41 H8         -1.9874   -2.2183   -2.0628 H         1 <0>         0.1370
     42 H9         -0.9381   -5.8515   -0.0737 H         1 <0>         0.1304
     43 H10        -0.7260   -4.6273    2.0507 H         1 <0>         0.1289
     44 H11        -1.4821   -3.5865    3.6964 H         1 <0>         0.0642
     45 H12         0.2350   -3.2814    3.3402 H         1 <0>         0.0644
     46 H13         0.0996   -1.1167    4.5420 H         1 <0>         0.0882
     47 H14        -1.6174   -1.4218    4.8982 H         1 <0>         0.0881
     48 H15        -0.9944   -3.4731    6.1442 H         1 <0>         0.0681
     49 H16         0.7226   -3.1680    5.7880 H         1 <0>         0.0683
     50 H17         0.3710   -4.3745    7.4587 H         1 <0>         0.1336
     51 H18         0.9994   -5.3990    9.6065 H         1 <0>         0.1336
     52 H19         1.1638   -4.0112   11.6329 H         1 <0>         0.1208
     53 H20         0.0799   -0.5631    9.3701 H         1 <0>         0.1407
     54 H21         0.4372   -0.3263   11.6670 H         1 <0>         0.1697
     55 H22         0.1332   -2.6927   14.8284 H         1 <0>         0.4203
     56 H23        -1.8685   -6.5883   -1.3855 H         1 <0>         0.0751
     57 H24         0.5912   -5.8187   -2.9526 H         1 <0>         0.0804
     58 H25         0.4552   -6.7960   -1.4572 H         1 <0>         0.0699
     59 H26         0.9702   -8.0442   -3.7909 H         1 <0>         0.0722
     60 H27        -0.2374   -8.7600   -2.6729 H         1 <0>         0.0698
     61 H28        -0.7311   -6.9970   -5.1354 H         1 <0>         0.0704
     62 H29        -1.5140   -8.5508   -4.7080 H         1 <0>         0.0711
     63 H30        -2.9431   -7.5470   -3.1603 H         1 <0>         0.0773
     64 H31        -2.6361   -6.0828   -4.1366 H         1 <0>         0.0818
@<TRIPOS>BOND
     1    1    2 1
     2    1   34 1
     3    1   35 1
     4    1   36 1
     5    2    3 1
     6    2   37 1
     7    2   38 1
     8    3    4 1
     9    3   39 1
    10    3   40 1
    11    4    9 ar
    12    4    5 ar
    13    5    6 ar
    14    5   41 1
    15    6    7 ar
    16    6   28 1
    17    7    8 ar
    18    7   42 1
    19    8    9 ar
    20    8   43 1
    21    9   10 1
    22   10   11 1
    23   11   12 1
    24   11   44 1
    25   11   45 1
    26   12   13 1
    27   12   46 1
    28   12   47 1
    29   13   14 1
    30   13   48 1
    31   13   49 1
    32   14   15 1
    33   15   20 ar
    34   15   16 ar
    35   16   17 ar
    36   16   50 1
    37   17   18 ar
    38   17   51 1
    39   18   19 ar
    40   18   52 1
    41   19   20 ar
    42   19   21 1
    43   20   53 1
    44   21   27 1
    45   21   22 1
    46   21   54 1
    47   22   23 2
    48   22   24 am
    49   24   25 am
    50   24   55 1
    51   25   26 2
    52   25   27 1
    53   28   29 1
    54   29   33 1
    55   29   30 1
    56   29   56 1
    57   30   31 1
    58   30   57 1
    59   30   58 1
    60   31   32 1
    61   31   59 1
    62   31   60 1
    63   32   33 1
    64   32   61 1
    65   32   62 1
    66   33   63 1
    67   33   64 1
@<TRIPOS>MOLECULE
CHEMBL198786
   65    69     0     0     0
SMALL
USER_CHARGES

@<TRIPOS>ATOM
      1 C1         -0.0187    1.5258    0.0104 C.3       1 <0>        -0.1525
      2 C2          0.0021   -0.0041    0.0020 C.3       1 <0>        -0.1163
      3 C3          0.7421   -0.5109    1.2415 C.3       1 <0>        -0.0658
      4 C4          0.7625   -2.0177    1.2333 C.ar      1 <0>        -0.1372
      5 C5         -0.2611   -2.7288    1.8323 C.ar      1 <0>         0.1581
      6 C6         -0.2517   -4.1214    1.8302 C.ar      1 <0>        -0.2201
      7 C7          0.7694   -4.8062    1.2359 C.ar      1 <0>        -0.0318
      8 C8          1.8134   -4.1061    0.6245 C.ar      1 <0>        -0.1415
      9 C9          1.8076   -2.6978    0.6183 C.ar      1 <0>         0.1507
     10 N1          2.9391   -2.2836   -0.0494 N.pl3     1 <0>        -0.5878
     11 H1          3.1911   -1.3591   -0.1999 H         1 <0>         0.4133
     12 C10         3.6586   -3.3795   -0.4712 C.2       1 <0>         0.1049
     13 C11         3.0269   -4.5143   -0.0823 C.2       1 <0>        -0.1646
     14 C12         4.9315   -3.3265   -1.2220 C.ar      1 <0>        -0.0232
     15 C13         5.4992   -2.0953   -1.5529 C.ar      1 <0>        -0.1179
     16 C14         6.6872   -2.0528   -2.2531 C.ar      1 <0>        -0.1130
     17 C15         7.3156   -3.2273   -2.6271 C.ar      1 <0>        -0.1193
     18 C16         6.7578   -4.4512   -2.3026 C.ar      1 <0>        -0.1130
     19 C17         5.5732   -4.5076   -1.5977 C.ar      1 <0>        -0.0999
     20 O1         -1.2849   -2.0628    2.4288 O.3       1 <0>        -0.3063
     21 C18        -2.3114   -2.8548    3.0297 C.3       1 <0>         0.0654
     22 C19        -3.3692   -1.9369    3.6454 C.3       1 <0>        -0.1186
     23 C20        -4.4682   -2.7849    4.2888 C.3       1 <0>         0.0657
     24 O2         -5.4563   -1.9275    4.8640 O.3       1 <0>        -0.3093
     25 C21        -6.5092   -2.5260    5.4799 C.ar      1 <0>         0.1709
     26 C22        -6.5902   -3.9041    5.5367 C.ar      1 <0>        -0.2537
     27 C23        -7.6643   -4.5172    6.1656 C.ar      1 <0>        -0.0746
     28 C24        -8.6649   -3.7659    6.7417 C.ar      1 <0>        -0.1491
     29 C25        -8.6056   -2.3760    6.6975 C.ar      1 <0>         0.1493
     30 C26        -7.5165   -1.7502    6.0665 C.ar      1 <0>        -0.1358
     31 C27        -7.7451   -0.3091    6.1965 C.2       1 <0>        -0.2057
     32 C28        -8.8963   -0.1537    6.8686 C.2       1 <0>         0.0592
     33 N2         -9.4295   -1.3787    7.1692 N.pl3     1 <0>        -0.4402
     34 C29       -10.6817   -1.5957    7.8978 C.3       1 <0>         0.0322
     35 C30       -10.3841   -1.7843    9.3631 C.2       1 <0>         0.4806
     36 O3         -9.2327   -1.7414    9.7617 O.co2     1 <0>        -0.6710
     37 O4        -11.2948   -1.9798   10.1498 O.co2     1 <0>        -0.6928
     38 H2          1.0039    1.9031    0.0027 H         1 <0>         0.0501
     39 H3         -0.5459    1.8868   -0.8726 H         1 <0>         0.0537
     40 H4         -0.5289    1.8773    0.9072 H         1 <0>         0.0576
     41 H5         -1.0205   -0.3814    0.0098 H         1 <0>         0.0671
     42 H6          0.5123   -0.3556   -0.8948 H         1 <0>         0.0538
     43 H7          1.7647   -0.1336    1.2338 H         1 <0>         0.0573
     44 H8          0.2319   -0.1594    2.1383 H         1 <0>         0.0810
     45 H9         -1.0576   -4.6637    2.3022 H         1 <0>         0.1313
     46 H10         0.7705   -5.8862    1.2387 H         1 <0>         0.1272
     47 H11         3.3522   -5.5271   -0.2687 H         1 <0>         0.1482
     48 H12         5.0094   -1.1778   -1.2618 H         1 <0>         0.1169
     49 H13         7.1274   -1.1007   -2.5101 H         1 <0>         0.1252
     50 H14         8.2454   -3.1886   -3.1751 H         1 <0>         0.1242
     51 H15         7.2530   -5.3643   -2.5981 H         1 <0>         0.1277
     52 H16         5.1413   -5.4635   -1.3407 H         1 <0>         0.1300
     53 H17        -2.7748   -3.4854    2.2709 H         1 <0>         0.0667
     54 H18        -1.8773   -3.4823    3.8081 H         1 <0>         0.0671
     55 H19        -2.9058   -1.3063    4.4042 H         1 <0>         0.0858
     56 H20        -3.8033   -1.3094    2.8670 H         1 <0>         0.0851
     57 H21        -4.9316   -3.4155    3.5301 H         1 <0>         0.0626
     58 H22        -4.0342   -3.4124    5.0672 H         1 <0>         0.0635
     59 H23        -5.8139   -4.5070    5.0891 H         1 <0>         0.1192
     60 H24        -7.7166   -5.5953    6.2036 H         1 <0>         0.1204
     61 H25        -9.4959   -4.2555    7.2276 H         1 <0>         0.1156
     62 H26        -7.1078    0.4787    5.8229 H         1 <0>         0.1410
     63 H27        -9.3408    0.7964    7.1259 H         1 <0>         0.1604
     64 H28       -11.3324   -0.7310    7.7676 H         1 <0>         0.0881
     65 H29       -11.1780   -2.4855    7.5104 H         1 <0>         0.0838
@<TRIPOS>BOND
     1    1    2 1
     2    1   38 1
     3    1   39 1
     4    1   40 1
     5    2    3 1
     6    2   41 1
     7    2   42 1
     8    3    4 1
     9    3   43 1
    10    3   44 1
    11    4    9 ar
    12    4    5 ar
    13    5    6 ar
    14    5   20 1
    15    6    7 ar
    16    6   45 1
    17    7    8 ar
    18    7   46 1
    19    8   13 1
    20    8    9 ar
    21    9   10 1
    22   10   11 1
    23   10   12 1
    24   12   13 2
    25   12   14 1
    26   13   47 1
    27   14   19 ar
    28   14   15 ar
    29   15   16 ar
    30   15   48 1
    31   16   17 ar
    32   16   49 1
    33   17   18 ar
    34   17   50 1
    35   18   19 ar
    36   18   51 1
    37   19   52 1
    38   20   21 1
    39   21   22 1
    40   21   53 1
    41   21   54 1
    42   22   23 1
    43   22   55 1
    44   22   56 1
    45   23   24 1
    46   23   57 1
    47   23   58 1
    48   24   25 1
    49   25   30 ar
    50   25   26 ar
    51   26   27 ar
    52   26   59 1
    53   27   28 ar
    54   27   60 1
    55   28   29 ar
    56   28   61 1
    57   29   33 1
    58   29   30 ar
    59   30   31 1
    60   31   32 2
    61   31   62 1
    62   32   33 1
    63   32   63 1
    64   33   34 1
    65   34   35 1
    66   34   64 1
    67   34   65 1
    68   35   36 2
    69   35   37 1
@<TRIPOS>MOLECULE
CHEMBL418874
   62    66     0     0     0
SMALL
USER_CHARGES

@<TRIPOS>ATOM
      1 C1         -0.0187    1.5258    0.0104 C.3       1 <0>        -0.1529
      2 C2          0.0021   -0.0041    0.0020 C.3       1 <0>        -0.1168
      3 C3          0.7182   -0.4975   -1.2568 C.3       1 <0>        -0.0735
      4 C4          0.7386   -2.0043   -1.2651 C.ar      1 <0>        -0.1098
      5 C5          1.8328   -2.6809   -0.7691 C.ar      1 <0>        -0.0389
      6 C6          1.8507   -4.0753   -0.7767 C.ar      1 <0>        -0.0772
      7 C7          0.7608   -4.7810   -1.2865 C.ar      1 <0>        -0.0474
      8 C8         -0.3299   -4.0987   -1.7808 C.ar      1 <0>        -0.2068
      9 C9         -0.3469   -2.7099   -1.7669 C.ar      1 <0>         0.1562
     10 O1         -1.4257   -2.0405   -2.2497 O.3       1 <0>        -0.3013
     11 C10        -2.5074   -2.8285   -2.7507 C.3       1 <0>         0.0611
     12 C11        -3.6229   -1.9066   -3.2472 C.3       1 <0>        -0.1204
     13 C12        -4.7810   -2.7503   -3.7836 C.3       1 <0>         0.0634
     14 O2         -5.8228   -1.8892   -4.2473 O.3       1 <0>        -0.3079
     15 C13        -6.9327   -2.4837   -4.7589 C.ar      1 <0>         0.1356
     16 C14        -7.0196   -3.8676   -4.8082 C.ar      1 <0>        -0.1913
     17 C15        -8.1489   -4.4694   -5.3282 C.ar      1 <0>        -0.0708
     18 C16        -9.1923   -3.6938   -5.7995 C.ar      1 <0>        -0.1319
     19 C17        -9.1080   -2.3148   -5.7519 C.ar      1 <0>        -0.0406
     20 C18        -7.9829   -1.7080   -5.2274 C.ar      1 <0>        -0.1184
     21 C19       -10.2467   -1.4726   -6.2668 C.3       1 <0>        -0.0340
     22 C20       -11.5721   -1.8957   -5.6489 C.2       1 <0>         0.5343
     23 O3        -11.7837   -1.8243   -4.4573 O.2       1 <0>        -0.4482
     24 N1        -12.4765   -2.3470   -6.5016 N.am      1 <0>        -0.6896
     25 C21       -12.2661   -2.4366   -7.8280 C.2       1 <0>         0.5628
     26 O4        -13.0324   -2.8355   -8.6834 O.2       1 <0>        -0.4134
     27 S1        -10.5980   -1.8316   -8.0383 S.3       1 <0>        -0.1360
     28 C22         3.0253   -4.8057   -0.2449 C.2       1 <0>         0.1809
     29 C23         3.0037   -6.0908    0.4733 C.ar      1 <0>        -0.1886
     30 C24         1.9849   -6.9630    0.8565 C.ar      1 <0>        -0.0412
     31 C25         2.2913   -8.1109    1.5323 C.ar      1 <0>        -0.1477
     32 C26         3.6094   -8.4155    1.8405 C.ar      1 <0>        -0.0589
     33 C27         4.6299   -7.5665    1.4704 C.ar      1 <0>        -0.1247
     34 C28         4.3382   -6.3943    0.7825 C.ar      1 <0>         0.0858
     35 O5          5.0998   -5.3915    0.2997 O.3       1 <0>        -0.0880
     36 N2          4.2745   -4.4326   -0.3304 N.2       1 <0>        -0.2812
     37 H1          1.0039    1.9031    0.0027 H         1 <0>         0.0543
     38 H2         -0.5459    1.8868   -0.8726 H         1 <0>         0.0555
     39 H3         -0.5289    1.8773    0.9072 H         1 <0>         0.0549
     40 H4          0.5293   -0.3651    0.8851 H         1 <0>         0.0604
     41 H5         -1.0205   -0.3814    0.0098 H         1 <0>         0.0642
     42 H6          0.1910   -0.1364   -2.1398 H         1 <0>         0.0797
     43 H7          1.7408   -0.1202   -1.2645 H         1 <0>         0.0736
     44 H8          2.6752   -2.1316   -0.3755 H         1 <0>         0.1375
     45 H9          0.7718   -5.8610   -1.2941 H         1 <0>         0.1329
     46 H10        -1.1739   -4.6446   -2.1759 H         1 <0>         0.1372
     47 H11        -2.1542   -3.4481   -3.5750 H         1 <0>         0.0692
     48 H12        -2.8909   -3.4670   -1.9548 H         1 <0>         0.0693
     49 H13        -3.9761   -1.2871   -2.4228 H         1 <0>         0.0893
     50 H14        -3.2393   -1.2681   -4.0431 H         1 <0>         0.0892
     51 H15        -4.4278   -3.3698   -4.6080 H         1 <0>         0.0689
     52 H16        -5.1645   -3.3887   -2.9877 H         1 <0>         0.0687
     53 H17        -6.2048   -4.4737   -4.4407 H         1 <0>         0.1337
     54 H18        -8.2169   -5.5465   -5.3672 H         1 <0>         0.1338
     55 H19       -10.0745   -4.1663   -6.2057 H         1 <0>         0.1209
     56 H20        -7.9193   -0.6307   -5.1863 H         1 <0>         0.1407
     57 H21       -10.0548   -0.4115   -6.1076 H         1 <0>         0.1697
     58 H22       -13.3366   -2.6286   -6.1527 H         1 <0>         0.4203
     59 H23         0.9567   -6.7318    0.6201 H         1 <0>         0.1334
     60 H24         1.5017   -8.7854    1.8290 H         1 <0>         0.1366
     61 H25         3.8376   -9.3256    2.3752 H         1 <0>         0.1422
     62 H26         5.6532   -7.8111    1.7142 H         1 <0>         0.1412
@<TRIPOS>BOND
     1    1    2 1
     2    1   37 1
     3    1   38 1
     4    1   39 1
     5    2    3 1
     6    2   40 1
     7    2   41 1
     8    3    4 1
     9    3   42 1
    10    3   43 1
    11    4    9 ar
    12    4    5 ar
    13    5    6 ar
    14    5   44 1
    15    6    7 ar
    16    6   28 1
    17    7    8 ar
    18    7   45 1
    19    8    9 ar
    20    8   46 1
    21    9   10 1
    22   10   11 1
    23   11   12 1
    24   11   47 1
    25   11   48 1
    26   12   13 1
    27   12   49 1
    28   12   50 1
    29   13   14 1
    30   13   51 1
    31   13   52 1
    32   14   15 1
    33   15   20 ar
    34   15   16 ar
    35   16   17 ar
    36   16   53 1
    37   17   18 ar
    38   17   54 1
    39   18   19 ar
    40   18   55 1
    41   19   20 ar
    42   19   21 1
    43   20   56 1
    44   21   27 1
    45   21   22 1
    46   21   57 1
    47   22   23 2
    48   22   24 am
    49   24   25 am
    50   24   58 1
    51   25   26 2
    52   25   27 1
    53   28   36 2
    54   28   29 1
    55   29   34 ar
    56   29   30 ar
    57   30   31 ar
    58   30   59 1
    59   31   32 ar
    60   31   60 1
    61   32   33 ar
    62   32   61 1
    63   33   34 ar
    64   33   62 1
    65   34   35 1
    66   35   36 1
@<TRIPOS>MOLECULE
CHEMBL418874__1
   62    66     0     0     0
SMALL
USER_CHARGES

@<TRIPOS>ATOM
      1 C1         -0.0187    1.5258    0.0104 C.3       1 <0>        -0.1529
      2 C2          0.0021   -0.0041    0.0020 C.3       1 <0>        -0.1168
      3 C3          0.7182   -0.4975   -1.2568 C.3       1 <0>        -0.0735
      4 C4          0.7386   -2.0043   -1.2651 C.ar      1 <0>        -0.1098
      5 C5          1.8328   -2.6809   -0.7691 C.ar      1 <0>        -0.0389
      6 C6          1.8507   -4.0753   -0.7767 C.ar      1 <0>        -0.0772
      7 C7          0.7608   -4.7810   -1.2865 C.ar      1 <0>        -0.0474
      8 C8         -0.3299   -4.0987   -1.7808 C.ar      1 <0>        -0.2068
      9 C9         -0.3469   -2.7099   -1.7669 C.ar      1 <0>         0.1562
     10 O1         -1.4257   -2.0405   -2.2497 O.3       1 <0>        -0.3013
     11 C10        -2.5074   -2.8285   -2.7507 C.3       1 <0>         0.0611
     12 C11        -3.6229   -1.9066   -3.2472 C.3       1 <0>        -0.1204
     13 C12        -4.7810   -2.7503   -3.7836 C.3       1 <0>         0.0634
     14 O2         -5.8228   -1.8892   -4.2473 O.3       1 <0>        -0.3079
     15 C13        -6.9327   -2.4837   -4.7589 C.ar      1 <0>         0.1357
     16 C14        -7.0196   -3.8676   -4.8082 C.ar      1 <0>        -0.1913
     17 C15        -8.1489   -4.4694   -5.3282 C.ar      1 <0>        -0.0708
     18 C16        -9.1923   -3.6938   -5.7995 C.ar      1 <0>        -0.1319
     19 C17        -9.1080   -2.3148   -5.7519 C.ar      1 <0>        -0.0405
     20 C18        -7.9829   -1.7080   -5.2274 C.ar      1 <0>        -0.1185
     21 C19       -10.2467   -1.4726   -6.2668 C.3       1 <0>        -0.0339
     22 C20       -10.6449   -1.8824   -7.6777 C.2       1 <0>         0.5343
     23 O3         -9.8829   -1.7970   -8.6168 O.2       1 <0>        -0.4481
     24 N1        -11.8793   -2.3384   -7.8084 N.am      1 <0>        -0.6896
     25 C21       -12.7440   -2.4434   -6.7823 C.2       1 <0>         0.5629
     26 O4        -13.8901   -2.8484   -6.8060 O.2       1 <0>        -0.4134
     27 S1        -11.8142   -1.8491   -5.3769 S.3       1 <0>        -0.1364
     28 C22         3.0253   -4.8057   -0.2449 C.2       1 <0>         0.1809
     29 C23         3.0037   -6.0908    0.4733 C.ar      1 <0>        -0.1886
     30 C24         1.9849   -6.9630    0.8565 C.ar      1 <0>        -0.0412
     31 C25         2.2913   -8.1109    1.5323 C.ar      1 <0>        -0.1477
     32 C26         3.6094   -8.4155    1.8405 C.ar      1 <0>        -0.0589
     33 C27         4.6299   -7.5665    1.4704 C.ar      1 <0>        -0.1248
     34 C28         4.3382   -6.3943    0.7825 C.ar      1 <0>         0.0858
     35 O5          5.0998   -5.3915    0.2997 O.3       1 <0>        -0.0881
     36 N2          4.2745   -4.4326   -0.3304 N.2       1 <0>        -0.2812
     37 H1          1.0039    1.9031    0.0027 H         1 <0>         0.0543
     38 H2         -0.5459    1.8868   -0.8726 H         1 <0>         0.0555
     39 H3         -0.5289    1.8773    0.9072 H         1 <0>         0.0549
     40 H4          0.5293   -0.3651    0.8851 H         1 <0>         0.0604
     41 H5         -1.0205   -0.3814    0.0098 H         1 <0>         0.0642
     42 H6          0.1910   -0.1364   -2.1398 H         1 <0>         0.0797
     43 H7          1.7408   -0.1202   -1.2645 H         1 <0>         0.0736
     44 H8          2.6752   -2.1316   -0.3755 H         1 <0>         0.1375
     45 H9          0.7718   -5.8610   -1.2941 H         1 <0>         0.1329
     46 H10        -1.1739   -4.6446   -2.1759 H         1 <0>         0.1372
     47 H11        -2.1542   -3.4481   -3.5750 H         1 <0>         0.0691
     48 H12        -2.8909   -3.4670   -1.9548 H         1 <0>         0.0694
     49 H13        -3.9761   -1.2871   -2.4228 H         1 <0>         0.0893
     50 H14        -3.2393   -1.2681   -4.0431 H         1 <0>         0.0892
     51 H15        -4.4278   -3.3698   -4.6080 H         1 <0>         0.0687
     52 H16        -5.1645   -3.3887   -2.9877 H         1 <0>         0.0689
     53 H17        -6.2048   -4.4737   -4.4407 H         1 <0>         0.1337
     54 H18        -8.2169   -5.5465   -5.3672 H         1 <0>         0.1338
     55 H19       -10.0745   -4.1663   -6.2057 H         1 <0>         0.1210
     56 H20        -7.9193   -0.6307   -5.1863 H         1 <0>         0.1407
     57 H21       -10.0060   -0.4108   -6.2143 H         1 <0>         0.1697
     58 H22       -12.1773   -2.6114   -8.6902 H         1 <0>         0.4204
     59 H23         0.9567   -6.7318    0.6201 H         1 <0>         0.1334
     60 H24         1.5017   -8.7854    1.8290 H         1 <0>         0.1366
     61 H25         3.8376   -9.3256    2.3752 H         1 <0>         0.1422
     62 H26         5.6532   -7.8111    1.7142 H         1 <0>         0.1412
@<TRIPOS>BOND
     1    1    2 1
     2    1   37 1
     3    1   38 1
     4    1   39 1
     5    2    3 1
     6    2   40 1
     7    2   41 1
     8    3    4 1
     9    3   42 1
    10    3   43 1
    11    4    9 ar
    12    4    5 ar
    13    5    6 ar
    14    5   44 1
    15    6    7 ar
    16    6   28 1
    17    7    8 ar
    18    7   45 1
    19    8    9 ar
    20    8   46 1
    21    9   10 1
    22   10   11 1
    23   11   12 1
    24   11   47 1
    25   11   48 1
    26   12   13 1
    27   12   49 1
    28   12   50 1
    29   13   14 1
    30   13   51 1
    31   13   52 1
    32   14   15 1
    33   15   20 ar
    34   15   16 ar
    35   16   17 ar
    36   16   53 1
    37   17   18 ar
    38   17   54 1
    39   18   19 ar
    40   18   55 1
    41   19   20 ar
    42   19   21 1
    43   20   56 1
    44   21   27 1
    45   21   22 1
    46   21   57 1
    47   22   23 2
    48   22   24 am
    49   24   25 am
    50   24   58 1
    51   25   26 2
    52   25   27 1
    53   28   36 2
    54   28   29 1
    55   29   34 ar
    56   29   30 ar
    57   30   31 ar
    58   30   59 1
    59   31   32 ar
    60   31   60 1
    61   32   33 ar
    62   32   61 1
    63   33   34 ar
    64   33   62 1
    65   34   35 1
    66   35   36 1
@<TRIPOS>MOLECULE
CHEMBL1092235
   64    67     0     0     0
SMALL
USER_CHARGES

@<TRIPOS>ATOM
      1 C1         -0.0184    1.5028    0.0103 C.3       1 <0>        -0.0767
      2 C2          0.0021   -0.0041    0.0020 C.2       1 <0>        -0.0012
      3 C3         -1.0704   -0.8163    0.0025 C.2       1 <0>        -0.0175
      4 N1         -0.6270   -2.0826   -0.0069 N.2       1 <0>        -0.4452
      5 C4          0.6852   -2.0676   -0.0131 C.2       1 <0>         0.2239
      6 O1          1.0982   -0.7883   -0.0131 O.3       1 <0>        -0.1907
      7 C5          1.5619   -3.2576   -0.0233 C.ar      1 <0>        -0.0082
      8 C6          1.0056   -4.5377   -0.0330 C.ar      1 <0>        -0.0580
      9 C7          1.8288   -5.6444   -0.0424 C.ar      1 <0>        -0.1097
     10 C8          3.2046   -5.4873   -0.0419 C.ar      1 <0>        -0.0196
     11 C9          3.7624   -4.2198   -0.0324 C.ar      1 <0>        -0.1103
     12 C10         2.9494   -3.1056   -0.0291 C.ar      1 <0>        -0.0775
     13 Cl1         4.2343   -6.8849   -0.0527 Cl        1 <0>        -0.0624
     14 C11        -2.5132   -0.3812    0.0123 C.3       1 <0>         0.1475
     15 O2         -2.9759   -0.2356   -1.3319 O.3       1 <0>        -0.3085
     16 C12        -4.2667    0.1544   -1.5011 C.ar      1 <0>         0.1227
     17 C13        -5.0698    0.3977   -0.3961 C.ar      1 <0>        -0.2088
     18 C14        -6.3812    0.7945   -0.5708 C.ar      1 <0>        -0.0865
     19 C15        -6.8940    0.9493   -1.8457 C.ar      1 <0>        -0.1281
     20 C16        -6.0960    0.7072   -2.9484 C.ar      1 <0>        -0.0611
     21 C17        -4.7819    0.3156   -2.7789 C.ar      1 <0>        -0.1308
     22 C18        -6.6582    0.8764   -4.3363 C.3       1 <0>         0.1774
     23 N2         -6.4403    2.2533   -4.7869 N.am      1 <0>        -0.5550
     24 C19        -5.2130    2.6030   -5.5064 C.3       1 <0>         0.0436
     25 C20        -5.4291    2.4200   -6.9866 C.2       1 <0>         0.4823
     26 O3         -6.5082    2.0334   -7.4019 O.co2     1 <0>        -0.6828
     27 O4         -4.5248    2.6587   -7.7687 O.co2     1 <0>        -0.6995
     28 C21        -7.3688    3.1983   -4.5394 C.2       1 <0>         0.6608
     29 O5         -8.3868    2.9082   -3.9426 O.2       1 <0>        -0.5920
     30 O6         -7.1686    4.4636   -4.9535 O.3       1 <0>        -0.3510
     31 C22        -8.1944    5.4133   -4.6570 C.3       1 <0>         0.1087
     32 C23        -9.2071    5.4448   -5.8034 C.3       1 <0>        -0.1384
     33 C24       -10.3054    6.4616   -5.4859 C.3       1 <0>        -0.1131
     34 C25        -9.6827    7.8489   -5.3173 C.3       1 <0>        -0.1229
     35 C26        -8.6700    7.8174   -4.1708 C.3       1 <0>        -0.1125
     36 C27        -7.5717    6.8006   -4.4883 C.3       1 <0>        -0.1172
     37 H1          1.0042    1.8801    0.0026 H         1 <0>         0.0837
     38 H2         -0.5455    1.8639   -0.8728 H         1 <0>         0.0997
     39 H3         -0.5286    1.8543    0.9071 H         1 <0>         0.0937
     40 H4         -0.0673   -4.6614   -0.0326 H         1 <0>         0.1495
     41 H5          1.3994   -6.6354   -0.0499 H         1 <0>         0.1443
     42 H6          4.8362   -4.1036   -0.0317 H         1 <0>         0.1425
     43 H7          3.3856   -2.1176   -0.0266 H         1 <0>         0.1413
     44 H8         -3.1154   -1.1315    0.5246 H         1 <0>         0.0811
     45 H9         -2.6015    0.5726    0.5323 H         1 <0>         0.0802
     46 H10        -4.6699    0.2765    0.5998 H         1 <0>         0.1233
     47 H11        -7.0068    0.9836    0.2890 H         1 <0>         0.1227
     48 H12        -7.9196    1.2597   -1.9803 H         1 <0>         0.1321
     49 H13        -4.1576    0.1309   -3.6406 H         1 <0>         0.1315
     50 H14        -6.1581    0.1878   -5.0173 H         1 <0>         0.0925
     51 H15        -7.7270    0.6631   -4.3239 H         1 <0>         0.0950
     52 H16        -4.9559    3.6424   -5.3025 H         1 <0>         0.0803
     53 H17        -4.4007    1.9560   -5.1751 H         1 <0>         0.0750
     54 H18        -8.6989    5.1269   -3.7342 H         1 <0>         0.0800
     55 H19        -8.7025    5.7312   -6.7262 H         1 <0>         0.0719
     56 H20        -9.6507    4.4564   -5.9236 H         1 <0>         0.0712
     57 H21       -11.0268    6.4840   -6.3027 H         1 <0>         0.0651
     58 H22       -10.8099    6.1752   -4.5632 H         1 <0>         0.0624
     59 H23        -9.1781    8.1353   -6.2400 H         1 <0>         0.0646
     60 H24       -10.4651    8.5733   -5.0911 H         1 <0>         0.0616
     61 H25        -8.2264    8.8058   -4.0507 H         1 <0>         0.0675
     62 H26        -9.1746    7.5310   -3.2481 H         1 <0>         0.0630
     63 H27        -6.8502    6.7782   -3.6715 H         1 <0>         0.0681
     64 H28        -7.0671    7.0870   -5.4110 H         1 <0>         0.0745
@<TRIPOS>BOND
     1    1    2 1
     2    1   37 1
     3    1   38 1
     4    1   39 1
     5    2    6 1
     6    2    3 2
     7    3    4 1
     8    3   14 1
     9    4    5 2
    10    5    6 1
    11    5    7 1
    12    7   12 ar
    13    7    8 ar
    14    8    9 ar
    15    8   40 1
    16    9   10 ar
    17    9   41 1
    18   10   11 ar
    19   10   13 1
    20   11   12 ar
    21   11   42 1
    22   12   43 1
    23   14   15 1
    24   14   44 1
    25   14   45 1
    26   15   16 1
    27   16   21 ar
    28   16   17 ar
    29   17   18 ar
    30   17   46 1
    31   18   19 ar
    32   18   47 1
    33   19   20 ar
    34   19   48 1
    35   20   21 ar
    36   20   22 1
    37   21   49 1
    38   22   23 1
    39   22   50 1
    40   22   51 1
    41   23   24 1
    42   23   28 am
    43   24   25 1
    44   24   52 1
    45   24   53 1
    46   25   26 2
    47   25   27 1
    48   28   29 2
    49   28   30 1
    50   30   31 1
    51   31   36 1
    52   31   32 1
    53   31   54 1
    54   32   33 1
    55   32   55 1
    56   32   56 1
    57   33   34 1
    58   33   57 1
    59   33   58 1
    60   34   35 1
    61   34   59 1
    62   34   60 1
    63   35   36 1
    64   35   61 1
    65   35   62 1
    66   36   63 1
    67   36   64 1
@<TRIPOS>MOLECULE
CHEMBL421729
   65    68     0     0     0
SMALL
USER_CHARGES

@<TRIPOS>ATOM
      1 C1         -0.0187    1.5258    0.0104 C.3       1 <0>        -0.1424
      2 C2          0.0021   -0.0041    0.0020 C.3       1 <0>         0.0667
      3 O1          0.6709   -0.4649   -1.1737 O.3       1 <0>        -0.3672
      4 C3          0.7457   -1.8880   -1.2798 C.3       1 <0>         0.0331
      5 H1         -0.1179   -2.3349   -0.7873 H         1 <0>         0.0485
      6 C4          0.7554   -2.2896   -2.7561 C.3       1 <0>        -0.0604
      7 C5         -0.5593   -1.9112   -3.3882 C.ar      1 <0>        -0.0962
      8 C6         -1.6109   -2.8089   -3.3838 C.ar      1 <0>        -0.0825
      9 C7         -2.8169   -2.4646   -3.9630 C.ar      1 <0>        -0.1516
     10 C8         -2.9725   -1.2168   -4.5490 C.ar      1 <0>         0.1122
     11 C9         -1.9159   -0.3178   -4.5517 C.ar      1 <0>        -0.2067
     12 C10        -0.7136   -0.6649   -3.9666 C.ar      1 <0>        -0.0616
     13 O2         -4.1577   -0.8760   -5.1198 O.3       1 <0>        -0.3148
     14 C11        -4.2460    0.4250   -5.7042 C.3       1 <0>         0.0871
     15 C12        -5.6230    0.6232   -6.2834 C.2       1 <0>        -0.1175
     16 C13        -6.2811    1.7693   -6.0685 C.2       1 <0>        -0.0426
     17 C14        -7.6363    1.9643   -6.6384 C.ar      1 <0>        -0.0431
     18 C15        -7.8530    2.9407   -7.6093 C.ar      1 <0>        -0.1010
     19 C16        -9.1161    3.1174   -8.1365 C.ar      1 <0>        -0.1204
     20 C17       -10.1660    2.3278   -7.7031 C.ar      1 <0>        -0.1187
     21 C18        -9.9568    1.3573   -6.7399 C.ar      1 <0>        -0.1195
     22 C19        -8.6968    1.1681   -6.2095 C.ar      1 <0>        -0.1038
     23 C20        -5.6552    2.8430   -5.2610 C.ar      1 <0>        -0.0469
     24 C21        -6.2141    3.2113   -4.0370 C.ar      1 <0>        -0.0956
     25 C22        -5.6320    4.2087   -3.2866 C.ar      1 <0>        -0.1071
     26 C23        -4.4842    4.8509   -3.7505 C.ar      1 <0>        -0.0401
     27 C24        -3.9253    4.4829   -4.9741 C.ar      1 <0>        -0.1073
     28 C25        -4.5038    3.4815   -5.7222 C.ar      1 <0>        -0.1064
     29 C26        -3.8582    5.9256   -2.9427 C.ar      1 <0>        -0.0465
     30 C27        -4.4115    6.2919   -1.7169 C.ar      1 <0>        -0.1101
     31 C28        -3.8244    7.2924   -0.9693 C.ar      1 <0>        -0.1177
     32 C29        -2.6890    7.9313   -1.4343 C.ar      1 <0>        -0.1183
     33 C30        -2.1355    7.5719   -2.6501 C.ar      1 <0>        -0.1169
     34 C31        -2.7110    6.5692   -3.4037 C.ar      1 <0>        -0.1091
     35 C32         2.0091   -2.3753   -0.6184 C.2       1 <0>         0.4775
     36 O3          2.7745   -1.5779   -0.1038 O.co2     1 <0>        -0.6807
     37 O4          2.2658   -3.5670   -0.5978 O.co2     1 <0>        -0.6999
     38 H2          1.0039    1.9031    0.0027 H         1 <0>         0.0620
     39 H3         -0.5459    1.8868   -0.8726 H         1 <0>         0.0530
     40 H4         -0.5289    1.8773    0.9072 H         1 <0>         0.0593
     41 H5          0.5293   -0.3651    0.8851 H         1 <0>         0.0468
     42 H6         -1.0205   -0.3814    0.0098 H         1 <0>         0.0288
     43 H7          1.5669   -1.7723   -3.2680 H         1 <0>         0.0724
     44 H8          0.9017   -3.3665   -2.8387 H         1 <0>         0.0882
     45 H9         -1.4892   -3.7802   -2.9274 H         1 <0>         0.1285
     46 H10        -3.6378   -3.1664   -3.9599 H         1 <0>         0.1249
     47 H11        -2.0346    0.6542   -5.0074 H         1 <0>         0.1204
     48 H12         0.1078    0.0363   -3.9646 H         1 <0>         0.1256
     49 H13        -4.0611    1.1800   -4.9400 H         1 <0>         0.0741
     50 H14        -3.5021    0.5192   -6.4954 H         1 <0>         0.0721
     51 H15        -6.0791   -0.1592   -6.8718 H         1 <0>         0.1294
     52 H16        -7.0341    3.5580   -7.9481 H         1 <0>         0.1223
     53 H17        -9.2853    3.8739   -8.8885 H         1 <0>         0.1227
     54 H18       -11.1529    2.4698   -8.1182 H         1 <0>         0.1212
     55 H19       -10.7802    0.7439   -6.4051 H         1 <0>         0.1237
     56 H20        -8.5337    0.4070   -5.4608 H         1 <0>         0.1252
     57 H21        -7.1034    2.7145   -3.6781 H         1 <0>         0.1250
     58 H22        -6.0647    4.4939   -2.3390 H         1 <0>         0.1272
     59 H23        -3.0367    4.9806   -5.3333 H         1 <0>         0.1283
     60 H24        -4.0683    3.1935   -6.6676 H         1 <0>         0.1257
     61 H25        -5.2981    5.7940   -1.3531 H         1 <0>         0.1247
     62 H26        -4.2524    7.5773   -0.0196 H         1 <0>         0.1238
     63 H27        -2.2331    8.7139   -0.8460 H         1 <0>         0.1224
     64 H28        -1.2490    8.0741   -3.0082 H         1 <0>         0.1244
     65 H29        -2.2755    6.2864   -4.3507 H         1 <0>         0.1254
@<TRIPOS>BOND
     1    1    2 1
     2    1   38 1
     3    1   39 1
     4    1   40 1
     5    2    3 1
     6    2   41 1
     7    2   42 1
     8    3    4 1
     9    4    5 1
    10    4    6 1
    11    4   35 1
    12    6    7 1
    13    6   43 1
    14    6   44 1
    15    7   12 ar
    16    7    8 ar
    17    8    9 ar
    18    8   45 1
    19    9   10 ar
    20    9   46 1
    21   10   11 ar
    22   10   13 1
    23   11   12 ar
    24   11   47 1
    25   12   48 1
    26   13   14 1
    27   14   15 1
    28   14   49 1
    29   14   50 1
    30   15   16 2
    31   15   51 1
    32   16   17 1
    33   16   23 1
    34   17   22 ar
    35   17   18 ar
    36   18   19 ar
    37   18   52 1
    38   19   20 ar
    39   19   53 1
    40   20   21 ar
    41   20   54 1
    42   21   22 ar
    43   21   55 1
    44   22   56 1
    45   23   28 ar
    46   23   24 ar
    47   24   25 ar
    48   24   57 1
    49   25   26 ar
    50   25   58 1
    51   26   27 ar
    52   26   29 1
    53   27   28 ar
    54   27   59 1
    55   28   60 1
    56   29   34 ar
    57   29   30 ar
    58   30   31 ar
    59   30   61 1
    60   31   32 ar
    61   31   62 1
    62   32   33 ar
    63   32   63 1
    64   33   34 ar
    65   33   64 1
    66   34   65 1
    67   35   36 2
    68   35   37 1
@<TRIPOS>MOLECULE
CHEMBL234659
   56    58     0     0     0
SMALL
USER_CHARGES

@<TRIPOS>ATOM
      1 C1         -0.0184    1.5028    0.0103 C.3       1 <0>        -0.1000
      2 C2          0.0021   -0.0041    0.0020 C.ar      1 <0>        -0.1413
      3 C3          0.0057   -0.6876   -1.1997 C.ar      1 <0>        -0.0588
      4 C4          0.0240   -2.0744   -1.2093 C.ar      1 <0>        -0.1703
      5 C5          0.0393   -2.7778   -0.0062 C.ar      1 <0>         0.1821
      6 C6          0.0360   -2.0900    1.1952 C.ar      1 <0>        -0.2860
      7 C7          0.0229   -0.7026    1.1996 C.ar      1 <0>         0.1773
      8 O1          0.0249   -0.0270    2.3799 O.3       1 <0>        -0.2712
      9 C8          0.0469   -0.8097    3.5753 C.3       1 <0>        -0.0088
     10 C9          0.0458    0.1038    4.7739 C.2       1 <0>         0.5020
     11 O2          0.0279    1.3129    4.6188 O.co2     1 <0>        -0.6689
     12 O3          0.0629   -0.3664    5.8987 O.co2     1 <0>        -0.6865
     13 O4          0.0568   -4.1377   -0.0124 O.3       1 <0>        -0.3079
     14 C10         0.0718   -4.7921    1.2579 C.3       1 <0>         0.0255
     15 S1          0.0275   -2.9460   -2.7407 S.3       1 <0>        -0.0938
     16 C11         0.0035   -1.6335   -3.9926 C.3       1 <0>        -0.0707
     17 C12         0.0044   -2.2507   -5.3675 C.ar      1 <0>        -0.1038
     18 C13         1.2028   -2.5226   -6.0011 C.ar      1 <0>        -0.0594
     19 C14         1.2064   -3.0879   -7.2616 C.ar      1 <0>        -0.1484
     20 C15         0.0061   -3.3831   -7.8915 C.ar      1 <0>         0.1307
     21 C16        -1.1951   -3.1097   -7.2534 C.ar      1 <0>        -0.2080
     22 C17        -1.1932   -2.5492   -5.9908 C.ar      1 <0>        -0.0588
     23 O5          0.0069   -3.9389   -9.1316 O.3       1 <0>        -0.3079
     24 C18        -1.2659   -4.2160   -9.7192 C.3       1 <0>         0.0961
     25 C19        -1.0676   -4.8250  -11.0833 C.ar      1 <0>        -0.0623
     26 C20        -0.9828   -4.0116  -12.1978 C.ar      1 <0>        -0.0952
     27 C21        -0.8008   -4.5703  -13.4490 C.ar      1 <0>        -0.0728
     28 C22        -0.7032   -5.9424  -13.5858 C.ar      1 <0>        -0.1746
     29 C23        -0.7871   -6.7558  -12.4712 C.ar      1 <0>        -0.0725
     30 C24        -0.9648   -6.1968  -11.2194 C.ar      1 <0>        -0.0949
     31 C25        -0.5059   -6.5516  -14.9499 C.3       1 <0>         0.5080
     32 F1          0.8628   -6.6625  -15.2176 F         1 <0>        -0.1749
     33 F2         -1.0919   -7.8215  -14.9828 F         1 <0>        -0.1761
     34 F3         -1.1054   -5.7363  -15.9159 F         1 <0>        -0.1763
     35 H1          1.0042    1.8801    0.0026 H         1 <0>         0.0653
     36 H2         -0.5455    1.8639   -0.8728 H         1 <0>         0.0575
     37 H3         -0.5286    1.8543    0.9071 H         1 <0>         0.0782
     38 H4         -0.0061   -0.1415   -2.1314 H         1 <0>         0.1307
     39 H5          0.0478   -2.6330    2.1287 H         1 <0>         0.1394
     40 H6         -0.8342   -1.4507    3.6062 H         1 <0>         0.0590
     41 H7          0.9455   -1.4264    3.5893 H         1 <0>         0.0591
     42 H8          0.0850   -5.8720    1.1101 H         1 <0>         0.1001
     43 H9          0.9607   -4.4903    1.8117 H         1 <0>         0.0569
     44 H10        -0.8190   -4.5133    1.8208 H         1 <0>         0.0567
     45 H11        -0.8940   -1.0278   -3.8669 H         1 <0>         0.0933
     46 H12         0.8858   -1.0042   -3.8763 H         1 <0>         0.0941
     47 H13         2.1370   -2.2926   -5.5103 H         1 <0>         0.1338
     48 H14         2.1427   -3.2995   -7.7564 H         1 <0>         0.1327
     49 H15        -2.1308   -3.3386   -7.7417 H         1 <0>         0.1291
     50 H16        -2.1279   -2.3402   -5.4918 H         1 <0>         0.1293
     51 H17        -1.8143   -4.9135   -9.0861 H         1 <0>         0.0779
     52 H18        -1.8319   -3.2892   -9.8139 H         1 <0>         0.0774
     53 H19        -1.0590   -2.9396  -12.0910 H         1 <0>         0.1387
     54 H20        -0.7353   -3.9349  -14.3198 H         1 <0>         0.1398
     55 H21        -0.7112   -7.8278  -12.5780 H         1 <0>         0.1400
     56 H22        -1.0266   -6.8321  -10.3482 H         1 <0>         0.1392
@<TRIPOS>BOND
     1    1    2 1
     2    1   35 1
     3    1   36 1
     4    1   37 1
     5    2    7 ar
     6    2    3 ar
     7    3    4 ar
     8    3   38 1
     9    4    5 ar
    10    4   15 1
    11    5    6 ar
    12    5   13 1
    13    6    7 ar
    14    6   39 1
    15    7    8 1
    16    8    9 1
    17    9   10 1
    18    9   40 1
    19    9   41 1
    20   10   11 2
    21   10   12 1
    22   13   14 1
    23   14   42 1
    24   14   43 1
    25   14   44 1
    26   15   16 1
    27   16   17 1
    28   16   45 1
    29   16   46 1
    30   17   22 ar
    31   17   18 ar
    32   18   19 ar
    33   18   47 1
    34   19   20 ar
    35   19   48 1
    36   20   21 ar
    37   20   23 1
    38   21   22 ar
    39   21   49 1
    40   22   50 1
    41   23   24 1
    42   24   25 1
    43   24   51 1
    44   24   52 1
    45   25   30 ar
    46   25   26 ar
    47   26   27 ar
    48   26   53 1
    49   27   28 ar
    50   27   54 1
    51   28   29 ar
    52   28   31 1
    53   29   30 ar
    54   29   55 1
    55   30   56 1
    56   31   32 1
    57   31   33 1
    58   31   34 1
@<TRIPOS>MOLECULE
CHEMBL391479
   60    63     0     0     0
SMALL
USER_CHARGES

@<TRIPOS>ATOM
      1 C1         -0.0184    1.5028    0.0103 C.3       1 <0>        -0.1060
      2 C2          0.0021   -0.0041    0.0020 C.ar      1 <0>        -0.1193
      3 C3          0.0057   -0.6890   -1.1990 C.ar      1 <0>        -0.0927
      4 C4          0.0224   -2.0743   -1.2045 C.ar      1 <0>        -0.1325
      5 C5          0.0364   -2.7819    0.0007 C.ar      1 <0>         0.1565
      6 C6          0.0362   -2.0941    1.1982 C.ar      1 <0>        -0.1609
      7 C7          0.0229   -0.7032    1.1975 C.ar      1 <0>         0.1391
      8 O1          0.0242   -0.0262    2.3770 O.3       1 <0>        -0.3037
      9 C8         -1.2483    0.2788    2.9514 C.3       1 <0>         0.0064
     10 C9         -1.0494    1.0253    4.2453 C.2       1 <0>         0.5007
     11 O2          0.0775    1.2732    4.6391 O.co2     1 <0>        -0.6707
     12 O3         -2.0155    1.3814    4.8983 O.co2     1 <0>        -0.6907
     13 C10         0.0625   -2.8179    2.5206 C.3       1 <0>        -0.0746
     14 C11        -0.3568   -4.2762    2.3191 C.3       1 <0>        -0.1589
     15 C12         0.4343   -4.8457    1.1345 C.3       1 <0>         0.0618
     16 O4          0.0468   -4.1406   -0.0456 O.3       1 <0>        -0.3071
     17 S1          0.0255   -2.9466   -2.7354 S.3       1 <0>        -0.0858
     18 C13         0.0035   -1.6347   -3.9880 C.3       1 <0>        -0.0729
     19 C14         0.0042   -2.2526   -5.3626 C.ar      1 <0>        -0.1045
     20 C15         1.2026   -2.5263   -5.9956 C.ar      1 <0>        -0.0593
     21 C16         1.2060   -3.0922   -7.2558 C.ar      1 <0>        -0.1483
     22 C17         0.0056   -3.3864   -7.8860 C.ar      1 <0>         0.1313
     23 C18        -1.1955   -3.1112   -7.2485 C.ar      1 <0>        -0.2078
     24 C19        -1.1934   -2.5500   -5.9862 C.ar      1 <0>        -0.0585
     25 O5          0.0063   -3.9427   -9.1259 O.3       1 <0>        -0.3077
     26 C20        -1.2666   -4.2186   -9.7138 C.3       1 <0>         0.0960
     27 C21        -1.0685   -4.8287  -11.0775 C.ar      1 <0>        -0.0624
     28 C22        -0.9823   -4.0159  -12.1924 C.ar      1 <0>        -0.0952
     29 C23        -0.8005   -4.5755  -13.4432 C.ar      1 <0>        -0.0728
     30 C24        -0.7044   -5.9478  -13.5792 C.ar      1 <0>        -0.1745
     31 C25        -0.7897   -6.7605  -12.4643 C.ar      1 <0>        -0.0724
     32 C26        -0.9672   -6.2006  -11.2129 C.ar      1 <0>        -0.0949
     33 C27        -0.5072   -6.5578  -14.9430 C.3       1 <0>         0.5080
     34 F1          0.8614   -6.6705  -15.2101 F         1 <0>        -0.1749
     35 F2         -1.0947   -7.8271  -14.9755 F         1 <0>        -0.1761
     36 F3         -1.1054   -5.7423  -15.9096 F         1 <0>        -0.1762
     37 H1          1.0042    1.8801    0.0026 H         1 <0>         0.0712
     38 H2         -0.5455    1.8639   -0.8728 H         1 <0>         0.0599
     39 H3         -0.5286    1.8543    0.9071 H         1 <0>         0.0743
     40 H4         -0.0048   -0.1447   -2.1317 H         1 <0>         0.1285
     41 H5         -1.8204    0.8969    2.2595 H         1 <0>         0.0497
     42 H6         -1.7905   -0.6466    3.1454 H         1 <0>         0.0480
     43 H7          1.0711   -2.7842    2.9324 H         1 <0>         0.0830
     44 H8         -0.6273   -2.3345    3.2124 H         1 <0>         0.0879
     45 H9         -0.1349   -4.8499    3.2189 H         1 <0>         0.0853
     46 H10        -1.4245   -4.3253    2.1055 H         1 <0>         0.0760
     47 H11         1.5021   -4.7124    1.3080 H         1 <0>         0.0643
     48 H12         0.2100   -5.9061    1.0190 H         1 <0>         0.1060
     49 H13        -0.8933   -1.0279   -3.8629 H         1 <0>         0.0940
     50 H14         0.8865   -1.0064   -3.8717 H         1 <0>         0.0948
     51 H15         2.1368   -2.2971   -5.5045 H         1 <0>         0.1338
     52 H16         2.1423   -3.3051   -7.7501 H         1 <0>         0.1329
     53 H17        -2.1313   -3.3393   -7.7370 H         1 <0>         0.1294
     54 H18        -2.1281   -2.3397   -5.4877 H         1 <0>         0.1293
     55 H19        -1.8161   -4.9152   -9.0805 H         1 <0>         0.0780
     56 H20        -1.8315   -3.2913   -9.8092 H         1 <0>         0.0775
     57 H21        -1.0573   -2.9438  -12.0861 H         1 <0>         0.1387
     58 H22        -0.7339   -3.9405  -14.3143 H         1 <0>         0.1399
     59 H23        -0.7150   -7.8326  -12.5705 H         1 <0>         0.1401
     60 H24        -1.0301   -6.8354  -10.3413 H         1 <0>         0.1392
@<TRIPOS>BOND
     1    1    2 1
     2    1   37 1
     3    1   38 1
     4    1   39 1
     5    2    7 ar
     6    2    3 ar
     7    3    4 ar
     8    3   40 1
     9    4    5 ar
    10    4   17 1
    11    5   16 1
    12    5    6 ar
    13    6    7 ar
    14    6   13 1
    15    7    8 1
    16    8    9 1
    17    9   10 1
    18    9   41 1
    19    9   42 1
    20   10   11 2
    21   10   12 1
    22   13   14 1
    23   13   43 1
    24   13   44 1
    25   14   15 1
    26   14   45 1
    27   14   46 1
    28   15   16 1
    29   15   47 1
    30   15   48 1
    31   17   18 1
    32   18   19 1
    33   18   49 1
    34   18   50 1
    35   19   24 ar
    36   19   20 ar
    37   20   21 ar
    38   20   51 1
    39   21   22 ar
    40   21   52 1
    41   22   23 ar
    42   22   25 1
    43   23   24 ar
    44   23   53 1
    45   24   54 1
    46   25   26 1
    47   26   27 1
    48   26   55 1
    49   26   56 1
    50   27   32 ar
    51   27   28 ar
    52   28   29 ar
    53   28   57 1
    54   29   30 ar
    55   29   58 1
    56   30   31 ar
    57   30   33 1
    58   31   32 ar
    59   31   59 1
    60   32   60 1
    61   33   34 1
    62   33   35 1
    63   33   36 1
@<TRIPOS>MOLECULE
CHEMBL232396
   59    62     0     0     0
SMALL
USER_CHARGES

@<TRIPOS>ATOM
      1 C1         -0.0184    1.5028    0.0103 C.3       1 <0>        -0.1096
      2 C2          0.0021   -0.0041    0.0020 C.ar      1 <0>        -0.0896
      3 C3          0.0057   -0.6884   -1.1976 C.ar      1 <0>        -0.1226
      4 C4          0.0246   -2.0762   -1.2024 C.ar      1 <0>        -0.0873
      5 C5          0.0402   -2.7796   -0.0016 C.ar      1 <0>        -0.0731
      6 C6          0.0364   -2.0935    1.1965 C.ar      1 <0>        -0.0965
      7 C7          0.0229   -0.7037    1.1980 C.ar      1 <0>         0.1177
      8 O1          0.0254   -0.0277    2.3782 O.3       1 <0>        -0.3061
      9 C8         -1.2465    0.2779    2.9534 C.3       1 <0>         0.0073
     10 C9         -1.0463    1.0232    4.2479 C.2       1 <0>         0.5005
     11 O2          0.0810    1.2697    4.6413 O.co2     1 <0>        -0.6714
     12 O3         -2.0117    1.3795    4.9017 O.co2     1 <0>        -0.6919
     13 C10         0.0556   -3.0750    2.3488 C.3       1 <0>        -0.0782
     14 C11        -0.3686   -4.4263    1.7354 C.3       1 <0>        -0.1186
     15 C12         0.0623   -4.2701    0.2615 C.3       1 <0>        -0.0754
     16 S1          0.0293   -2.9496   -2.7327 S.3       1 <0>        -0.1146
     17 C13         0.0056   -1.6387   -3.9863 C.3       1 <0>        -0.0645
     18 C14         0.0077   -2.2576   -5.3604 C.ar      1 <0>        -0.1068
     19 C15         1.2066   -2.5299   -5.9929 C.ar      1 <0>        -0.0589
     20 C16         1.2112   -3.0967   -7.2527 C.ar      1 <0>        -0.1483
     21 C17         0.0114   -3.3932   -7.8830 C.ar      1 <0>         0.1323
     22 C18        -1.1903   -3.1194   -7.2460 C.ar      1 <0>        -0.2079
     23 C19        -1.1894   -2.5573   -5.9841 C.ar      1 <0>        -0.0582
     24 O4          0.0132   -3.9505   -9.1225 O.3       1 <0>        -0.3075
     25 C20        -1.2592   -4.2287   -9.7105 C.3       1 <0>         0.0961
     26 C21        -1.0597   -4.8394  -11.0737 C.ar      1 <0>        -0.0628
     27 C22        -0.9745   -4.0274  -12.1891 C.ar      1 <0>        -0.0951
     28 C23        -0.7916   -4.5876  -13.4396 C.ar      1 <0>        -0.0727
     29 C24        -0.6934   -5.9598  -13.5745 C.ar      1 <0>        -0.1742
     30 C25        -0.7777   -6.7718  -12.4590 C.ar      1 <0>        -0.0725
     31 C26        -0.9564   -6.2114  -11.2080 C.ar      1 <0>        -0.0948
     32 C27        -0.4950   -6.5706  -14.9378 C.3       1 <0>         0.5080
     33 F1          0.8739   -6.6813  -15.2045 F         1 <0>        -0.1748
     34 F2         -1.0805   -7.8408  -14.9695 F         1 <0>        -0.1760
     35 F3         -1.0941   -5.7567  -15.9052 F         1 <0>        -0.1762
     36 H1          1.0042    1.8801    0.0026 H         1 <0>         0.0733
     37 H2         -0.5455    1.8639   -0.8728 H         1 <0>         0.0608
     38 H3         -0.5286    1.8543    0.9071 H         1 <0>         0.0757
     39 H4         -0.0064   -0.1445   -2.1305 H         1 <0>         0.1238
     40 H5         -1.8185    0.8971    2.2624 H         1 <0>         0.0475
     41 H6         -1.7894   -0.6472    3.1470 H         1 <0>         0.0469
     42 H7          1.0596   -3.1480    2.7669 H         1 <0>         0.0842
     43 H8         -0.6539   -2.7694    3.1178 H         1 <0>         0.0784
     44 H9          0.1634   -5.2512    2.2093 H         1 <0>         0.0769
     45 H10        -1.4471   -4.5648    1.8112 H         1 <0>         0.0716
     46 H11        -0.6426   -4.7805   -0.3948 H         1 <0>         0.0745
     47 H12         1.0681   -4.6647    0.1176 H         1 <0>         0.0805
     48 H13        -0.8921   -1.0332   -3.8619 H         1 <0>         0.0947
     49 H14         0.8877   -1.0089   -3.8702 H         1 <0>         0.0957
     50 H15         2.1404   -2.2989   -5.5018 H         1 <0>         0.1338
     51 H16         2.1479   -3.3086   -7.7466 H         1 <0>         0.1333
     52 H17        -2.1256   -3.3492   -7.7346 H         1 <0>         0.1297
     53 H18        -2.1245   -2.3480   -5.4859 H         1 <0>         0.1292
     54 H19        -1.8077   -4.9257   -9.0769 H         1 <0>         0.0780
     55 H20        -1.8254   -3.3023   -9.8067 H         1 <0>         0.0776
     56 H21        -1.0512   -2.9553  -12.0837 H         1 <0>         0.1387
     57 H22        -0.7257   -3.9532  -14.3111 H         1 <0>         0.1400
     58 H23        -0.7013   -7.8439  -12.5645 H         1 <0>         0.1402
     59 H24        -1.0185   -6.8455  -10.3360 H         1 <0>         0.1391
@<TRIPOS>BOND
     1    1    2 1
     2    1   36 1
     3    1   37 1
     4    1   38 1
     5    2    7 ar
     6    2    3 ar
     7    3    4 ar
     8    3   39 1
     9    4    5 ar
    10    4   16 1
    11    5   15 1
    12    5    6 ar
    13    6    7 ar
    14    6   13 1
    15    7    8 1
    16    8    9 1
    17    9   10 1
    18    9   40 1
    19    9   41 1
    20   10   11 2
    21   10   12 1
    22   13   14 1
    23   13   42 1
    24   13   43 1
    25   14   15 1
    26   14   44 1
    27   14   45 1
    28   15   46 1
    29   15   47 1
    30   16   17 1
    31   17   18 1
    32   17   48 1
    33   17   49 1
    34   18   23 ar
    35   18   19 ar
    36   19   20 ar
    37   19   50 1
    38   20   21 ar
    39   20   51 1
    40   21   22 ar
    41   21   24 1
    42   22   23 ar
    43   22   52 1
    44   23   53 1
    45   24   25 1
    46   25   26 1
    47   25   54 1
    48   25   55 1
    49   26   31 ar
    50   26   27 ar
    51   27   28 ar
    52   27   56 1
    53   28   29 ar
    54   28   57 1
    55   29   30 ar
    56   29   32 1
    57   30   31 ar
    58   30   58 1
    59   31   59 1
    60   32   33 1
    61   32   34 1
    62   32   35 1
@<TRIPOS>MOLECULE
CHEMBL234819
   64    66     0     0     0
SMALL
USER_CHARGES

@<TRIPOS>ATOM
      1 C1         -0.0187    1.5258    0.0104 C.3       1 <0>        -0.1431
      2 C2          0.0021   -0.0041    0.0020 C.3       1 <0>         0.0661
      3 O1          0.6932   -0.4774    1.1597 O.3       1 <0>        -0.3663
      4 C3          0.7699   -1.9016    1.2491 C.3       1 <0>         0.0345
      5 H1          0.7819   -2.3284    0.2462 H         1 <0>         0.0482
      6 C4          2.0499   -2.2981    1.9875 C.3       1 <0>        -0.0659
      7 C5          3.2484   -1.8847    1.1728 C.ar      1 <0>        -0.0621
      8 C6          3.7849   -2.7546    0.2420 C.ar      1 <0>        -0.1195
      9 C7          4.8842   -2.3753   -0.5052 C.ar      1 <0>        -0.1174
     10 C8          5.4469   -1.1260   -0.3221 C.ar      1 <0>        -0.1010
     11 C9          4.9098   -0.2558    0.6081 C.ar      1 <0>        -0.1174
     12 C10         3.8078   -0.6334    1.3523 C.ar      1 <0>        -0.0985
     13 C11         6.6460   -0.7129   -1.1360 C.3       1 <0>        -0.0743
     14 C12         6.1782   -0.0314   -2.4235 C.3       1 <0>        -0.1045
     15 C13         7.3956    0.3880   -3.2499 C.3       1 <0>         0.1302
     16 C14         6.9395    1.1670   -4.4566 C.ar      1 <0>        -0.1042
     17 C15         6.4526    0.5008   -5.5657 C.ar      1 <0>        -0.1022
     18 C16         6.0342    1.2153   -6.6726 C.ar      1 <0>        -0.1243
     19 C17         6.1022    2.5960   -6.6703 C.ar      1 <0>        -0.1141
     20 C18         6.5882    3.2622   -5.5608 C.ar      1 <0>        -0.1209
     21 C19         7.0026    2.5479   -4.4522 C.ar      1 <0>        -0.0838
     22 O2          8.1065   -0.7763   -3.6753 O.3       1 <0>        -0.3018
     23 C20         9.4377   -0.6527   -3.8440 C.2       1 <0>         0.5042
     24 S1         10.2018    0.8509   -3.5504 S.2       1 <0>        -0.6073
     25 N1         10.1676   -1.7128   -4.2440 N.pl3     1 <0>        -0.6397
     26 C21        11.6148   -1.5784   -4.4274 C.3       1 <0>         0.1647
     27 C22        12.1892   -2.8979   -4.8744 C.ar      1 <0>        -0.1215
     28 C23        12.6212   -3.8170   -3.9365 C.ar      1 <0>        -0.0946
     29 C24        13.1481   -5.0274   -4.3465 C.ar      1 <0>        -0.1215
     30 C25        13.2426   -5.3190   -5.6944 C.ar      1 <0>        -0.1053
     31 C26        12.8097   -4.4004   -6.6323 C.ar      1 <0>        -0.1223
     32 C27        12.2789   -3.1917   -6.2222 C.ar      1 <0>        -0.0955
     33 C28        -0.4267   -2.4228    2.0025 C.2       1 <0>         0.4771
     34 O3         -0.6021   -3.6243    2.1120 O.co2     1 <0>        -0.7002
     35 O4         -1.2193   -1.6429    2.5025 O.co2     1 <0>        -0.6791
     36 H2          1.0039    1.9031    0.0027 H         1 <0>         0.0544
     37 H3         -0.5459    1.8868   -0.8726 H         1 <0>         0.0598
     38 H4         -0.5289    1.8773    0.9072 H         1 <0>         0.0624
     39 H5         -1.0205   -0.3814    0.0098 H         1 <0>         0.0452
     40 H6          0.5123   -0.3556   -0.8948 H         1 <0>         0.0294
     41 H7          2.0796   -1.7996    2.9564 H         1 <0>         0.0742
     42 H8          2.0651   -3.3781    2.1339 H         1 <0>         0.0870
     43 H9          3.3453   -3.7306    0.0989 H         1 <0>         0.1198
     44 H10         5.3038   -3.0552   -1.2319 H         1 <0>         0.1137
     45 H11         5.3496    0.7202    0.7515 H         1 <0>         0.1165
     46 H12         3.3860    0.0479    2.0764 H         1 <0>         0.1232
     47 H13         7.2557   -0.0184   -0.5581 H         1 <0>         0.0726
     48 H14         7.2368   -1.5943   -1.3855 H         1 <0>         0.0690
     49 H15         5.5685   -0.7259   -3.0014 H         1 <0>         0.0778
     50 H16         5.5873    0.8500   -2.1740 H         1 <0>         0.0963
     51 H17         8.0506    1.0115   -2.6413 H         1 <0>         0.1272
     52 H18         6.3995   -0.5779   -5.5676 H         1 <0>         0.1195
     53 H19         5.6545    0.6949   -7.5394 H         1 <0>         0.1206
     54 H20         5.7760    3.1542   -7.5354 H         1 <0>         0.1209
     55 H21         6.6416    4.3409   -5.5591 H         1 <0>         0.1238
     56 H22         7.3788    3.0685   -3.5840 H         1 <0>         0.1270
     57 H23         9.7347   -2.5647   -4.4103 H         1 <0>         0.4078
     58 H24        11.8163   -0.8196   -5.1836 H         1 <0>         0.1011
     59 H25        12.0747   -1.2827   -3.4844 H         1 <0>         0.1023
     60 H26        12.5474   -3.5891   -2.8834 H         1 <0>         0.1270
     61 H27        13.4863   -5.7451   -3.6137 H         1 <0>         0.1270
     62 H28        13.6549   -6.2644   -6.0148 H         1 <0>         0.1254
     63 H29        12.8838   -4.6281   -7.6855 H         1 <0>         0.1263
     64 H30        11.9373   -2.4755   -6.9549 H         1 <0>         0.1258
@<TRIPOS>BOND
     1    1    2 1
     2    1   36 1
     3    1   37 1
     4    1   38 1
     5    2    3 1
     6    2   39 1
     7    2   40 1
     8    3    4 1
     9    4    5 1
    10    4    6 1
    11    4   33 1
    12    6    7 1
    13    6   41 1
    14    6   42 1
    15    7   12 ar
    16    7    8 ar
    17    8    9 ar
    18    8   43 1
    19    9   10 ar
    20    9   44 1
    21   10   11 ar
    22   10   13 1
    23   11   12 ar
    24   11   45 1
    25   12   46 1
    26   13   14 1
    27   13   47 1
    28   13   48 1
    29   14   15 1
    30   14   49 1
    31   14   50 1
    32   15   16 1
    33   15   22 1
    34   15   51 1
    35   16   21 ar
    36   16   17 ar
    37   17   18 ar
    38   17   52 1
    39   18   19 ar
    40   18   53 1
    41   19   20 ar
    42   19   54 1
    43   20   21 ar
    44   20   55 1
    45   21   56 1
    46   22   23 1
    47   23   24 2
    48   23   25 1
    49   25   26 1
    50   25   57 1
    51   26   27 1
    52   26   58 1
    53   26   59 1
    54   27   32 ar
    55   27   28 ar
    56   28   29 ar
    57   28   60 1
    58   29   30 ar
    59   29   61 1
    60   30   31 ar
    61   30   62 1
    62   31   32 ar
    63   31   63 1
    64   32   64 1
    65   33   34 2
    66   33   35 1
@<TRIPOS>MOLECULE
CHEMBL234819__1
   64    66     0     0     0
SMALL
USER_CHARGES

@<TRIPOS>ATOM
      1 C1         -0.0187    1.5258    0.0104 C.3       1 <0>        -0.1429
      2 C2          0.0021   -0.0041    0.0020 C.3       1 <0>         0.0660
      3 O1          0.6932   -0.4774    1.1597 O.3       1 <0>        -0.3667
      4 C3          0.7699   -1.9016    1.2491 C.3       1 <0>         0.0344
      5 H1          0.7819   -2.3284    0.2462 H         1 <0>         0.0487
      6 C4          2.0499   -2.2981    1.9875 C.3       1 <0>        -0.0658
      7 C5          3.2484   -1.8847    1.1728 C.ar      1 <0>        -0.0621
      8 C6          3.7849   -2.7546    0.2420 C.ar      1 <0>        -0.1188
      9 C7          4.8842   -2.3753   -0.5052 C.ar      1 <0>        -0.1173
     10 C8          5.4469   -1.1260   -0.3221 C.ar      1 <0>        -0.1010
     11 C9          4.9098   -0.2558    0.6081 C.ar      1 <0>        -0.1174
     12 C10         3.8078   -0.6334    1.3523 C.ar      1 <0>        -0.0992
     13 C11         6.6460   -0.7129   -1.1360 C.3       1 <0>        -0.0743
     14 C12         6.1782   -0.0314   -2.4235 C.3       1 <0>        -0.1044
     15 C13         7.3956    0.3880   -3.2499 C.3       1 <0>         0.1302
     16 C14         6.9369    0.9477   -4.5717 C.ar      1 <0>        -0.1013
     17 C15         6.5822    2.2800   -4.6725 C.ar      1 <0>        -0.1039
     18 C16         6.1613    2.7934   -5.8850 C.ar      1 <0>        -0.1227
     19 C17         6.0956    1.9746   -6.9969 C.ar      1 <0>        -0.1153
     20 C18         6.4512    0.6426   -6.8963 C.ar      1 <0>        -0.1196
     21 C19         6.8761    0.1302   -5.6848 C.ar      1 <0>        -0.0871
     22 O2          8.1324    1.3857   -2.5401 O.3       1 <0>        -0.3017
     23 C20         9.4626    1.4295   -2.7507 C.2       1 <0>         0.5040
     24 S1         10.1954    0.3201   -3.8292 S.2       1 <0>        -0.6070
     25 N1         10.2161    2.3467   -2.1124 N.pl3     1 <0>        -0.6396
     26 C21        11.6623    2.3943   -2.3415 C.3       1 <0>         0.1646
     27 C22        12.2657    3.5004   -1.5148 C.ar      1 <0>        -0.1216
     28 C23        12.3689    4.7761   -2.0371 C.ar      1 <0>        -0.0955
     29 C24        12.9224    5.7908   -1.2788 C.ar      1 <0>        -0.1223
     30 C25        13.3722    5.5298    0.0020 C.ar      1 <0>        -0.1053
     31 C26        13.2682    4.2543    0.5247 C.ar      1 <0>        -0.1214
     32 C27        12.7108    3.2407   -0.2321 C.ar      1 <0>        -0.0945
     33 C28        -0.4267   -2.4228    2.0025 C.2       1 <0>         0.4772
     34 O3         -0.6021   -3.6243    2.1120 O.co2     1 <0>        -0.6998
     35 O4         -1.2193   -1.6429    2.5025 O.co2     1 <0>        -0.6795
     36 H2          1.0039    1.9031    0.0027 H         1 <0>         0.0537
     37 H3         -0.5459    1.8868   -0.8726 H         1 <0>         0.0598
     38 H4         -0.5289    1.8773    0.9072 H         1 <0>         0.0623
     39 H5         -1.0205   -0.3814    0.0098 H         1 <0>         0.0454
     40 H6          0.5123   -0.3556   -0.8948 H         1 <0>         0.0297
     41 H7          2.0796   -1.7996    2.9564 H         1 <0>         0.0738
     42 H8          2.0651   -3.3781    2.1339 H         1 <0>         0.0874
     43 H9          3.3453   -3.7306    0.0989 H         1 <0>         0.1208
     44 H10         5.3038   -3.0552   -1.2319 H         1 <0>         0.1165
     45 H11         5.3496    0.7202    0.7515 H         1 <0>         0.1136
     46 H12         3.3860    0.0479    2.0764 H         1 <0>         0.1223
     47 H13         7.2557   -0.0184   -0.5581 H         1 <0>         0.0693
     48 H14         7.2368   -1.5943   -1.3855 H         1 <0>         0.0723
     49 H15         5.5685   -0.7259   -3.0014 H         1 <0>         0.0959
     50 H16         5.5873    0.8500   -2.1740 H         1 <0>         0.0785
     51 H17         8.0328   -0.4791   -3.4239 H         1 <0>         0.1276
     52 H18         6.6335    2.9196   -3.8038 H         1 <0>         0.1192
     53 H19         5.8836    3.8341   -5.9636 H         1 <0>         0.1206
     54 H20         5.7662    2.3755   -7.9440 H         1 <0>         0.1209
     55 H21         6.3995    0.0028   -7.7649 H         1 <0>         0.1239
     56 H22         7.1574   -0.9096   -5.6070 H         1 <0>         0.1264
     57 H23         9.8009    2.9753   -1.5014 H         1 <0>         0.4079
     58 H24        12.1073    1.4417   -2.0539 H         1 <0>         0.1023
     59 H25        11.8570    2.5822   -3.3974 H         1 <0>         0.1012
     60 H26        12.0175    4.9800   -3.0378 H         1 <0>         0.1258
     61 H27        13.0037    6.7873   -1.6872 H         1 <0>         0.1263
     62 H28        13.8053    6.3224    0.5942 H         1 <0>         0.1254
     63 H29        13.6199    4.0504    1.5252 H         1 <0>         0.1270
     64 H30        12.6261    2.2450    0.1776 H         1 <0>         0.1270
@<TRIPOS>BOND
     1    1    2 1
     2    1   36 1
     3    1   37 1
     4    1   38 1
     5    2    3 1
     6    2   39 1
     7    2   40 1
     8    3    4 1
     9    4    5 1
    10    4    6 1
    11    4   33 1
    12    6    7 1
    13    6   41 1
    14    6   42 1
    15    7   12 ar
    16    7    8 ar
    17    8    9 ar
    18    8   43 1
    19    9   10 ar
    20    9   44 1
    21   10   11 ar
    22   10   13 1
    23   11   12 ar
    24   11   45 1
    25   12   46 1
    26   13   14 1
    27   13   47 1
    28   13   48 1
    29   14   15 1
    30   14   49 1
    31   14   50 1
    32   15   16 1
    33   15   22 1
    34   15   51 1
    35   16   21 ar
    36   16   17 ar
    37   17   18 ar
    38   17   52 1
    39   18   19 ar
    40   18   53 1
    41   19   20 ar
    42   19   54 1
    43   20   21 ar
    44   20   55 1
    45   21   56 1
    46   22   23 1
    47   23   24 2
    48   23   25 1
    49   25   26 1
    50   25   57 1
    51   26   27 1
    52   26   58 1
    53   26   59 1
    54   27   32 ar
    55   27   28 ar
    56   28   29 ar
    57   28   60 1
    58   29   30 ar
    59   29   61 1
    60   30   31 ar
    61   30   62 1
    62   31   32 ar
    63   31   63 1
    64   32   64 1
    65   33   34 2
    66   33   35 1
@<TRIPOS>MOLECULE
CHEMBL198529
   63    67     0     0     0
SMALL
USER_CHARGES

@<TRIPOS>ATOM
      1 C1         -0.0187    1.5258    0.0104 C.3       1 <0>        -0.1513
      2 C2          0.0021   -0.0041    0.0020 C.3       1 <0>        -0.1167
      3 C3          0.7182   -0.4975   -1.2568 C.3       1 <0>        -0.0675
      4 C4          0.7386   -2.0043   -1.2651 C.ar      1 <0>        -0.1285
      5 C5          1.7874   -2.6879   -0.6752 C.ar      1 <0>         0.1948
      6 C6          1.8132   -4.0802   -0.6789 C.ar      1 <0>        -0.2251
      7 C7          0.8034   -4.7889   -1.2649 C.ar      1 <0>        -0.0028
      8 C8         -0.2620   -4.1157   -1.8639 C.ar      1 <0>        -0.2229
      9 C9         -0.2974   -2.7119   -1.8594 C.ar      1 <0>         0.1279
     10 O1         -1.4279   -2.3376   -2.4927 O.3       1 <0>        -0.0833
     11 N1         -2.1386   -3.4862   -2.9085 N.2       1 <0>        -0.2859
     12 C10        -1.4782   -4.5594   -2.5636 C.2       1 <0>         0.1824
     13 C11        -1.8857   -5.9626   -2.8160 C.ar      1 <0>        -0.0407
     14 C12        -0.9213   -6.9362   -3.0707 C.ar      1 <0>        -0.0858
     15 C13        -1.3065   -8.2406   -3.3049 C.ar      1 <0>        -0.1191
     16 C14        -2.6468   -8.5825   -3.2873 C.ar      1 <0>        -0.0993
     17 C15        -3.6083   -7.6205   -3.0351 C.ar      1 <0>        -0.1201
     18 C16        -3.2344   -6.3141   -2.7938 C.ar      1 <0>        -0.0815
     19 O2          2.7988   -1.9961   -0.0890 O.3       1 <0>        -0.2965
     20 C17         3.8511   -2.7613    0.5018 C.3       1 <0>         0.0604
     21 C18         4.8908   -1.8162    1.1074 C.3       1 <0>        -0.1185
     22 C19         6.0176   -2.6355    1.7400 C.3       1 <0>         0.0668
     23 O3          6.9886   -1.7528    2.3057 O.3       1 <0>        -0.3170
     24 C20         8.0635   -2.3243    2.9118 C.ar      1 <0>         0.0853
     25 C21         8.1798   -3.7115    2.9537 C.ar      1 <0>        -0.1888
     26 C22         9.2616   -4.3064    3.5630 C.ar      1 <0>        -0.0761
     27 C23        10.2515   -3.5207    4.1441 C.ar      1 <0>         0.0883
     28 C24        10.1370   -2.1197    4.1035 C.ar      1 <0>        -0.0751
     29 C25         9.0377   -1.5270    3.4782 C.ar      1 <0>        -0.1114
     30 C26        11.3200   -1.5961    4.7907 C.2       1 <0>        -0.2342
     31 C27        12.0448   -2.6543    5.1871 C.2       1 <0>         0.0795
     32 N2         11.4230   -3.8131    4.8102 N.pl3     1 <0>        -0.4416
     33 C28        11.9262   -5.1632    5.0752 C.3       1 <0>         0.0318
     34 C29        12.7035   -5.6531    3.8807 C.2       1 <0>         0.4801
     35 O4         12.8258   -4.9405    2.8990 O.co2     1 <0>        -0.6712
     36 O5         13.2101   -6.7620    3.8961 O.co2     1 <0>        -0.6928
     37 H1          1.0039    1.9031    0.0027 H         1 <0>         0.0565
     38 H2         -0.5459    1.8868   -0.8726 H         1 <0>         0.0536
     39 H3         -0.5289    1.8773    0.9072 H         1 <0>         0.0541
     40 H4          0.5293   -0.3651    0.8851 H         1 <0>         0.0644
     41 H5         -1.0205   -0.3814    0.0098 H         1 <0>         0.0586
     42 H6          0.1910   -0.1364   -2.1398 H         1 <0>         0.0728
     43 H7          1.7408   -0.1202   -1.2645 H         1 <0>         0.0832
     44 H8          2.6370   -4.6028   -0.2158 H         1 <0>         0.1440
     45 H9          0.8297   -5.8686   -1.2650 H         1 <0>         0.1380
     46 H10         0.1254   -6.6703   -3.0850 H         1 <0>         0.1306
     47 H11        -0.5602   -8.9957   -3.5027 H         1 <0>         0.1325
     48 H12        -2.9437   -9.6044   -3.4715 H         1 <0>         0.1289
     49 H13        -4.6532   -7.8931   -3.0229 H         1 <0>         0.1309
     50 H14        -3.9856   -5.5648   -2.5922 H         1 <0>         0.1300
     51 H15         3.4410   -3.3997    1.2843 H         1 <0>         0.0716
     52 H16         4.3233   -3.3798   -0.2614 H         1 <0>         0.0722
     53 H17         5.3010   -1.1778    0.3249 H         1 <0>         0.0872
     54 H18         4.4187   -1.1977    1.8707 H         1 <0>         0.0865
     55 H19         5.6074   -3.2739    2.5225 H         1 <0>         0.0616
     56 H20         6.4897   -3.2540    0.9768 H         1 <0>         0.0629
     57 H21         7.4140   -4.3263    2.5044 H         1 <0>         0.1227
     58 H22         9.3416   -5.3831    3.5900 H         1 <0>         0.1179
     59 H23         8.9484   -0.4513    3.4414 H         1 <0>         0.1237
     60 H24        11.5633   -0.5557    4.9481 H         1 <0>         0.1414
     61 H25        12.9802   -2.5990    5.7241 H         1 <0>         0.1607
     62 H26        12.5774   -5.1432    5.9491 H         1 <0>         0.0877
     63 H27        11.0873   -5.8334    5.2626 H         1 <0>         0.0822
@<TRIPOS>BOND
     1    1    2 1
     2    1   37 1
     3    1   38 1
     4    1   39 1
     5    2    3 1
     6    2   40 1
     7    2   41 1
     8    3    4 1
     9    3   42 1
    10    3   43 1
    11    4    9 ar
    12    4    5 ar
    13    5    6 ar
    14    5   19 1
    15    6    7 ar
    16    6   44 1
    17    7    8 ar
    18    7   45 1
    19    8   12 1
    20    8    9 ar
    21    9   10 1
    22   10   11 1
    23   11   12 2
    24   12   13 1
    25   13   18 ar
    26   13   14 ar
    27   14   15 ar
    28   14   46 1
    29   15   16 ar
    30   15   47 1
    31   16   17 ar
    32   16   48 1
    33   17   18 ar
    34   17   49 1
    35   18   50 1
    36   19   20 1
    37   20   21 1
    38   20   51 1
    39   20   52 1
    40   21   22 1
    41   21   53 1
    42   21   54 1
    43   22   23 1
    44   22   55 1
    45   22   56 1
    46   23   24 1
    47   24   29 ar
    48   24   25 ar
    49   25   26 ar
    50   25   57 1
    51   26   27 ar
    52   26   58 1
    53   27   32 1
    54   27   28 ar
    55   28   29 ar
    56   28   30 1
    57   29   59 1
    58   30   31 2
    59   30   60 1
    60   31   32 1
    61   31   61 1
    62   32   33 1
    63   33   34 1
    64   33   62 1
    65   33   63 1
    66   34   35 2
    67   34   36 1
@<TRIPOS>MOLECULE
CHEMBL197496
   63    67     0     0     0
SMALL
USER_CHARGES

@<TRIPOS>ATOM
      1 C1         -0.0187    1.5258    0.0104 C.3       1 <0>        -0.1516
      2 C2          0.0021   -0.0041    0.0020 C.3       1 <0>        -0.1165
      3 C3         -1.4333   -0.5336    0.0129 C.3       1 <0>        -0.0680
      4 C4         -1.4129   -2.0405    0.0046 C.ar      1 <0>        -0.1280
      5 C5         -1.4091   -2.7284   -1.1962 C.ar      1 <0>         0.1949
      6 C6         -1.3902   -4.1207   -1.2118 C.ar      1 <0>        -0.2252
      7 C7         -1.3752   -4.8252   -0.0419 C.ar      1 <0>        -0.0032
      8 C8         -1.3783   -4.1476    1.1779 C.ar      1 <0>        -0.2230
      9 C9         -1.3920   -2.7435    1.2015 C.ar      1 <0>         0.1282
     10 O1         -1.3848   -2.3644    2.4958 O.3       1 <0>        -0.0829
     11 N1         -1.3608   -3.5099    3.3232 N.2       1 <0>        -0.2856
     12 C10        -1.3652   -4.5862    2.5826 C.2       1 <0>         0.1818
     13 C11        -1.3448   -5.9876    3.0666 C.ar      1 <0>        -0.0403
     14 C12        -2.0229   -6.9811    2.3621 C.ar      1 <0>        -0.0860
     15 C13        -2.0005   -8.2836    2.8174 C.ar      1 <0>        -0.1193
     16 C14        -1.3069   -8.6042    3.9706 C.ar      1 <0>        -0.0995
     17 C15        -0.6322   -7.6225    4.6738 C.ar      1 <0>        -0.1200
     18 C16        -0.6428   -6.3176    4.2248 C.ar      1 <0>        -0.0814
     19 O2         -1.4243   -2.0408   -2.3676 O.3       1 <0>        -0.2960
     20 C17        -1.4194   -2.8103   -3.5717 C.3       1 <0>         0.0614
     21 C18        -1.4384   -1.8697   -4.7782 C.3       1 <0>        -0.1196
     22 C19        -1.4331   -2.6936   -6.0674 C.3       1 <0>         0.0658
     23 O3         -1.4508   -1.8150   -7.1943 O.3       1 <0>        -0.3088
     24 C20        -1.4488   -2.3905   -8.4252 C.ar      1 <0>         0.1702
     25 C21        -1.4360   -3.7664   -8.5496 C.ar      1 <0>        -0.2534
     26 C22        -1.4343   -4.3561   -9.8056 C.ar      1 <0>        -0.0752
     27 C23        -1.4449   -3.5831  -10.9459 C.ar      1 <0>        -0.1483
     28 C24        -1.4579   -2.1950  -10.8462 C.ar      1 <0>         0.1493
     29 C25        -1.4655   -1.5930   -9.5760 C.ar      1 <0>        -0.1353
     30 C26        -1.4863   -0.1474   -9.8117 C.2       1 <0>        -0.2060
     31 C27        -1.4954    0.0330  -11.1416 C.2       1 <0>         0.0599
     32 N2         -1.4702   -1.1800  -11.7766 N.pl3     1 <0>        -0.4400
     33 C28        -1.4721   -1.3697  -13.2293 C.3       1 <0>         0.0322
     34 C29        -2.8868   -1.5714  -13.7077 C.2       1 <0>         0.4805
     35 O4         -3.8081   -1.5579  -12.9093 O.co2     1 <0>        -0.6711
     36 O5         -3.1101   -1.7481  -14.8932 O.co2     1 <0>        -0.6925
     37 H1          1.0039    1.9031    0.0027 H         1 <0>         0.0542
     38 H2         -0.5459    1.8868   -0.8726 H         1 <0>         0.0568
     39 H3         -0.5289    1.8773    0.9072 H         1 <0>         0.0535
     40 H4          0.5123   -0.3556   -0.8948 H         1 <0>         0.0645
     41 H5          0.5293   -0.3651    0.8851 H         1 <0>         0.0585
     42 H6         -1.9435   -0.1821    0.9097 H         1 <0>         0.0729
     43 H7         -1.9605   -0.1726   -0.8702 H         1 <0>         0.0835
     44 H8         -1.3878   -4.6467   -2.1550 H         1 <0>         0.1437
     45 H9         -1.3613   -5.9050   -0.0608 H         1 <0>         0.1377
     46 H10        -2.5650   -6.7318    1.4619 H         1 <0>         0.1305
     47 H11        -2.5257   -9.0541    2.2726 H         1 <0>         0.1322
     48 H12        -1.2924   -9.6249    4.3233 H         1 <0>         0.1289
     49 H13        -0.0926   -7.8785    5.5737 H         1 <0>         0.1309
     50 H14        -0.1118   -5.5528    4.7720 H         1 <0>         0.1301
     51 H15        -0.5209   -3.4265   -3.6054 H         1 <0>         0.0713
     52 H16        -2.3007   -3.4513   -3.5968 H         1 <0>         0.0717
     53 H17        -2.3369   -1.2535   -4.7444 H         1 <0>         0.0880
     54 H18        -0.5571   -1.2287   -4.7530 H         1 <0>         0.0873
     55 H19        -0.5346   -3.3098   -6.1011 H         1 <0>         0.0630
     56 H20        -2.3144   -3.3346   -6.0925 H         1 <0>         0.0638
     57 H21        -1.4269   -4.3860   -7.6651 H         1 <0>         0.1188
     58 H22        -1.4243   -5.4327   -9.8902 H         1 <0>         0.1205
     59 H23        -1.4428   -4.0546  -11.9176 H         1 <0>         0.1158
     60 H24        -1.4935    0.6264   -9.0583 H         1 <0>         0.1412
     61 H25        -1.5110    0.9924  -11.6373 H         1 <0>         0.1607
     62 H26        -1.0476   -0.4891  -13.7113 H         1 <0>         0.0883
     63 H27        -0.8747   -2.2457  -13.4820 H         1 <0>         0.0839
@<TRIPOS>BOND
     1    1    2 1
     2    1   37 1
     3    1   38 1
     4    1   39 1
     5    2    3 1
     6    2   40 1
     7    2   41 1
     8    3    4 1
     9    3   42 1
    10    3   43 1
    11    4    9 ar
    12    4    5 ar
    13    5    6 ar
    14    5   19 1
    15    6    7 ar
    16    6   44 1
    17    7    8 ar
    18    7   45 1
    19    8   12 1
    20    8    9 ar
    21    9   10 1
    22   10   11 1
    23   11   12 2
    24   12   13 1
    25   13   18 ar
    26   13   14 ar
    27   14   15 ar
    28   14   46 1
    29   15   16 ar
    30   15   47 1
    31   16   17 ar
    32   16   48 1
    33   17   18 ar
    34   17   49 1
    35   18   50 1
    36   19   20 1
    37   20   21 1
    38   20   51 1
    39   20   52 1
    40   21   22 1
    41   21   53 1
    42   21   54 1
    43   22   23 1
    44   22   55 1
    45   22   56 1
    46   23   24 1
    47   24   29 ar
    48   24   25 ar
    49   25   26 ar
    50   25   57 1
    51   26   27 ar
    52   26   58 1
    53   27   28 ar
    54   27   59 1
    55   28   32 1
    56   28   29 ar
    57   29   30 1
    58   30   31 2
    59   30   60 1
    60   31   32 1
    61   31   61 1
    62   32   33 1
    63   33   34 1
    64   33   62 1
    65   33   63 1
    66   34   35 2
    67   34   36 1
@<TRIPOS>MOLECULE
CHEMBL401534
   72    76     0     0     0
SMALL
USER_CHARGES

@<TRIPOS>ATOM
      1 C1         -1.2163    3.8735    0.3917 C.3       1 <0>        -0.0711
      2 C2         -1.0244    2.4366    0.8032 C.2       1 <0>        -0.0339
      3 C3         -1.9873    1.5036    0.9160 C.2       1 <0>        -0.0025
      4 N1         -1.4065    0.3584    1.3047 N.2       1 <0>        -0.4569
      5 C4         -0.1169    0.5644    1.4328 C.2       1 <0>         0.2251
      6 O1          0.1445    1.8457    1.1211 O.3       1 <0>        -0.1944
      7 C5          0.8817   -0.4448    1.8445 C.ar      1 <0>        -0.0149
      8 C6          0.4812   -1.7508    2.1308 C.ar      1 <0>        -0.0709
      9 C7          1.4183   -2.6880    2.5141 C.ar      1 <0>        -0.1203
     10 C8          2.7524   -2.3357    2.6148 C.ar      1 <0>        -0.1025
     11 C9          3.1560   -1.0426    2.3329 C.ar      1 <0>        -0.1217
     12 C10         2.2298   -0.0973    1.9430 C.ar      1 <0>        -0.0915
     13 C11        -3.4569    1.7088    0.6529 C.3       1 <0>        -0.0373
     14 C12        -3.7586    1.4093   -0.8169 C.3       1 <0>         0.0703
     15 O2         -5.1521    1.6038   -1.0663 O.3       1 <0>        -0.3106
     16 C13        -5.5895    1.3782   -2.3331 C.ar      1 <0>         0.1164
     17 C14        -4.6967    0.9721   -3.3146 C.ar      1 <0>        -0.2224
     18 C15        -5.1439    0.7430   -4.6012 C.ar      1 <0>        -0.0953
     19 C16        -6.4801    0.9179   -4.9115 C.ar      1 <0>        -0.1598
     20 C17        -7.3715    1.3228   -3.9355 C.ar      1 <0>        -0.0132
     21 C18        -6.9303    1.5478   -2.6457 C.ar      1 <0>        -0.1275
     22 C19        -8.8269    1.5129   -4.2773 C.3       1 <0>        -0.0662
     23 C20        -9.5313    0.1813   -4.2333 C.2       1 <0>        -0.0907
     24 C21        -9.9278   -0.3547   -5.3613 C.2       1 <0>         0.0186
     25 N2        -10.5923   -1.5781   -5.3992 N.am      1 <0>        -0.5230
     26 C22       -10.5958   -2.4211   -4.1945 C.3       1 <0>         0.1181
     27 C23       -10.8686   -1.5096   -2.9894 C.3       1 <0>        -0.1046
     28 C24        -9.7421   -0.4752   -2.8990 C.3       1 <0>        -0.1246
     29 C25       -10.1107    0.5724   -1.8803 C.2       1 <0>         0.5080
     30 O3        -10.9383    0.3223   -1.0207 O.co2     1 <0>        -0.6884
     31 O4         -9.5812    1.6701   -1.9158 O.co2     1 <0>        -0.6740
     32 C26       -11.2215   -1.9821   -6.5205 C.2       1 <0>         0.6494
     33 O5        -11.7979   -3.0516   -6.5420 O.2       1 <0>        -0.5737
     34 O6        -11.2112   -1.2007   -7.6170 O.3       1 <0>        -0.3533
     35 C27       -11.8982   -1.6916   -8.7699 C.3       1 <0>         0.1258
     36 C28       -11.7796   -0.6900   -9.8897 C.ar      1 <0>        -0.0950
     37 C29       -12.7270    0.3070  -10.0285 C.ar      1 <0>        -0.0922
     38 C30       -12.6181    1.2257  -11.0557 C.ar      1 <0>        -0.1235
     39 C31       -11.5617    1.1476  -11.9437 C.ar      1 <0>        -0.1108
     40 C32       -10.6137    0.1512  -11.8043 C.ar      1 <0>        -0.1247
     41 C33       -10.7202   -0.7649  -10.7746 C.ar      1 <0>        -0.0938
     42 H1         -0.2522    4.3820    0.3872 H         1 <0>         0.0793
     43 H2         -1.6511    3.9104   -0.6071 H         1 <0>         0.0923
     44 H3         -1.8843    4.3674    1.0973 H         1 <0>         0.0939
     45 H4         -0.5599   -2.0271    2.0529 H         1 <0>         0.1396
     46 H5          1.1097   -3.6989    2.7362 H         1 <0>         0.1326
     47 H6          3.4821   -3.0731    2.9153 H         1 <0>         0.1279
     48 H7          4.1988   -0.7738    2.4141 H         1 <0>         0.1300
     49 H8          2.5467    0.9104    1.7185 H         1 <0>         0.1297
     50 H9         -4.0366    1.0378    1.2868 H         1 <0>         0.0962
     51 H10        -3.7252    2.7414    0.8758 H         1 <0>         0.0940
     52 H11        -3.1789    2.0803   -1.4508 H         1 <0>         0.0568
     53 H12        -3.4902    0.3766   -1.0398 H         1 <0>         0.0613
     54 H13        -3.6530    0.8358   -3.0728 H         1 <0>         0.1143
     55 H14        -4.4493    0.4273   -5.3656 H         1 <0>         0.1130
     56 H15        -6.8277    0.7382   -5.9181 H         1 <0>         0.1135
     57 H16        -7.6279    1.8598   -1.8825 H         1 <0>         0.1701
     58 H17        -9.2841    2.1898   -3.5556 H         1 <0>         0.1514
     59 H18        -8.9128    1.9365   -5.2779 H         1 <0>         0.0528
     60 H19        -9.7345    0.1668   -6.2871 H         1 <0>         0.1382
     61 H20       -11.3795   -3.1746   -4.2729 H         1 <0>         0.0921
     62 H21        -9.6262   -2.9057   -4.0795 H         1 <0>         0.0715
     63 H22       -11.8248   -1.0036   -3.1223 H         1 <0>         0.0689
     64 H23       -10.8907   -2.1058   -2.0771 H         1 <0>         0.0832
     65 H24        -8.8201   -0.9672   -2.5893 H         1 <0>         0.0772
     66 H25       -11.4561   -2.6382   -9.0807 H         1 <0>         0.0756
     67 H26       -12.9502   -1.8438   -8.5286 H         1 <0>         0.0765
     68 H27       -13.5524    0.3680   -9.3347 H         1 <0>         0.1255
     69 H28       -13.3587    2.0042  -11.1645 H         1 <0>         0.1250
     70 H29       -11.4770    1.8650  -12.7466 H         1 <0>         0.1229
     71 H30        -9.7885    0.0900  -12.4983 H         1 <0>         0.1242
     72 H31        -9.9776   -1.5412  -10.6635 H         1 <0>         0.1242
@<TRIPOS>BOND
     1    1    2 1
     2    1   42 1
     3    1   43 1
     4    1   44 1
     5    2    6 1
     6    2    3 2
     7    3    4 1
     8    3   13 1
     9    4    5 2
    10    5    6 1
    11    5    7 1
    12    7   12 ar
    13    7    8 ar
    14    8    9 ar
    15    8   45 1
    16    9   10 ar
    17    9   46 1
    18   10   11 ar
    19   10   47 1
    20   11   12 ar
    21   11   48 1
    22   12   49 1
    23   13   14 1
    24   13   50 1
    25   13   51 1
    26   14   15 1
    27   14   52 1
    28   14   53 1
    29   15   16 1
    30   16   21 ar
    31   16   17 ar
    32   17   18 ar
    33   17   54 1
    34   18   19 ar
    35   18   55 1
    36   19   20 ar
    37   19   56 1
    38   20   21 ar
    39   20   22 1
    40   21   57 1
    41   22   23 1
    42   22   58 1
    43   22   59 1
    44   23   28 1
    45   23   24 2
    46   24   25 1
    47   24   60 1
    48   25   26 1
    49   25   32 am
    50   26   27 1
    51   26   61 1
    52   26   62 1
    53   27   28 1
    54   27   63 1
    55   27   64 1
    56   28   29 1
    57   28   65 1
    58   29   30 2
    59   29   31 1
    60   32   33 2
    61   32   34 1
    62   34   35 1
    63   35   36 1
    64   35   66 1
    65   35   67 1
    66   36   41 ar
    67   36   37 ar
    68   37   38 ar
    69   37   68 1
    70   38   39 ar
    71   38   69 1
    72   39   40 ar
    73   39   70 1
    74   40   41 ar
    75   40   71 1
    76   41   72 1
@<TRIPOS>MOLECULE
CHEMBL401534__1
   72    76     0     0     0
SMALL
USER_CHARGES

@<TRIPOS>ATOM
      1 C1         -0.0184    1.5028    0.0103 C.3       1 <0>        -0.0717
      2 C2          0.0021   -0.0041    0.0020 C.2       1 <0>        -0.0326
      3 C3         -1.0705   -0.8164    0.0025 C.2       1 <0>        -0.0059
      4 N1         -0.6270   -2.0826   -0.0064 N.2       1 <0>        -0.4584
      5 C4          0.6851   -2.0676   -0.0123 C.2       1 <0>         0.2285
      6 O1          1.0981   -0.7883   -0.0131 O.3       1 <0>        -0.1934
      7 C5          1.5619   -3.2577   -0.0227 C.ar      1 <0>        -0.0169
      8 C6          1.0059   -4.5378   -0.0330 C.ar      1 <0>        -0.0706
      9 C7          1.8298   -5.6443   -0.0432 C.ar      1 <0>        -0.1204
     10 C8          3.2044   -5.4871   -0.0433 C.ar      1 <0>        -0.1012
     11 C9          3.7620   -4.2209   -0.0327 C.ar      1 <0>        -0.1213
     12 C10         2.9493   -3.1060   -0.0282 C.ar      1 <0>        -0.0908
     13 C11        -2.5133   -0.3814    0.0119 C.3       1 <0>        -0.0346
     14 C12        -3.0085   -0.2260   -1.4274 C.3       1 <0>         0.0693
     15 O2         -4.3766    0.1865   -1.4185 O.3       1 <0>        -0.3159
     16 C13        -4.9731    0.3716   -2.6255 C.ar      1 <0>         0.1227
     17 C14        -4.2579    0.1549   -3.7946 C.ar      1 <0>        -0.2179
     18 C15        -4.8665    0.3431   -5.0201 C.ar      1 <0>        -0.0805
     19 C16        -6.1876    0.7473   -5.0825 C.ar      1 <0>        -0.1390
     20 C17        -6.9022    0.9643   -3.9192 C.ar      1 <0>        -0.0246
     21 C18        -6.2996    0.7718   -2.6908 C.ar      1 <0>        -0.1474
     22 C19        -8.3415    1.4051   -3.9909 C.3       1 <0>        -0.0427
     23 C20        -9.2372    0.1935   -4.0169 C.2       1 <0>        -0.0882
     24 C21        -9.7469   -0.2326   -2.8874 C.2       1 <0>         0.0306
     25 N2        -10.5895   -1.3402   -2.8338 N.am      1 <0>        -0.5231
     26 C22       -10.6819   -2.2189   -4.0091 C.3       1 <0>         0.1222
     27 C23       -10.7750   -1.3239   -5.2532 C.3       1 <0>        -0.1134
     28 C24        -9.5111   -0.4682   -5.3371 C.3       1 <0>        -0.1243
     29 C25        -9.6907    0.5882   -6.3968 C.2       1 <0>         0.5084
     30 O3         -9.2198    0.4221   -7.5091 O.co2     1 <0>        -0.6973
     31 O4        -10.3068    1.6089   -6.1417 O.co2     1 <0>        -0.6877
     32 C26       -11.3074   -1.6024   -1.7237 C.2       1 <0>         0.6513
     33 O5        -12.0394   -2.5717   -1.6883 O.2       1 <0>        -0.5730
     34 O6        -11.2136   -0.7902   -0.6538 O.3       1 <0>        -0.3524
     35 C27       -12.0028   -1.1282    0.4885 C.3       1 <0>         0.1259
     36 C28       -11.7693   -0.1140    1.5784 C.ar      1 <0>        -0.0952
     37 C29       -10.7581   -0.3104    2.5002 C.ar      1 <0>        -0.0932
     38 C30       -10.5439    0.6200    3.4999 C.ar      1 <0>        -0.1244
     39 C31       -11.3406    1.7470    3.5775 C.ar      1 <0>        -0.1107
     40 C32       -12.3512    1.9439    2.6551 C.ar      1 <0>        -0.1237
     41 C33       -12.5626    1.0156    1.6528 C.ar      1 <0>        -0.0920
     42 H1          1.0042    1.8801    0.0026 H         1 <0>         0.0803
     43 H2         -0.5455    1.8639   -0.8728 H         1 <0>         0.0925
     44 H3         -0.5286    1.8543    0.9071 H         1 <0>         0.0932
     45 H4         -0.0670   -4.6619   -0.0326 H         1 <0>         0.1391
     46 H5          1.4008   -6.6354   -0.0508 H         1 <0>         0.1328
     47 H6          3.8450   -6.3565   -0.0513 H         1 <0>         0.1284
     48 H7          4.8357   -4.1050   -0.0321 H         1 <0>         0.1305
     49 H8          3.3858   -2.1181   -0.0249 H         1 <0>         0.1300
     50 H9         -3.1156   -1.1316    0.5243 H         1 <0>         0.0944
     51 H10        -2.6018    0.5726    0.5316 H         1 <0>         0.0927
     52 H11        -2.4061    0.5242   -1.9398 H         1 <0>         0.0597
     53 H12        -2.9200   -1.1800   -1.9471 H         1 <0>         0.0641
     54 H13        -3.2261   -0.1604   -3.7464 H         1 <0>         0.1190
     55 H14        -4.3102    0.1749   -5.9304 H         1 <0>         0.1216
     56 H15        -6.6617    0.8940   -6.0418 H         1 <0>         0.1333
     57 H16        -6.8596    0.9372   -1.7823 H         1 <0>         0.1262
     58 H17        -8.5789    2.0139   -3.1184 H         1 <0>         0.0725
     59 H18        -8.4972    1.9916   -4.8964 H         1 <0>         0.1083
     60 H19        -9.5066    0.2892   -1.9729 H         1 <0>         0.1389
     61 H20        -9.7935   -2.8474   -4.0716 H         1 <0>         0.0739
     62 H21       -11.5726   -2.8428   -3.9351 H         1 <0>         0.0937
     63 H22       -10.8578   -1.9447   -6.1453 H         1 <0>         0.0805
     64 H23       -11.6475   -0.6755   -5.1731 H         1 <0>         0.0718
     65 H24        -8.6666   -1.1035   -5.6043 H         1 <0>         0.0743
     66 H25       -13.0576   -1.1301    0.2138 H         1 <0>         0.0766
     67 H26       -11.7188   -2.1179    0.8463 H         1 <0>         0.0758
     68 H27       -10.1357   -1.1909    2.4397 H         1 <0>         0.1243
     69 H28        -9.7544    0.4662    4.2206 H         1 <0>         0.1241
     70 H29       -11.1737    2.4736    4.3590 H         1 <0>         0.1227
     71 H30       -12.9738    2.8242    2.7159 H         1 <0>         0.1248
     72 H31       -13.3497    1.1713    0.9299 H         1 <0>         0.1255
@<TRIPOS>BOND
     1    1    2 1
     2    1   42 1
     3    1   43 1
     4    1   44 1
     5    2    6 1
     6    2    3 2
     7    3    4 1
     8    3   13 1
     9    4    5 2
    10    5    6 1
    11    5    7 1
    12    7   12 ar
    13    7    8 ar
    14    8    9 ar
    15    8   45 1
    16    9   10 ar
    17    9   46 1
    18   10   11 ar
    19   10   47 1
    20   11   12 ar
    21   11   48 1
    22   12   49 1
    23   13   14 1
    24   13   50 1
    25   13   51 1
    26   14   15 1
    27   14   52 1
    28   14   53 1
    29   15   16 1
    30   16   21 ar
    31   16   17 ar
    32   17   18 ar
    33   17   54 1
    34   18   19 ar
    35   18   55 1
    36   19   20 ar
    37   19   56 1
    38   20   21 ar
    39   20   22 1
    40   21   57 1
    41   22   23 1
    42   22   58 1
    43   22   59 1
    44   23   28 1
    45   23   24 2
    46   24   25 1
    47   24   60 1
    48   25   26 1
    49   25   32 am
    50   26   27 1
    51   26   61 1
    52   26   62 1
    53   27   28 1
    54   27   63 1
    55   27   64 1
    56   28   29 1
    57   28   65 1
    58   29   30 2
    59   29   31 1
    60   32   33 2
    61   32   34 1
    62   34   35 1
    63   35   36 1
    64   35   66 1
    65   35   67 1
    66   36   41 ar
    67   36   37 ar
    68   37   38 ar
    69   37   68 1
    70   38   39 ar
    71   38   69 1
    72   39   40 ar
    73   39   70 1
    74   40   41 ar
    75   40   71 1
    76   41   72 1
@<TRIPOS>MOLECULE
CHEMBL121206
   56    59     0     0     0
SMALL
USER_CHARGES

@<TRIPOS>ATOM
      1 C1         -0.0187    1.5258    0.0104 C.3       1 <0>        -0.1520
      2 C2          0.0021   -0.0041    0.0020 C.3       1 <0>        -0.1173
      3 C3          0.7182   -0.4975   -1.2568 C.3       1 <0>        -0.0698
      4 C4          0.7386   -2.0043   -1.2651 C.ar      1 <0>        -0.1232
      5 C5          1.7874   -2.6879   -0.6752 C.ar      1 <0>         0.2032
      6 C6          1.8138   -4.0805   -0.6786 C.ar      1 <0>        -0.2160
      7 C7          0.8051   -4.7902   -1.2640 C.ar      1 <0>         0.0015
      8 C8         -0.2622   -4.1169   -1.8640 C.ar      1 <0>        -0.2138
      9 C9         -0.2971   -2.7116   -1.8592 C.ar      1 <0>         0.1307
     10 O1         -1.4279   -2.3410   -2.4934 O.3       1 <0>        -0.0560
     11 N1         -2.1323   -3.4949   -2.9061 N.2       1 <0>        -0.2266
     12 C10        -1.4728   -4.5582   -2.5610 C.2       1 <0>         0.0484
     13 C11        -1.8852   -5.9851   -2.8158 C.3       1 <0>         0.5555
     14 F1         -2.6666   -6.4423   -1.7492 F         1 <0>        -0.1559
     15 F2         -2.6274   -6.0518   -3.9998 F         1 <0>        -0.1568
     16 F3         -0.7443   -6.7860   -2.9349 F         1 <0>        -0.1548
     17 O2          2.7986   -1.9959   -0.0891 O.3       1 <0>        -0.2928
     18 C12         3.8511   -2.7608    0.5018 C.3       1 <0>         0.0595
     19 C13         4.8906   -1.8155    1.1073 C.3       1 <0>        -0.1196
     20 C14         6.0175   -2.6345    1.7400 C.3       1 <0>         0.0655
     21 O3          6.9884   -1.7516    2.3056 O.3       1 <0>        -0.3088
     22 C15         8.0625   -2.3223    2.9113 C.ar      1 <0>         0.1698
     23 C16         8.1856   -3.6977    2.9572 C.ar      1 <0>        -0.2532
     24 C17         9.2818   -4.2825    3.5749 C.ar      1 <0>        -0.0753
     25 C18        10.2624   -3.5053    4.1512 C.ar      1 <0>        -0.1478
     26 C19        10.1607   -2.1176    4.1177 C.ar      1 <0>         0.1493
     27 C20         9.0549   -1.5204    3.4881 C.ar      1 <0>        -0.1352
     28 C21         9.2467   -0.0738    3.6167 C.2       1 <0>        -0.2062
     29 C22        10.4001    0.1117    4.2772 C.2       1 <0>         0.0602
     30 N2         10.9566   -1.0992    4.5924 N.pl3     1 <0>        -0.4399
     31 C23        12.2186   -1.2835    5.3133 C.3       1 <0>         0.0320
     32 C24        13.3431   -1.4478    4.3235 C.2       1 <0>         0.4806
     33 O4         13.1118   -1.4141    3.1269 O.co2     1 <0>        -0.6712
     34 O5         14.4842   -1.6144    4.7194 O.co2     1 <0>        -0.6923
     35 H1          1.0039    1.9031    0.0027 H         1 <0>         0.0575
     36 H2         -0.5459    1.8868   -0.8726 H         1 <0>         0.0540
     37 H3         -0.5289    1.8773    0.9072 H         1 <0>         0.0551
     38 H4          0.5293   -0.3651    0.8851 H         1 <0>         0.0657
     39 H5         -1.0205   -0.3814    0.0098 H         1 <0>         0.0591
     40 H6          0.1910   -0.1364   -2.1398 H         1 <0>         0.0751
     41 H7          1.7408   -0.1202   -1.2645 H         1 <0>         0.0867
     42 H8          2.6380   -4.6024   -0.2152 H         1 <0>         0.1495
     43 H9          0.8322   -5.8699   -1.2636 H         1 <0>         0.1448
     44 H10         3.4411   -3.3992    1.2844 H         1 <0>         0.0735
     45 H11         4.3234   -3.3793   -0.2614 H         1 <0>         0.0740
     46 H12         5.3007   -1.1771    0.3248 H         1 <0>         0.0886
     47 H13         4.4184   -1.1969    1.8705 H         1 <0>         0.0879
     48 H14         5.6075   -3.2729    2.5226 H         1 <0>         0.0633
     49 H15         6.4898   -3.2530    0.9768 H         1 <0>         0.0641
     50 H16         7.4247   -4.3205    2.5106 H         1 <0>         0.1188
     51 H17         9.3670   -5.3587    3.6045 H         1 <0>         0.1206
     52 H18        11.1103   -3.9730    4.6294 H         1 <0>         0.1159
     53 H19         8.5856    0.6971    3.2491 H         1 <0>         0.1412
     54 H20        10.8221    1.0730    4.5306 H         1 <0>         0.1607
     55 H21        12.4100   -0.4119    5.9393 H         1 <0>         0.0884
     56 H22        12.1528   -2.1732    5.9394 H         1 <0>         0.0840
@<TRIPOS>BOND
     1    1    2 1
     2    1   35 1
     3    1   36 1
     4    1   37 1
     5    2    3 1
     6    2   38 1
     7    2   39 1
     8    3    4 1
     9    3   40 1
    10    3   41 1
    11    4    9 ar
    12    4    5 ar
    13    5    6 ar
    14    5   17 1
    15    6    7 ar
    16    6   42 1
    17    7    8 ar
    18    7   43 1
    19    8   12 1
    20    8    9 ar
    21    9   10 1
    22   10   11 1
    23   11   12 2
    24   12   13 1
    25   13   14 1
    26   13   15 1
    27   13   16 1
    28   17   18 1
    29   18   19 1
    30   18   44 1
    31   18   45 1
    32   19   20 1
    33   19   46 1
    34   19   47 1
    35   20   21 1
    36   20   48 1
    37   20   49 1
    38   21   22 1
    39   22   27 ar
    40   22   23 ar
    41   23   24 ar
    42   23   50 1
    43   24   25 ar
    44   24   51 1
    45   25   26 ar
    46   25   52 1
    47   26   30 1
    48   26   27 ar
    49   27   28 1
    50   28   29 2
    51   28   53 1
    52   29   30 1
    53   29   54 1
    54   30   31 1
    55   31   32 1
    56   31   55 1
    57   31   56 1
    58   32   33 2
    59   32   34 1
@<TRIPOS>MOLECULE
CHEMBL199846
   59    62     0     0     0
SMALL
USER_CHARGES

@<TRIPOS>ATOM
      1 C1          0.0525    1.4992    0.0805 C.3       1 <0>        -0.1541
      2 C2          0.0074   -0.0286    0.0134 C.3       1 <0>        -0.0949
      3 C3          0.6061   -0.4987   -1.3138 C.3       1 <0>        -0.1420
      4 C4          0.4006   -2.0078   -1.4600 C.3       1 <0>        -0.0211
      5 C5          0.9355   -2.4914   -2.8245 C.3       1 <0>        -0.1254
      6 C6         -0.3200   -2.4142   -3.7189 C.3       1 <0>        -0.0833
      7 C7         -1.4909   -2.5715   -2.7726 C.ar      1 <0>        -0.0566
      8 C8         -1.0769   -2.3378   -1.4738 C.ar      1 <0>        -0.1064
      9 C9         -1.9853   -2.4266   -0.4322 C.ar      1 <0>        -0.0698
     10 C10        -3.3040   -2.7483   -0.6839 C.ar      1 <0>        -0.2113
     11 C11        -3.7216   -2.9833   -1.9855 C.ar      1 <0>         0.1162
     12 C12        -2.8121   -2.8937   -3.0281 C.ar      1 <0>        -0.1433
     13 O1         -5.0186   -3.3011   -2.2382 O.3       1 <0>        -0.3173
     14 C13        -5.8988   -3.3759   -1.1149 C.3       1 <0>         0.0637
     15 C14        -7.3053   -3.7427   -1.5928 C.3       1 <0>        -0.1134
     16 C15        -8.2477   -3.8228   -0.3901 C.3       1 <0>        -0.0622
     17 C16        -9.6330   -4.1840   -0.8608 C.2       1 <0>         0.0957
     18 C17       -10.5958   -3.3189   -1.2280 C.2       1 <0>        -0.1654
     19 O2        -11.6749   -4.0463   -1.5786 O.3       1 <0>        -0.1688
     20 C18       -11.3612   -5.3440   -1.4223 C.2       1 <0>         0.2843
     21 N1        -10.1237   -5.4256   -0.9935 N.2       1 <0>        -0.4666
     22 C19       -12.2579   -6.4876   -1.6934 C.ar      1 <0>        -0.0349
     23 C20       -11.8116   -7.7933   -1.4839 C.ar      1 <0>        -0.0605
     24 C21       -12.6537   -8.8560   -1.7384 C.ar      1 <0>        -0.1221
     25 C22       -13.9381   -8.6297   -2.2003 C.ar      1 <0>        -0.0905
     26 C23       -14.3867   -7.3378   -2.4100 C.ar      1 <0>        -0.1220
     27 C24       -13.5565   -6.2660   -2.1544 C.ar      1 <0>        -0.0811
     28 C25       -10.4878   -1.8159   -1.2440 C.3       1 <0>         0.5703
     29 F1        -10.0196   -1.3952   -2.4934 F         1 <0>        -0.1582
     30 F2        -11.7471   -1.2553   -1.0050 F         1 <0>        -0.1646
     31 F3         -9.5964   -1.4018   -0.2484 F         1 <0>        -0.1512
     32 C26         2.0804   -0.1878   -1.3380 C.2       1 <0>         0.4992
     33 O3          2.8330   -0.8552   -2.0271 O.co2     1 <0>        -0.6907
     34 O4          2.5208    0.7311   -0.6686 O.co2     1 <0>        -0.6892
     35 H1          1.0890    1.8294    0.1502 H         1 <0>         0.0957
     36 H2         -0.4019    1.9160   -0.8183 H         1 <0>         0.0339
     37 H3         -0.4973    1.8408    0.9575 H         1 <0>         0.0273
     38 H4          0.5832   -0.4458    0.8396 H         1 <0>         0.0491
     39 H5         -1.0269   -0.3651    0.0849 H         1 <0>         0.0421
     40 H6          0.1125    0.0167   -2.1378 H         1 <0>         0.0610
     41 H7          0.8987   -2.5371   -0.6477 H         1 <0>         0.0667
     42 H8          1.7154   -1.8251   -3.1932 H         1 <0>         0.1284
     43 H9          1.3003   -3.5163   -2.7565 H         1 <0>         0.0548
     44 H10        -0.3672   -1.4484   -4.2219 H         1 <0>         0.0771
     45 H11        -0.3135   -3.2224   -4.4503 H         1 <0>         0.0672
     46 H12        -1.6606   -2.2437    0.5815 H         1 <0>         0.1212
     47 H13        -4.0091   -2.8173    0.1313 H         1 <0>         0.1230
     48 H14        -3.1355   -3.0764   -4.0422 H         1 <0>         0.1223
     49 H15        -5.5402   -4.1375   -0.4225 H         1 <0>         0.0645
     50 H16        -5.9268   -2.4102   -0.6103 H         1 <0>         0.0642
     51 H17        -7.6638   -2.9811   -2.2852 H         1 <0>         0.0758
     52 H18        -7.2773   -4.7084   -2.0974 H         1 <0>         0.0819
     53 H19        -7.8891   -4.5844    0.3023 H         1 <0>         0.1011
     54 H20        -8.2757   -2.8571    0.1145 H         1 <0>         0.1032
     55 H21       -10.8091   -7.9713   -1.1237 H         1 <0>         0.1420
     56 H22       -12.3094   -9.8669   -1.5770 H         1 <0>         0.1360
     57 H23       -14.5932   -9.4651   -2.3983 H         1 <0>         0.1315
     58 H24       -15.3903   -7.1679   -2.7711 H         1 <0>         0.1340
     59 H25       -13.9094   -5.2579   -2.3143 H         1 <0>         0.1333
@<TRIPOS>BOND
     1    1    2 1
     2    1   35 1
     3    1   36 1
     4    1   37 1
     5    2    3 1
     6    2   38 1
     7    2   39 1
     8    3    4 1
     9    3   32 1
    10    3   40 1
    11    4    8 1
    12    4    5 1
    13    4   41 1
    14    5    6 1
    15    5   42 1
    16    5   43 1
    17    6    7 1
    18    6   44 1
    19    6   45 1
    20    7   12 ar
    21    7    8 ar
    22    8    9 ar
    23    9   10 ar
    24    9   46 1
    25   10   11 ar
    26   10   47 1
    27   11   12 ar
    28   11   13 1
    29   12   48 1
    30   13   14 1
    31   14   15 1
    32   14   49 1
    33   14   50 1
    34   15   16 1
    35   15   51 1
    36   15   52 1
    37   16   17 1
    38   16   53 1
    39   16   54 1
    40   17   21 1
    41   17   18 2
    42   18   19 1
    43   18   28 1
    44   19   20 1
    45   20   21 2
    46   20   22 1
    47   22   27 ar
    48   22   23 ar
    49   23   24 ar
    50   23   55 1
    51   24   25 ar
    52   24   56 1
    53   25   26 ar
    54   25   57 1
    55   26   27 ar
    56   26   58 1
    57   27   59 1
    58   28   29 1
    59   28   30 1
    60   28   31 1
    61   32   33 2
    62   32   34 1
@<TRIPOS>MOLECULE
CHEMBL199846__1
   59    62     0     0     0
SMALL
USER_CHARGES

@<TRIPOS>ATOM
      1 C1          0.0125    1.8056   -0.5483 C.3       1 <0>        -0.1445
      2 C2         -0.1995    0.3121   -0.2928 C.3       1 <0>        -0.1005
      3 C3          0.6046   -0.4987   -1.3110 C.3       1 <0>        -0.1487
      4 C4          0.3143   -1.9888   -1.1201 C.3       1 <0>        -0.0289
      5 C5         -1.1945   -2.2662   -1.2891 C.3       1 <0>        -0.1161
      6 C6         -1.2031   -3.6609   -1.9502 C.3       1 <0>        -0.0761
      7 C7          0.1178   -3.7601   -2.6829 C.ar      1 <0>        -0.0716
      8 C8          0.9903   -2.7989   -2.2057 C.ar      1 <0>        -0.1029
      9 C9          2.2671   -2.7015   -2.7334 C.ar      1 <0>        -0.0507
     10 C10         2.6742   -3.5604   -3.7346 C.ar      1 <0>        -0.2073
     11 C11         1.8009   -4.5251   -4.2149 C.ar      1 <0>         0.1160
     12 C12         0.5228   -4.6221   -3.6866 C.ar      1 <0>        -0.1486
     13 O1          2.1969   -5.3723   -5.2009 O.3       1 <0>        -0.3184
     14 C13         3.5275   -5.2133   -5.6973 C.3       1 <0>         0.0619
     15 C14         3.7897   -6.2477   -6.7937 C.3       1 <0>        -0.1115
     16 C15         5.2143   -6.0775   -7.3253 C.3       1 <0>        -0.0639
     17 C16         5.4726   -7.0963   -8.4052 C.2       1 <0>         0.0976
     18 C17         5.9662   -8.3348   -8.2244 C.2       1 <0>        -0.1663
     19 O2          6.0419   -8.9165   -9.4378 O.3       1 <0>        -0.1695
     20 C18         5.5951   -8.0302  -10.3444 C.2       1 <0>         0.2828
     21 N1          5.2457   -6.9318   -9.7172 N.2       1 <0>        -0.4657
     22 C19         5.5069   -8.2569  -11.8025 C.ar      1 <0>        -0.0338
     23 C20         5.0287   -7.2487  -12.6409 C.ar      1 <0>        -0.0605
     24 C21         4.9493   -7.4666  -14.0009 C.ar      1 <0>        -0.1220
     25 C22         5.3426   -8.6812  -14.5341 C.ar      1 <0>        -0.0912
     26 C23         5.8176   -9.6848  -13.7085 C.ar      1 <0>        -0.1223
     27 C24         5.9070   -9.4780  -12.3474 C.ar      1 <0>        -0.0815
     28 C25         6.3616   -8.9560   -6.9095 C.3       1 <0>         0.5706
     29 F1          5.2591   -9.6148   -6.3549 F         1 <0>        -0.1588
     30 F2          7.3961   -9.8740   -7.1198 F         1 <0>        -0.1651
     31 F3          6.7965   -7.9558   -6.0334 F         1 <0>        -0.1502
     32 C26         2.0758   -0.2435   -1.1071 C.2       1 <0>         0.5055
     33 O3          2.6291   -0.6408   -0.0959 O.co2     1 <0>        -0.6995
     34 O4          2.7128    0.3602   -1.9534 O.co2     1 <0>        -0.7022
     35 H1          1.0546    2.0624   -0.3581 H         1 <0>         0.0574
     36 H2         -0.2351    2.0357   -1.5846 H         1 <0>         0.0475
     37 H3         -0.6310    2.3828    0.1158 H         1 <0>         0.0406
     38 H4          0.1353    0.0647    0.7146 H         1 <0>         0.0603
     39 H5         -1.2583    0.0731   -0.3927 H         1 <0>         0.0474
     40 H6          0.3203   -0.1995   -2.3198 H         1 <0>         0.0585
     41 H7          0.6529   -2.3166   -0.1373 H         1 <0>         0.0874
     42 H8         -1.6943   -2.2935   -0.3208 H         1 <0>         0.0715
     43 H9         -1.6540   -1.5248   -1.9427 H         1 <0>         0.0700
     44 H10        -1.2736   -4.4392   -1.1904 H         1 <0>         0.0769
     45 H11        -2.0324   -3.7411   -2.6530 H         1 <0>         0.0697
     46 H12         2.9474   -1.9505   -2.3597 H         1 <0>         0.1429
     47 H13         3.6707   -3.4811   -4.1433 H         1 <0>         0.1238
     48 H14        -0.1585   -5.3727   -4.0594 H         1 <0>         0.1203
     49 H15         3.6445   -4.2106   -6.1083 H         1 <0>         0.0663
     50 H16         4.2385   -5.3579   -4.8839 H         1 <0>         0.0650
     51 H17         3.6727   -7.2505   -6.3828 H         1 <0>         0.0747
     52 H18         3.0787   -6.1032   -7.6072 H         1 <0>         0.0813
     53 H19         5.3313   -5.0748   -7.7363 H         1 <0>         0.1023
     54 H20         5.9253   -6.2220   -6.5119 H         1 <0>         0.1038
     55 H21         4.7211   -6.3003  -12.2259 H         1 <0>         0.1424
     56 H22         4.5791   -6.6875  -14.6507 H         1 <0>         0.1359
     57 H23         5.2781   -8.8469  -15.5993 H         1 <0>         0.1312
     58 H24         6.1226  -10.6308  -14.1310 H         1 <0>         0.1336
     59 H25         6.2821  -10.2606  -11.7046 H         1 <0>         0.1331
@<TRIPOS>BOND
     1    1    2 1
     2    1   35 1
     3    1   36 1
     4    1   37 1
     5    2    3 1
     6    2   38 1
     7    2   39 1
     8    3    4 1
     9    3   32 1
    10    3   40 1
    11    4    8 1
    12    4    5 1
    13    4   41 1
    14    5    6 1
    15    5   42 1
    16    5   43 1
    17    6    7 1
    18    6   44 1
    19    6   45 1
    20    7   12 ar
    21    7    8 ar
    22    8    9 ar
    23    9   10 ar
    24    9   46 1
    25   10   11 ar
    26   10   47 1
    27   11   12 ar
    28   11   13 1
    29   12   48 1
    30   13   14 1
    31   14   15 1
    32   14   49 1
    33   14   50 1
    34   15   16 1
    35   15   51 1
    36   15   52 1
    37   16   17 1
    38   16   53 1
    39   16   54 1
    40   17   21 1
    41   17   18 2
    42   18   19 1
    43   18   28 1
    44   19   20 1
    45   20   21 2
    46   20   22 1
    47   22   27 ar
    48   22   23 ar
    49   23   24 ar
    50   23   55 1
    51   24   25 ar
    52   24   56 1
    53   25   26 ar
    54   25   57 1
    55   26   27 ar
    56   26   58 1
    57   27   59 1
    58   28   29 1
    59   28   30 1
    60   28   31 1
    61   32   33 2
    62   32   34 1
@<TRIPOS>MOLECULE
CHEMBL199846__2
   59    62     0     0     0
SMALL
USER_CHARGES

@<TRIPOS>ATOM
      1 C1         -0.0187    1.5258    0.0104 C.3       1 <0>        -0.1449
      2 C2          0.0021   -0.0041    0.0020 C.3       1 <0>        -0.1021
      3 C3          0.7182   -0.4975   -1.2568 C.3       1 <0>        -0.1439
      4 C4          0.8493   -2.0210   -1.2049 C.3       1 <0>        -0.0280
      5 C5          1.7201   -2.4429   -0.0026 C.3       1 <0>        -0.1211
      6 C6          3.1299   -2.5216   -0.6259 C.3       1 <0>        -0.0750
      7 C7          2.8988   -2.8144   -2.0930 C.ar      1 <0>        -0.0670
      8 C8          1.5876   -2.5265   -2.4260 C.ar      1 <0>        -0.0993
      9 C9          1.1461   -2.7193   -3.7246 C.ar      1 <0>        -0.0449
     10 C10         2.0092   -3.1986   -4.6895 C.ar      1 <0>        -0.2061
     11 C11         3.3245   -3.4881   -4.3579 C.ar      1 <0>         0.1172
     12 C12         3.7663   -3.2945   -3.0581 C.ar      1 <0>        -0.1466
     13 O1          4.1776   -3.9608   -5.3042 O.3       1 <0>        -0.3180
     14 C13         3.6526   -4.1360   -6.6217 C.3       1 <0>         0.0622
     15 C14         4.7516   -4.6716   -7.5416 C.3       1 <0>        -0.1119
     16 C15         4.1894   -4.8591   -8.9522 C.3       1 <0>        -0.0634
     17 C16         5.2719   -5.3866   -9.8583 C.2       1 <0>         0.0967
     18 C17         6.1317   -4.6454  -10.5805 C.2       1 <0>        -0.1648
     19 O2          6.9319   -5.4990  -11.2494 O.3       1 <0>        -0.1692
     20 C18         6.5539   -6.7488  -10.9299 C.2       1 <0>         0.2820
     21 N1          5.5533   -6.6788  -10.0838 N.2       1 <0>        -0.4659
     22 C19         7.1663   -7.9932  -11.4416 C.ar      1 <0>        -0.0334
     23 C20         6.6748   -9.2347  -11.0352 C.ar      1 <0>        -0.0609
     24 C21         7.2505  -10.3923  -11.5168 C.ar      1 <0>        -0.1222
     25 C22         8.3128  -10.3243  -12.4007 C.ar      1 <0>        -0.0914
     26 C23         8.8047   -9.0968  -12.8074 C.ar      1 <0>        -0.1221
     27 C24         8.2347   -7.9317  -12.3375 C.ar      1 <0>        -0.0815
     28 C25         6.1890   -3.1404  -10.6322 C.3       1 <0>         0.5700
     29 F1          7.0538   -2.6721   -9.6372 F         1 <0>        -0.1582
     30 F2          6.6577   -2.7343  -11.8863 F         1 <0>        -0.1652
     31 F3          4.9087   -2.6174  -10.4212 F         1 <0>        -0.1497
     32 C26        -0.0771   -0.1029   -2.4745 C.2       1 <0>         0.5065
     33 O3          0.4235    0.6153   -3.3231 O.co2     1 <0>        -0.7006
     34 O4         -1.2211   -0.5017   -2.6110 O.co2     1 <0>        -0.7021
     35 H1          1.0039    1.9031    0.0027 H         1 <0>         0.0457
     36 H2         -0.5459    1.8868   -0.8726 H         1 <0>         0.0580
     37 H3         -0.5289    1.8773    0.9072 H         1 <0>         0.0417
     38 H4          0.5293   -0.3651    0.8851 H         1 <0>         0.0478
     39 H5         -1.0205   -0.3814    0.0098 H         1 <0>         0.0628
     40 H6          1.7103   -0.0491   -1.3098 H         1 <0>         0.0576
     41 H7         -0.1360   -2.4827   -1.1407 H         1 <0>         0.0788
     42 H8          1.6858   -1.6893    0.7841 H         1 <0>         0.0786
     43 H9          1.4099   -3.4161    0.3779 H         1 <0>         0.0659
     44 H10         3.6495   -1.5708   -0.5072 H         1 <0>         0.0783
     45 H11         3.7027   -3.3265   -0.1652 H         1 <0>         0.0691
     46 H12         0.1221   -2.4940   -3.9832 H         1 <0>         0.1280
     47 H13         1.6607   -3.3482   -5.7008 H         1 <0>         0.1234
     48 H14         4.7901   -3.5193   -2.7981 H         1 <0>         0.1207
     49 H15         2.8258   -4.8457   -6.5919 H         1 <0>         0.0647
     50 H16         3.2960   -3.1784   -7.0009 H         1 <0>         0.0661
     51 H17         5.5784   -3.9619   -7.5714 H         1 <0>         0.0754
     52 H18         5.1082   -5.6292   -7.1623 H         1 <0>         0.0809
     53 H19         3.3627   -5.5688   -8.9224 H         1 <0>         0.1015
     54 H20         3.8328   -3.9015   -9.3315 H         1 <0>         0.1041
     55 H21         5.8458   -9.2891  -10.3451 H         1 <0>         0.1422
     56 H22         6.8714  -11.3536  -11.2029 H         1 <0>         0.1357
     57 H23         8.7601  -11.2334  -12.7744 H         1 <0>         0.1311
     58 H24         9.6344   -9.0506  -13.4973 H         1 <0>         0.1337
     59 H25         8.6167   -6.9741  -12.6592 H         1 <0>         0.1333
@<TRIPOS>BOND
     1    1    2 1
     2    1   35 1
     3    1   36 1
     4    1   37 1
     5    2    3 1
     6    2   38 1
     7    2   39 1
     8    3    4 1
     9    3   32 1
    10    3   40 1
    11    4    8 1
    12    4    5 1
    13    4   41 1
    14    5    6 1
    15    5   42 1
    16    5   43 1
    17    6    7 1
    18    6   44 1
    19    6   45 1
    20    7   12 ar
    21    7    8 ar
    22    8    9 ar
    23    9   10 ar
    24    9   46 1
    25   10   11 ar
    26   10   47 1
    27   11   12 ar
    28   11   13 1
    29   12   48 1
    30   13   14 1
    31   14   15 1
    32   14   49 1
    33   14   50 1
    34   15   16 1
    35   15   51 1
    36   15   52 1
    37   16   17 1
    38   16   53 1
    39   16   54 1
    40   17   21 1
    41   17   18 2
    42   18   19 1
    43   18   28 1
    44   19   20 1
    45   20   21 2
    46   20   22 1
    47   22   27 ar
    48   22   23 ar
    49   23   24 ar
    50   23   55 1
    51   24   25 ar
    52   24   56 1
    53   25   26 ar
    54   25   57 1
    55   26   27 ar
    56   26   58 1
    57   27   59 1
    58   28   29 1
    59   28   30 1
    60   28   31 1
    61   32   33 2
    62   32   34 1
@<TRIPOS>MOLECULE
CHEMBL199846__3
   59    62     0     0     0
SMALL
USER_CHARGES

@<TRIPOS>ATOM
      1 C1         -0.0413    0.7206   -3.3017 C.3       1 <0>        -0.1438
      2 C2          0.1503   -0.6589   -2.6683 C.3       1 <0>        -0.0982
      3 C3          0.7182   -0.4975   -1.2568 C.3       1 <0>        -0.1522
      4 C4          0.7680   -1.8627   -0.5679 C.3       1 <0>        -0.0264
      5 C5          1.7514   -2.7979   -1.3030 C.3       1 <0>        -0.1292
      6 C6          2.3519   -3.6234   -0.1454 C.3       1 <0>        -0.0775
      7 C7          2.2355   -2.7364    1.0757 C.ar      1 <0>        -0.0609
      8 C8          1.3248   -1.7242    0.8330 C.ar      1 <0>        -0.0955
      9 C9          1.0556   -0.7864    1.8160 C.ar      1 <0>        -0.0383
     10 C10         1.6923   -0.8570    3.0388 C.ar      1 <0>        -0.2070
     11 C11         2.6061   -1.8711    3.2845 C.ar      1 <0>         0.1171
     12 C12         2.8756   -2.8096    2.3003 C.ar      1 <0>        -0.1454
     13 O1          3.2360   -1.9444    4.4865 O.3       1 <0>        -0.3183
     14 C13         2.9091   -0.9431    5.4523 C.3       1 <0>         0.0633
     15 C14         3.7109   -1.1879    6.7322 C.3       1 <0>        -0.1125
     16 C15         3.3610   -0.1159    7.7661 C.3       1 <0>        -0.0632
     17 C16         4.1507   -0.3570    9.0268 C.2       1 <0>         0.0982
     18 C17         3.7675   -1.1173   10.0686 C.2       1 <0>        -0.1678
     19 O2          4.7551   -1.0683   10.9844 O.3       1 <0>        -0.1697
     20 C18         5.7282   -0.2812   10.4941 C.2       1 <0>         0.2835
     21 N1          5.3634    0.1435    9.3073 N.2       1 <0>        -0.4653
     22 C19         6.9987    0.0464   11.1752 C.ar      1 <0>        -0.0342
     23 C20         7.9286    0.8849   10.5585 C.ar      1 <0>        -0.0601
     24 C21         9.1121    1.1870   11.1998 C.ar      1 <0>        -0.1217
     25 C22         9.3783    0.6608   12.4513 C.ar      1 <0>        -0.0911
     26 C23         8.4608   -0.1711   13.0681 C.ar      1 <0>        -0.1226
     27 C24         7.2711   -0.4769   12.4401 C.ar      1 <0>        -0.0816
     28 C25         2.4740   -1.8812   10.1893 C.3       1 <0>         0.5710
     29 F1          2.6425   -3.1687    9.6688 F         1 <0>        -0.1586
     30 F2          2.1072   -1.9671   11.5366 F         1 <0>        -0.1654
     31 F3          1.4716   -1.2167    9.4746 F         1 <0>        -0.1511
     32 C26         2.1097    0.0754   -1.3376 C.2       1 <0>         0.5073
     33 O3          2.5237    0.7990   -0.4480 O.co2     1 <0>        -0.6956
     34 O4          2.8216   -0.1847   -2.2927 O.co2     1 <0>        -0.6976
     35 H1         -0.7336    1.3055   -2.6962 H         1 <0>         0.0400
     36 H2          0.9192    1.2335   -3.3529 H         1 <0>         0.0616
     37 H3         -0.4458    0.6056   -4.3073 H         1 <0>         0.0401
     38 H4         -0.8101   -1.1717   -2.6171 H         1 <0>         0.0376
     39 H5          0.8427   -1.2437   -3.2738 H         1 <0>         0.0685
     40 H6          0.0809    0.1757   -0.6835 H         1 <0>         0.0554
     41 H7         -0.2271   -2.3066   -0.5372 H         1 <0>         0.0673
     42 H8          1.2219   -3.4426   -2.0046 H         1 <0>         0.0635
     43 H9          2.5256   -2.2234   -1.8116 H         1 <0>         0.1090
     44 H10         1.7832   -4.5421   -0.0012 H         1 <0>         0.0717
     45 H11         3.3980   -3.8531   -0.3477 H         1 <0>         0.0703
     46 H12         0.3442    0.0035    1.6251 H         1 <0>         0.1173
     47 H13         1.4796   -0.1237    3.8026 H         1 <0>         0.1214
     48 H14         3.5868   -3.6000    2.4899 H         1 <0>         0.1199
     49 H15         3.1543    0.0410    5.0526 H         1 <0>         0.0663
     50 H16         1.8435   -0.9889    5.6767 H         1 <0>         0.0626
     51 H17         3.4658   -2.1719    7.1318 H         1 <0>         0.0743
     52 H18         4.7766   -1.1421    6.5077 H         1 <0>         0.0821
     53 H19         3.6061    0.8682    7.3665 H         1 <0>         0.1023
     54 H20         2.2953   -0.1617    7.9906 H         1 <0>         0.1027
     55 H21         7.7222    1.2960    9.5814 H         1 <0>         0.1428
     56 H22         9.8327    1.8355   10.7236 H         1 <0>         0.1362
     57 H23        10.3065    0.9001   12.9489 H         1 <0>         0.1312
     58 H24         8.6747   -0.5789   14.0450 H         1 <0>         0.1335
     59 H25         6.5538   -1.1228   12.9245 H         1 <0>         0.1330
@<TRIPOS>BOND
     1    1    2 1
     2    1   35 1
     3    1   36 1
     4    1   37 1
     5    2    3 1
     6    2   38 1
     7    2   39 1
     8    3    4 1
     9    3   32 1
    10    3   40 1
    11    4    8 1
    12    4    5 1
    13    4   41 1
    14    5    6 1
    15    5   42 1
    16    5   43 1
    17    6    7 1
    18    6   44 1
    19    6   45 1
    20    7   12 ar
    21    7    8 ar
    22    8    9 ar
    23    9   10 ar
    24    9   46 1
    25   10   11 ar
    26   10   47 1
    27   11   12 ar
    28   11   13 1
    29   12   48 1
    30   13   14 1
    31   14   15 1
    32   14   49 1
    33   14   50 1
    34   15   16 1
    35   15   51 1
    36   15   52 1
    37   16   17 1
    38   16   53 1
    39   16   54 1
    40   17   21 1
    41   17   18 2
    42   18   19 1
    43   18   28 1
    44   19   20 1
    45   20   21 2
    46   20   22 1
    47   22   27 ar
    48   22   23 ar
    49   23   24 ar
    50   23   55 1
    51   24   25 ar
    52   24   56 1
    53   25   26 ar
    54   25   57 1
    55   26   27 ar
    56   26   58 1
    57   27   59 1
    58   28   29 1
    59   28   30 1
    60   28   31 1
    61   32   33 2
    62   32   34 1
@<TRIPOS>MOLECULE
CHEMBL331469
   51    52     0     0     0
SMALL
USER_CHARGES

@<TRIPOS>ATOM
      1 C1         -0.0187    1.5258    0.0104 C.3       1 <0>        -0.1449
      2 C2          0.0021   -0.0041    0.0020 C.3       1 <0>        -0.1000
      3 C3         -1.4333   -0.5336    0.0129 C.3       1 <0>        -0.1565
      4 C4         -1.4133   -2.0590    0.1302 C.3       1 <0>        -0.0570
      5 C5         -2.8242   -2.5711    0.2645 C.ar      1 <0>        -0.1121
      6 C6         -3.3918   -2.7070    1.5219 C.ar      1 <0>        -0.0449
      7 C7         -4.6832   -3.1748    1.6599 C.ar      1 <0>        -0.2285
      8 C8         -5.4243   -3.5132    0.5374 C.ar      1 <0>         0.1703
      9 C9         -4.8540   -3.3774   -0.7388 C.ar      1 <0>        -0.2067
     10 C10        -3.5449   -2.8962   -0.8626 C.ar      1 <0>        -0.0101
     11 C11        -5.6270   -3.7324   -1.9351 C.2       1 <0>         0.4052
     12 O1         -6.7623   -4.1447   -1.8233 O.2       1 <0>        -0.4501
     13 C12        -5.0101   -3.5848   -3.3021 C.3       1 <0>        -0.1638
     14 C13        -6.0193   -4.0192   -4.3667 C.3       1 <0>        -0.0738
     15 C14        -5.4024   -3.8715   -5.7337 C.ar      1 <0>        -0.0429
     16 C15        -5.5284   -2.6804   -6.4238 C.ar      1 <0>        -0.1128
     17 C16        -4.9625   -2.5449   -7.6777 C.ar      1 <0>        -0.0655
     18 C17        -4.2703   -3.6004   -8.2413 C.ar      1 <0>        -0.1925
     19 C18        -4.1436   -4.7913   -7.5509 C.ar      1 <0>        -0.0695
     20 C19        -4.7058   -4.9253   -6.2951 C.ar      1 <0>        -0.1185
     21 C20        -3.6543   -3.4531   -9.6088 C.3       1 <0>         0.5091
     22 F1         -2.3477   -2.9694   -9.4819 F         1 <0>        -0.1755
     23 F2         -3.6308   -4.6982  -10.2463 F         1 <0>        -0.1802
     24 F3         -4.4124   -2.5549  -10.3675 F         1 <0>        -0.1790
     25 O2         -6.6928   -3.9733    0.6716 O.3       1 <0>        -0.2895
     26 C21        -7.2051   -4.0852    2.0009 C.3       1 <0>         0.0237
     27 C22        -2.1247   -0.1373   -1.2662 C.2       1 <0>         0.5055
     28 O3         -1.6815   -0.5094   -2.3393 O.co2     1 <0>        -0.6996
     29 O4         -3.1272    0.5556   -1.2278 O.co2     1 <0>        -0.6994
     30 H1          1.0039    1.9031    0.0027 H         1 <0>         0.0420
     31 H2         -0.5459    1.8868   -0.8726 H         1 <0>         0.0587
     32 H3         -0.5289    1.8773    0.9072 H         1 <0>         0.0455
     33 H4          0.5123   -0.3556   -0.8948 H         1 <0>         0.0638
     34 H5          0.5293   -0.3651    0.8851 H         1 <0>         0.0434
     35 H6         -1.9701   -0.1109    0.8621 H         1 <0>         0.0575
     36 H7         -0.9551   -2.4861   -0.7619 H         1 <0>         0.0753
     37 H8         -0.8366   -2.3483    1.0088 H         1 <0>         0.0570
     38 H9         -2.8195   -2.4454    2.3997 H         1 <0>         0.1247
     39 H10        -5.1171   -3.2778    2.6435 H         1 <0>         0.1285
     40 H11        -3.1000   -2.7841   -1.8403 H         1 <0>         0.1435
     41 H12        -4.7350   -2.5428   -3.4659 H         1 <0>         0.1100
     42 H13        -4.1199   -4.2103   -3.3685 H         1 <0>         0.0999
     43 H14        -6.2944   -5.0611   -4.2029 H         1 <0>         0.0816
     44 H15        -6.9095   -3.3937   -4.3003 H         1 <0>         0.0835
     45 H16        -6.0691   -1.8558   -5.9834 H         1 <0>         0.1373
     46 H17        -5.0615   -1.6146   -8.2172 H         1 <0>         0.1353
     47 H18        -3.6031   -5.6160   -7.9914 H         1 <0>         0.1335
     48 H19        -4.6037   -5.8544   -5.7541 H         1 <0>         0.1342
     49 H20        -8.2266   -4.4639    1.9659 H         1 <0>         0.0975
     50 H21        -6.5823   -4.7722    2.5737 H         1 <0>         0.0526
     51 H22        -7.1973   -3.1047    2.4770 H         1 <0>         0.0541
@<TRIPOS>BOND
     1    1    2 1
     2    1   30 1
     3    1   31 1
     4    1   32 1
     5    2    3 1
     6    2   33 1
     7    2   34 1
     8    3    4 1
     9    3   27 1
    10    3   35 1
    11    4    5 1
    12    4   36 1
    13    4   37 1
    14    5   10 ar
    15    5    6 ar
    16    6    7 ar
    17    6   38 1
    18    7    8 ar
    19    7   39 1
    20    8    9 ar
    21    8   25 1
    22    9   10 ar
    23    9   11 1
    24   10   40 1
    25   11   12 2
    26   11   13 1
    27   13   14 1
    28   13   41 1
    29   13   42 1
    30   14   15 1
    31   14   43 1
    32   14   44 1
    33   15   20 ar
    34   15   16 ar
    35   16   17 ar
    36   16   45 1
    37   17   18 ar
    38   17   46 1
    39   18   19 ar
    40   18   21 1
    41   19   20 ar
    42   19   47 1
    43   20   48 1
    44   21   22 1
    45   21   23 1
    46   21   24 1
    47   25   26 1
    48   26   49 1
    49   26   50 1
    50   26   51 1
    51   27   28 2
    52   27   29 1
@<TRIPOS>MOLECULE
CHEMBL331469__1
   51    52     0     0     0
SMALL
USER_CHARGES

@<TRIPOS>ATOM
      1 C1         -0.0187    1.5258    0.0104 C.3       1 <0>        -0.1510
      2 C2          0.0021   -0.0041    0.0020 C.3       1 <0>        -0.0912
      3 C3         -1.4333   -0.5336    0.0129 C.3       1 <0>        -0.1570
      4 C4         -1.4157   -2.0577   -0.1212 C.3       1 <0>        -0.0533
      5 C5         -2.8290   -2.5684   -0.2340 C.ar      1 <0>        -0.1072
      6 C6         -3.5348   -2.9027    0.9113 C.ar      1 <0>         0.0380
      7 C7         -4.8302   -3.3718    0.8230 C.ar      1 <0>        -0.2316
      8 C8         -5.4363   -3.5123   -0.4165 C.ar      1 <0>         0.1766
      9 C9         -4.7256   -3.1751   -1.5799 C.ar      1 <0>        -0.2266
     10 C10        -3.4144   -2.6953   -1.4736 C.ar      1 <0>        -0.0417
     11 C11        -5.3549   -3.3194   -2.8981 C.2       1 <0>         0.4020
     12 O1         -6.4925   -3.7312   -2.9853 O.2       1 <0>        -0.4519
     13 C12        -4.5877   -2.9560   -4.1432 C.3       1 <0>        -0.1600
     14 C13        -5.4662   -3.1977   -5.3724 C.3       1 <0>        -0.0767
     15 C14        -4.6989   -2.8343   -6.6175 C.ar      1 <0>        -0.0430
     16 C15        -4.7542   -1.5445   -7.1116 C.ar      1 <0>        -0.1172
     17 C16        -4.0504   -1.2111   -8.2538 C.ar      1 <0>        -0.0670
     18 C17        -3.2909   -2.1675   -8.9015 C.ar      1 <0>        -0.1922
     19 C18        -3.2350   -3.4571   -8.4068 C.ar      1 <0>        -0.0681
     20 C19        -3.9353   -3.7894   -7.2623 C.ar      1 <0>        -0.1182
     21 C20        -2.5245   -1.8044  -10.1472 C.3       1 <0>         0.5087
     22 F1         -1.2444   -1.3633   -9.7951 F         1 <0>        -0.1765
     23 F2         -2.4196   -2.9278  -10.9743 F         1 <0>        -0.1788
     24 F3         -3.1980   -0.7849  -10.8285 F         1 <0>        -0.1784
     25 O2         -6.7085   -3.9734   -0.5046 O.3       1 <0>        -0.2930
     26 C21        -7.3678   -4.2965    0.7213 C.3       1 <0>         0.0237
     27 C22        -2.1001   -0.1511    1.3091 C.2       1 <0>         0.4960
     28 O3         -1.4843    0.4861    2.1465 O.co2     1 <0>        -0.6932
     29 O4         -3.2553   -0.4788    1.5203 O.co2     1 <0>        -0.6891
     30 H1          1.0039    1.9031    0.0027 H         1 <0>         0.0346
     31 H2         -0.5459    1.8868   -0.8726 H         1 <0>         0.0339
     32 H3         -0.5289    1.8773    0.9072 H         1 <0>         0.0842
     33 H4          0.5123   -0.3556   -0.8948 H         1 <0>         0.0352
     34 H5          0.5293   -0.3651    0.8851 H         1 <0>         0.0579
     35 H6         -1.9862   -0.1019   -0.8214 H         1 <0>         0.0605
     36 H7         -0.8559   -2.3374   -1.0137 H         1 <0>         0.0577
     37 H8         -0.9406   -2.4942    0.7573 H         1 <0>         0.0625
     38 H9         -3.0680   -2.7957    1.8794 H         1 <0>         0.1266
     39 H10        -5.3724   -3.6302    1.7207 H         1 <0>         0.1257
     40 H11        -2.8620   -2.4291   -2.3626 H         1 <0>         0.1270
     41 H12        -4.3033   -1.9046   -4.1009 H         1 <0>         0.0997
     42 H13        -3.6912   -3.5725   -4.2105 H         1 <0>         0.0986
     43 H14        -5.7505   -4.2491   -5.4147 H         1 <0>         0.0835
     44 H15        -6.3626   -2.5812   -5.3051 H         1 <0>         0.0841
     45 H16        -5.3475   -0.7973   -6.6056 H         1 <0>         0.1364
     46 H17        -4.0941   -0.2036   -8.6402 H         1 <0>         0.1352
     47 H18        -2.6419   -4.2044   -8.9130 H         1 <0>         0.1346
     48 H19        -3.8886   -4.7959   -6.8737 H         1 <0>         0.1355
     49 H20        -8.3759   -4.6524    0.5088 H         1 <0>         0.0956
     50 H21        -6.8092   -5.0756    1.2400 H         1 <0>         0.0527
     51 H22        -7.4213   -3.4078    1.3502 H         1 <0>         0.0560
@<TRIPOS>BOND
     1    1    2 1
     2    1   30 1
     3    1   31 1
     4    1   32 1
     5    2    3 1
     6    2   33 1
     7    2   34 1
     8    3    4 1
     9    3   27 1
    10    3   35 1
    11    4    5 1
    12    4   36 1
    13    4   37 1
    14    5   10 ar
    15    5    6 ar
    16    6    7 ar
    17    6   38 1
    18    7    8 ar
    19    7   39 1
    20    8    9 ar
    21    8   25 1
    22    9   10 ar
    23    9   11 1
    24   10   40 1
    25   11   12 2
    26   11   13 1
    27   13   14 1
    28   13   41 1
    29   13   42 1
    30   14   15 1
    31   14   43 1
    32   14   44 1
    33   15   20 ar
    34   15   16 ar
    35   16   17 ar
    36   16   45 1
    37   17   18 ar
    38   17   46 1
    39   18   19 ar
    40   18   21 1
    41   19   20 ar
    42   19   47 1
    43   20   48 1
    44   21   22 1
    45   21   23 1
    46   21   24 1
    47   25   26 1
    48   26   49 1
    49   26   50 1
    50   26   51 1
    51   27   28 2
    52   27   29 1
@<TRIPOS>MOLECULE
CHEMBL383728
   55    58     0     0     0
SMALL
USER_CHARGES

@<TRIPOS>ATOM
      1 C1         -0.0187    1.5258    0.0104 C.3       1 <0>        -0.1519
      2 C2          0.0021   -0.0041    0.0020 C.3       1 <0>        -0.1176
      3 C3          0.7421   -0.5109    1.2415 C.3       1 <0>        -0.0692
      4 C4          0.7625   -2.0177    1.2333 C.ar      1 <0>        -0.1229
      5 C5         -0.2618   -2.7295    1.8327 C.ar      1 <0>         0.2024
      6 C6         -0.2503   -4.1223    1.8294 C.ar      1 <0>        -0.2161
      7 C7          0.7717   -4.8044    1.2346 C.ar      1 <0>         0.0013
      8 C8          1.8143   -4.1024    0.6239 C.ar      1 <0>        -0.2137
      9 C9          1.8057   -2.6968    0.6194 C.ar      1 <0>         0.1308
     10 O1          2.9142   -2.2956   -0.0353 O.3       1 <0>        -0.0559
     11 N1          3.6416   -3.4301   -0.4619 N.2       1 <0>        -0.2261
     12 C10         3.0298   -4.5107   -0.0846 C.2       1 <0>         0.0483
     13 C11         3.4787   -5.9260   -0.3428 C.3       1 <0>         0.5556
     14 F1          2.9526   -6.3671   -1.5617 F         1 <0>        -0.1555
     15 F2          4.8760   -5.9698   -0.3949 F         1 <0>        -0.1568
     16 F3          3.0242   -6.7548    0.6885 F         1 <0>        -0.1552
     17 O2         -1.2855   -2.0651    2.4291 O.3       1 <0>        -0.2936
     18 C12        -2.3113   -2.8583    3.0296 C.3       1 <0>         0.0588
     19 C13        -3.3699   -1.9415    3.6458 C.3       1 <0>        -0.1390
     20 C14        -4.4682   -2.7907    4.2888 C.3       1 <0>         0.1213
     21 N2         -5.4818   -1.9128    4.8788 N.pl3     1 <0>        -0.4894
     22 C15        -5.5103   -1.5133    6.1872 C.2       1 <0>         0.0352
     23 C16        -6.5680   -0.7144    6.3990 C.2       1 <0>        -0.1979
     24 C17        -7.2750   -0.5923    5.1218 C.ar      1 <0>        -0.1032
     25 C18        -6.5445   -1.3622    4.1980 C.ar      1 <0>         0.0837
     26 C19        -6.9775   -1.4348    2.8783 C.ar      1 <0>        -0.1364
     27 C20        -8.1100   -0.7522    2.4912 C.ar      1 <0>        -0.0814
     28 C21        -8.8251    0.0088    3.4054 C.ar      1 <0>        -0.0442
     29 C22        -8.4224    0.0872    4.7090 C.ar      1 <0>        -0.0713
     30 C23       -10.0606    0.7473    2.9591 C.3       1 <0>        -0.1546
     31 C24       -11.2664   -0.1399    3.1327 C.2       1 <0>         0.4954
     32 O3        -11.1346   -1.2674    3.5776 O.co2     1 <0>        -0.6871
     33 O4        -12.3736    0.2698    2.8282 O.co2     1 <0>        -0.7055
     34 H1          1.0039    1.9031    0.0027 H         1 <0>         0.0539
     35 H2         -0.5459    1.8868   -0.8726 H         1 <0>         0.0562
     36 H3         -0.5289    1.8773    0.9072 H         1 <0>         0.0570
     37 H4         -1.0205   -0.3814    0.0098 H         1 <0>         0.0659
     38 H5          0.5123   -0.3556   -0.8948 H         1 <0>         0.0595
     39 H6          1.7647   -0.1336    1.2338 H         1 <0>         0.0749
     40 H7          0.2319   -0.1594    2.1383 H         1 <0>         0.0854
     41 H8         -1.0553   -4.6663    2.3009 H         1 <0>         0.1488
     42 H9          0.7747   -5.8844    1.2363 H         1 <0>         0.1447
     43 H10        -2.7742   -3.4889    2.2706 H         1 <0>         0.0732
     44 H11        -1.8767   -3.4858    3.8077 H         1 <0>         0.0718
     45 H12        -2.9070   -1.3108    4.4049 H         1 <0>         0.0827
     46 H13        -3.8045   -1.3139    2.8677 H         1 <0>         0.0856
     47 H14        -4.9311   -3.4213    3.5298 H         1 <0>         0.0865
     48 H15        -4.0336   -3.4182    5.0669 H         1 <0>         0.0886
     49 H16        -4.7887   -1.7987    6.9384 H         1 <0>         0.1605
     50 H17        -6.8455   -0.2501    7.3338 H         1 <0>         0.1412
     51 H18        -6.4277   -2.0240    2.1593 H         1 <0>         0.1092
     52 H19        -8.4445   -0.8096    1.4658 H         1 <0>         0.1180
     53 H20        -8.9830    0.6824    5.4146 H         1 <0>         0.1143
     54 H21       -10.1827    1.6481    3.5606 H         1 <0>         0.0673
     55 H22        -9.9601    1.0224    1.9091 H         1 <0>         0.0669
@<TRIPOS>BOND
     1    1    2 1
     2    1   34 1
     3    1   35 1
     4    1   36 1
     5    2    3 1
     6    2   37 1
     7    2   38 1
     8    3    4 1
     9    3   39 1
    10    3   40 1
    11    4    9 ar
    12    4    5 ar
    13    5    6 ar
    14    5   17 1
    15    6    7 ar
    16    6   41 1
    17    7    8 ar
    18    7   42 1
    19    8   12 1
    20    8    9 ar
    21    9   10 1
    22   10   11 1
    23   11   12 2
    24   12   13 1
    25   13   14 1
    26   13   15 1
    27   13   16 1
    28   17   18 1
    29   18   19 1
    30   18   43 1
    31   18   44 1
    32   19   20 1
    33   19   45 1
    34   19   46 1
    35   20   21 1
    36   20   47 1
    37   20   48 1
    38   21   25 1
    39   21   22 1
    40   22   23 2
    41   22   49 1
    42   23   24 1
    43   23   50 1
    44   24   29 ar
    45   24   25 ar
    46   25   26 ar
    47   26   27 ar
    48   26   51 1
    49   27   28 ar
    50   27   52 1
    51   28   29 ar
    52   28   30 1
    53   29   53 1
    54   30   31 1
    55   30   54 1
    56   30   55 1
    57   31   32 2
    58   31   33 1
@<TRIPOS>MOLECULE
CHEMBL118577
   53    55     0     0     0
SMALL
USER_CHARGES

@<TRIPOS>ATOM
      1 C1         -0.0173    1.4248    0.0099 C.3       1 <0>         0.0344
      2 O1          0.0021   -0.0041    0.0020 O.3       1 <0>        -0.3268
      3 C2         -1.1855   -0.6297    0.0100 C.2       1 <0>         0.4905
      4 O2         -2.2076    0.0145    0.0232 O.2       1 <0>        -0.5371
      5 C3         -1.2439   -2.1355    0.0025 C.3       1 <0>        -0.1572
      6 C4         -2.7051   -2.5893    0.0140 C.3       1 <0>        -0.0344
      7 C5         -2.7663   -4.0893   -0.1173 C.ar      1 <0>        -0.1124
      8 C6         -2.8310   -4.6703   -1.3703 C.ar      1 <0>        -0.0821
      9 C7         -2.8877   -6.0451   -1.4933 C.ar      1 <0>        -0.1764
     10 C8         -2.8792   -6.8429   -0.3584 C.ar      1 <0>         0.1201
     11 C9         -2.8137   -6.2574    0.8977 C.ar      1 <0>        -0.2310
     12 C10        -2.7520   -4.8824    1.0152 C.ar      1 <0>         0.0224
     13 O3         -2.9353   -8.1955   -0.4768 O.3       1 <0>        -0.3150
     14 C11        -2.9226   -8.9538    0.7344 C.3       1 <0>         0.0615
     15 C12        -2.9915  -10.4459    0.4026 C.3       1 <0>         0.0652
     16 O4         -1.8079  -10.8331   -0.2982 O.3       1 <0>        -0.3041
     17 C13        -1.7093  -12.1367   -0.6693 C.ar      1 <0>         0.1740
     18 C14        -2.7332  -13.0251   -0.3705 C.ar      1 <0>        -0.2589
     19 C15        -2.6322  -14.3495   -0.7458 C.ar      1 <0>        -0.0384
     20 C16        -1.5113  -14.8025   -1.4226 C.ar      1 <0>        -0.1947
     21 C17        -0.4882  -13.9168   -1.7252 C.ar      1 <0>         0.2527
     22 C18        -0.5893  -12.5819   -1.3519 C.ar      1 <0>        -0.2252
     23 N1          0.6507  -14.3456   -2.4158 N.pl3     1 <0>        -0.7509
     24 C19         0.8972  -15.7874   -2.5538 C.3       1 <0>         0.1237
     25 C20        -0.4283  -16.4542   -2.9444 C.3       1 <0>        -0.1389
     26 C21        -1.4340  -16.2557   -1.8107 C.3       1 <0>        -0.0650
     27 C22        -0.5418   -2.6716    1.2234 C.2       1 <0>         0.5066
     28 O5         -0.9004   -3.7263    1.7190 O.co2     1 <0>        -0.6651
     29 O6          0.3847   -2.0506    1.7157 O.co2     1 <0>        -0.6726
     30 H1          1.0053    1.8021    0.0021 H         1 <0>         0.0931
     31 H2         -0.5445    1.7859   -0.8732 H         1 <0>         0.0495
     32 H3         -0.5275    1.7763    0.9067 H         1 <0>         0.0532
     33 H4         -0.7531   -2.5137   -0.8943 H         1 <0>         0.1034
     34 H5         -3.1719   -2.2872    0.9515 H         1 <0>         0.0698
     35 H6         -3.2349   -2.1296   -0.8204 H         1 <0>         0.0629
     36 H7         -2.8376   -4.0488   -2.2535 H         1 <0>         0.1178
     37 H8         -2.9389   -6.4984   -2.4722 H         1 <0>         0.1181
     38 H9         -2.8070   -6.8763    1.7827 H         1 <0>         0.1169
     39 H10        -2.6966   -4.4263    1.9926 H         1 <0>         0.1415
     40 H11        -2.0045   -8.7458    1.2837 H         1 <0>         0.0742
     41 H12        -3.7821   -8.6774    1.3451 H         1 <0>         0.0829
     42 H13        -3.0714  -11.0200    1.3257 H         1 <0>         0.0824
     43 H14        -3.8634  -10.6393   -0.2222 H         1 <0>         0.0733
     44 H15        -3.6101  -12.6795    0.1569 H         1 <0>         0.1241
     45 H16        -3.4313  -15.0367   -0.5102 H         1 <0>         0.1213
     46 H17         0.2073  -11.8927   -1.5902 H         1 <0>         0.1285
     47 H18         1.2673  -13.7014   -2.7975 H         1 <0>         0.4030
     48 H19         1.6413  -15.9620   -3.3309 H         1 <0>         0.0786
     49 H20         1.2497  -16.1940   -1.6059 H         1 <0>         0.0585
     50 H21        -0.8119  -15.9976   -3.8568 H         1 <0>         0.0692
     51 H22        -0.2670  -17.5198   -3.1071 H         1 <0>         0.0751
     52 H23        -1.1225  -16.8428   -0.9467 H         1 <0>         0.0669
     53 H24        -2.4172  -16.5933   -2.1387 H         1 <0>         0.0711
@<TRIPOS>BOND
     1    1    2 1
     2    1   30 1
     3    1   31 1
     4    1   32 1
     5    2    3 1
     6    3    4 2
     7    3    5 1
     8    5    6 1
     9    5   27 1
    10    5   33 1
    11    6    7 1
    12    6   34 1
    13    6   35 1
    14    7   12 ar
    15    7    8 ar
    16    8    9 ar
    17    8   36 1
    18    9   10 ar
    19    9   37 1
    20   10   11 ar
    21   10   13 1
    22   11   12 ar
    23   11   38 1
    24   12   39 1
    25   13   14 1
    26   14   15 1
    27   14   40 1
    28   14   41 1
    29   15   16 1
    30   15   42 1
    31   15   43 1
    32   16   17 1
    33   17   22 ar
    34   17   18 ar
    35   18   19 ar
    36   18   44 1
    37   19   20 ar
    38   19   45 1
    39   20   26 1
    40   20   21 ar
    41   21   22 ar
    42   21   23 1
    43   22   46 1
    44   23   24 1
    45   23   47 1
    46   24   25 1
    47   24   48 1
    48   24   49 1
    49   25   26 1
    50   25   50 1
    51   25   51 1
    52   26   52 1
    53   26   53 1
    54   27   28 2
    55   27   29 1
@<TRIPOS>MOLECULE
CHEMBL118577__1
   53    55     0     0     0
SMALL
USER_CHARGES

@<TRIPOS>ATOM
      1 C1         -0.0173    1.4248    0.0099 C.3       1 <0>         0.0347
      2 O1          0.0021   -0.0041    0.0020 O.3       1 <0>        -0.3485
      3 C2         -1.1855   -0.6297    0.0100 C.2       1 <0>         0.4909
      4 O2         -2.2076    0.0145    0.0232 O.2       1 <0>        -0.5263
      5 C3         -1.2439   -2.1355    0.0025 C.3       1 <0>        -0.1541
      6 C4         -2.7051   -2.5893    0.0140 C.3       1 <0>        -0.0435
      7 C5         -2.7639   -4.0906    0.1303 C.ar      1 <0>        -0.1021
      8 C6         -2.7656   -4.8717   -1.0106 C.ar      1 <0>        -0.0517
      9 C7         -2.8200   -6.2481   -0.9066 C.ar      1 <0>        -0.1458
     10 C8         -2.8725   -6.8466    0.3439 C.ar      1 <0>         0.1175
     11 C9         -2.8702   -6.0607    1.4871 C.ar      1 <0>        -0.2128
     12 C10        -2.8105   -4.6849    1.3779 C.ar      1 <0>        -0.0784
     13 O3         -2.9265   -8.2005    0.4487 O.3       1 <0>        -0.3102
     14 C11        -2.9786   -8.7474    1.7679 C.3       1 <0>         0.0611
     15 C12        -3.0347  -10.2742    1.6852 C.3       1 <0>         0.0646
     16 O4         -1.8177  -10.7656    1.1200 O.3       1 <0>        -0.3042
     17 C13        -1.7040  -12.1121    0.9758 C.ar      1 <0>         0.1732
     18 C14        -2.7446  -12.9444    1.3649 C.ar      1 <0>        -0.2592
     19 C15        -2.6283  -14.3121    1.2201 C.ar      1 <0>        -0.0386
     20 C16        -1.4754  -14.8648    0.6864 C.ar      1 <0>        -0.1940
     21 C17        -0.4354  -14.0358    0.2939 C.ar      1 <0>         0.2532
     22 C18        -0.5516  -12.6580    0.4350 C.ar      1 <0>        -0.2244
     23 N1          0.7364  -14.5667   -0.2565 N.pl3     1 <0>        -0.7505
     24 C19         0.9853  -16.0100   -0.1406 C.3       1 <0>         0.1236
     25 C20        -0.3202  -16.7398   -0.4827 C.3       1 <0>        -0.1392
     26 C21        -1.3825  -16.3618    0.5491 C.3       1 <0>        -0.0651
     27 C22        -0.5653   -2.6584   -1.2374 C.2       1 <0>         0.5174
     28 O5          0.3991   -3.3978   -1.1387 O.co2     1 <0>        -0.6747
     29 O6         -0.9807   -2.3420   -2.3391 O.co2     1 <0>        -0.6840
     30 H1          1.0053    1.8021    0.0021 H         1 <0>         0.0945
     31 H2         -0.5445    1.7859   -0.8732 H         1 <0>         0.0563
     32 H3         -0.5275    1.7763    0.9067 H         1 <0>         0.0529
     33 H4         -0.7361   -2.5233    0.8856 H         1 <0>         0.1009
     34 H5         -3.2188   -2.1386    0.8632 H         1 <0>         0.0675
     35 H6         -3.1897   -2.2772   -0.9111 H         1 <0>         0.0831
     36 H7         -2.7248   -4.4053   -1.9838 H         1 <0>         0.1361
     37 H8         -2.8220   -6.8578   -1.7981 H         1 <0>         0.1269
     38 H9         -2.9110   -6.5242    2.4617 H         1 <0>         0.1213
     39 H10        -2.8042   -4.0727    2.2677 H         1 <0>         0.1207
     40 H11        -2.0894   -8.4460    2.3216 H         1 <0>         0.0732
     41 H12        -3.8676   -8.3784    2.2794 H         1 <0>         0.0825
     42 H13        -3.1638  -10.6877    2.6853 H         1 <0>         0.0827
     43 H14        -3.8738  -10.5734    1.0571 H         1 <0>         0.0743
     44 H15        -3.6465  -12.5211    1.7818 H         1 <0>         0.1236
     45 H16        -3.4406  -14.9552    1.5251 H         1 <0>         0.1213
     46 H17         0.2583  -12.0134    0.1269 H         1 <0>         0.1293
     47 H18         1.3738  -13.9913   -0.7075 H         1 <0>         0.4036
     48 H19         1.7681  -16.3069   -0.8386 H         1 <0>         0.0790
     49 H20         1.2873  -16.2519    0.8785 H         1 <0>         0.0584
     50 H21        -0.6548  -16.4429   -1.4767 H         1 <0>         0.0696
     51 H22        -0.1539  -17.8167   -0.4579 H         1 <0>         0.0753
     52 H23        -1.1178  -16.7957    1.5134 H         1 <0>         0.0669
     53 H24        -2.3484  -16.7545    0.2315 H         1 <0>         0.0712
@<TRIPOS>BOND
     1    1    2 1
     2    1   30 1
     3    1   31 1
     4    1   32 1
     5    2    3 1
     6    3    4 2
     7    3    5 1
     8    5    6 1
     9    5   27 1
    10    5   33 1
    11    6    7 1
    12    6   34 1
    13    6   35 1
    14    7   12 ar
    15    7    8 ar
    16    8    9 ar
    17    8   36 1
    18    9   10 ar
    19    9   37 1
    20   10   11 ar
    21   10   13 1
    22   11   12 ar
    23   11   38 1
    24   12   39 1
    25   13   14 1
    26   14   15 1
    27   14   40 1
    28   14   41 1
    29   15   16 1
    30   15   42 1
    31   15   43 1
    32   16   17 1
    33   17   22 ar
    34   17   18 ar
    35   18   19 ar
    36   18   44 1
    37   19   20 ar
    38   19   45 1
    39   20   26 1
    40   20   21 ar
    41   21   22 ar
    42   21   23 1
    43   22   46 1
    44   23   24 1
    45   23   47 1
    46   24   25 1
    47   24   48 1
    48   24   49 1
    49   25   26 1
    50   25   50 1
    51   25   51 1
    52   26   52 1
    53   26   53 1
    54   27   28 2
    55   27   29 1
@<TRIPOS>MOLECULE
CHEMBL520508
   71    71     0     0     0
SMALL
USER_CHARGES

@<TRIPOS>ATOM
      1 C1         -0.0187    1.5258    0.0104 C.3       1 <0>        -0.1538
      2 C2          0.0021   -0.0041    0.0020 C.3       1 <0>        -0.1253
      3 C3         -1.4333   -0.5336    0.0129 C.3       1 <0>        -0.1219
      4 C4         -1.4126   -2.0635    0.0045 C.3       1 <0>        -0.1192
      5 C5         -2.8479   -2.5931    0.0153 C.3       1 <0>        -0.1187
      6 C6         -2.8272   -4.1229    0.0069 C.3       1 <0>        -0.1288
      7 C7         -4.2626   -4.6525    0.0178 C.3       1 <0>        -0.0880
      8 C8         -4.2418   -6.1823    0.0094 C.3       1 <0>        -0.1441
      9 H1         -3.6486   -6.5504   -0.8278 H         1 <0>         0.1175
     10 C9         -5.6753   -6.7405   -0.0591 C.3       1 <0>         0.1172
     11 H2         -5.7908   -7.3848   -0.9307 H         1 <0>         0.0933
     12 C10        -5.8365   -7.5407    1.2119 C.2       1 <0>         0.0644
     13 C11        -4.6979   -7.4816    1.9328 C.2       1 <0>        -0.2230
     14 C12        -3.6973   -6.7117    1.3175 C.2       1 <0>         0.3981
     15 O1         -2.5849   -6.5045    1.7592 O.2       1 <0>        -0.4374
     16 C13        -7.0184   -8.2535    1.5935 C.1       1 <0>        -0.1669
     17 C14        -7.9873   -8.8379    1.9064 C.1       1 <0>        -0.1021
     18 C15        -9.2022   -9.5707    2.2987 C.3       1 <0>        -0.0171
     19 C16        -8.9725  -10.2533    3.6486 C.3       1 <0>        -0.1158
     20 C17       -10.2353  -11.0149    4.0564 C.3       1 <0>        -0.1221
     21 C18       -10.0056  -11.6976    5.4062 C.3       1 <0>        -0.1208
     22 C19       -11.2684  -12.4592    5.8140 C.3       1 <0>        -0.1264
     23 C20       -11.0387  -13.1419    7.1638 C.3       1 <0>        -0.1539
     24 O2         -6.6240   -5.6726   -0.1015 O.3       1 <0>        -0.3553
     25 C21        -7.8230   -5.9882   -0.8119 C.3       1 <0>         0.0572
     26 C22        -8.7603   -4.7790   -0.7930 C.3       1 <0>        -0.1155
     27 C23       -10.0441   -5.1169   -1.5536 C.3       1 <0>        -0.1165
     28 C24       -10.9813   -3.9077   -1.5347 C.3       1 <0>        -0.0918
     29 C25       -12.2651   -4.2456   -2.2953 C.3       1 <0>        -0.1835
     30 C26       -13.1883   -3.0546   -2.2767 C.2       1 <0>         0.4873
     31 O3        -12.8507   -2.0304   -1.7078 O.co2     1 <0>        -0.6990
     32 O4        -14.2728   -3.1152   -2.8306 O.co2     1 <0>        -0.7093
     33 H3          1.0039    1.9031    0.0027 H         1 <0>         0.0515
     34 H4         -0.5459    1.8868   -0.8726 H         1 <0>         0.0536
     35 H5         -0.5289    1.8773    0.9072 H         1 <0>         0.0533
     36 H6          0.5123   -0.3556   -0.8948 H         1 <0>         0.0594
     37 H7          0.5293   -0.3651    0.8851 H         1 <0>         0.0594
     38 H8         -1.9435   -0.1821    0.9097 H         1 <0>         0.0609
     39 H9         -1.9605   -0.1726   -0.8702 H         1 <0>         0.0613
     40 H10        -0.9024   -2.4150   -0.8923 H         1 <0>         0.0594
     41 H11        -0.8854   -2.4246    0.8875 H         1 <0>         0.0601
     42 H12        -3.3581   -2.2415    0.9121 H         1 <0>         0.0610
     43 H13        -3.3751   -2.2320   -0.8677 H         1 <0>         0.0619
     44 H14        -2.3170   -4.4744   -0.8899 H         1 <0>         0.0597
     45 H15        -2.3000   -4.4840    0.8900 H         1 <0>         0.0743
     46 H16        -4.7728   -4.3010    0.9146 H         1 <0>         0.0713
     47 H17        -4.7898   -4.2914   -0.8653 H         1 <0>         0.0818
     48 H18        -4.5683   -7.9761    2.8842 H         1 <0>         0.1443
     49 H19       -10.0362   -8.8737    2.3813 H         1 <0>         0.0983
     50 H20        -9.4315  -10.3239    1.5450 H         1 <0>         0.0952
     51 H21        -8.1386  -10.9503    3.5660 H         1 <0>         0.0663
     52 H22        -8.7432   -9.5001    4.4023 H         1 <0>         0.0679
     53 H23       -11.0692  -10.3179    4.1389 H         1 <0>         0.0670
     54 H24       -10.4646  -11.7682    3.3026 H         1 <0>         0.0651
     55 H25        -9.1716  -12.3946    5.3237 H         1 <0>         0.0608
     56 H26        -9.7763  -10.9443    6.1600 H         1 <0>         0.0619
     57 H27       -12.1023  -11.7622    5.8966 H         1 <0>         0.0621
     58 H28       -11.4977  -13.2125    5.0602 H         1 <0>         0.0609
     59 H29       -11.9383  -13.6845    7.4543 H         1 <0>         0.0530
     60 H30       -10.2047  -13.8389    7.0813 H         1 <0>         0.0525
     61 H31       -10.8094  -12.3886    7.9176 H         1 <0>         0.0533
     62 H32        -7.5782   -6.2421   -1.8433 H         1 <0>         0.0519
     63 H33        -8.3148   -6.8365   -0.3359 H         1 <0>         0.0494
     64 H34        -9.0051   -4.5252    0.2384 H         1 <0>         0.0698
     65 H35        -8.2685   -3.9307   -1.2690 H         1 <0>         0.0717
     66 H36        -9.7992   -5.3707   -2.5850 H         1 <0>         0.0571
     67 H37       -10.5359   -5.9652   -1.0776 H         1 <0>         0.0560
     68 H38       -11.2262   -3.6539   -0.5034 H         1 <0>         0.0592
     69 H39       -10.4895   -3.0594   -2.0108 H         1 <0>         0.0598
     70 H40       -12.0203   -4.4994   -3.3267 H         1 <0>         0.0545
     71 H41       -12.7569   -5.0939   -1.8193 H         1 <0>         0.0542
@<TRIPOS>BOND
     1    1    2 1
     2    1   33 1
     3    1   34 1
     4    1   35 1
     5    2    3 1
     6    2   36 1
     7    2   37 1
     8    3    4 1
     9    3   38 1
    10    3   39 1
    11    4    5 1
    12    4   40 1
    13    4   41 1
    14    5    6 1
    15    5   42 1
    16    5   43 1
    17    6    7 1
    18    6   44 1
    19    6   45 1
    20    7    8 1
    21    7   46 1
    22    7   47 1
    23    8    9 1
    24    8   14 1
    25    8   10 1
    26   10   11 1
    27   10   12 1
    28   10   24 1
    29   12   13 2
    30   12   16 1
    31   13   14 1
    32   13   48 1
    33   14   15 2
    34   16   17 3
    35   17   18 1
    36   18   19 1
    37   18   49 1
    38   18   50 1
    39   19   20 1
    40   19   51 1
    41   19   52 1
    42   20   21 1
    43   20   53 1
    44   20   54 1
    45   21   22 1
    46   21   55 1
    47   21   56 1
    48   22   23 1
    49   22   57 1
    50   22   58 1
    51   23   59 1
    52   23   60 1
    53   23   61 1
    54   24   25 1
    55   25   26 1
    56   25   62 1
    57   25   63 1
    58   26   27 1
    59   26   64 1
    60   26   65 1
    61   27   28 1
    62   27   66 1
    63   27   67 1
    64   28   29 1
    65   28   68 1
    66   28   69 1
    67   29   30 1
    68   29   70 1
    69   29   71 1
    70   30   31 2
    71   30   32 1
@<TRIPOS>MOLECULE
CHEMBL1089969
   71    75     0     0     0
SMALL
USER_CHARGES

@<TRIPOS>ATOM
      1 C1          0.0636    1.5033    0.0008 C.3       1 <0>        -0.1101
      2 C2          0.0621   -0.0037   -0.0050 C.ar      1 <0>        -0.0968
      3 C3          1.2238   -0.6961    0.2828 C.ar      1 <0>        -0.1053
      4 C4          1.2250   -2.0775    0.2781 C.ar      1 <0>        -0.1137
      5 C5          0.0593   -2.7700   -0.0151 C.ar      1 <0>         0.1164
      6 C6         -1.1051   -2.0730   -0.3030 C.ar      1 <0>        -0.1186
      7 C7         -1.1023   -0.6916   -0.2923 C.ar      1 <0>        -0.1095
      8 O1          0.0580   -4.1294   -0.0207 O.3       1 <0>        -0.3027
      9 C8          0.1763   -4.7666    1.1599 C.2       1 <0>         0.6612
     10 O2          0.1716   -4.1319    2.1961 O.2       1 <0>        -0.5754
     11 N1          0.2999   -6.1083    1.1920 N.am      1 <0>        -0.5504
     12 C9          0.4286   -6.8015    2.4762 C.3       1 <0>         0.1776
     13 C10        -0.9405   -7.1677    2.9887 C.ar      1 <0>        -0.0634
     14 C11        -1.6365   -6.2834    3.7924 C.ar      1 <0>        -0.1280
     15 C12        -2.8926   -6.6163    4.2642 C.ar      1 <0>        -0.0860
     16 C13        -3.4555   -7.8342    3.9341 C.ar      1 <0>        -0.2083
     17 C14        -2.7593   -8.7229    3.1281 C.ar      1 <0>         0.1233
     18 C15        -1.5013   -8.3839    2.6508 C.ar      1 <0>        -0.1302
     19 O3         -3.3108   -9.9214    2.8019 O.3       1 <0>        -0.3080
     20 C16        -4.6113  -10.2007    3.3241 C.3       1 <0>         0.1475
     21 C17        -5.0567  -11.5637    2.8604 C.2       1 <0>        -0.0175
     22 C18        -5.7369  -11.8333    1.7310 C.2       1 <0>        -0.0052
     23 O4         -5.9359  -13.1657    1.6920 O.3       1 <0>        -0.1915
     24 C19        -5.3771  -13.6947    2.7945 C.2       1 <0>         0.2282
     25 N2         -4.8406  -12.7243    3.4971 N.2       1 <0>        -0.4488
     26 C20        -5.3633  -15.1279    3.1518 C.ar      1 <0>        -0.0138
     27 C21        -4.7511  -15.5474    4.3352 C.ar      1 <0>        -0.0652
     28 C22        -4.7392  -16.8834    4.6675 C.ar      1 <0>        -0.1115
     29 C23        -5.3379  -17.8181    3.8227 C.ar      1 <0>        -0.0270
     30 C24        -5.9492  -17.4004    2.6404 C.ar      1 <0>        -0.1118
     31 C25        -5.9676  -16.0641    2.3093 C.ar      1 <0>        -0.0849
     32 C26        -5.3241  -19.2568    4.1814 C.ar      1 <0>        -0.0502
     33 C27        -4.7188  -19.6771    5.3646 C.ar      1 <0>        -0.1071
     34 C28        -4.7090  -21.0174    5.6933 C.ar      1 <0>        -0.1181
     35 C29        -5.2979  -21.9432    4.8509 C.ar      1 <0>        -0.1167
     36 C30        -5.9001  -21.5319    3.6754 C.ar      1 <0>        -0.1187
     37 C31        -5.9215  -20.1936    3.3394 C.ar      1 <0>        -0.1078
     38 C32        -6.1920  -10.8314    0.7013 C.3       1 <0>        -0.0744
     39 C33         0.3056   -6.8735   -0.0573 C.3       1 <0>         0.0403
     40 C34         1.7207   -7.0075   -0.5579 C.2       1 <0>         0.4823
     41 O5          2.6393   -6.5099    0.0706 O.co2     1 <0>        -0.6832
     42 O6          1.9469   -7.6134   -1.5914 O.co2     1 <0>        -0.6965
     43 H1         -0.1802    1.8631    1.0004 H         1 <0>         0.0685
     44 H2          1.0506    1.8668   -0.2854 H         1 <0>         0.0654
     45 H3         -0.6784    1.8701   -0.7084 H         1 <0>         0.0646
     46 H4          2.1311   -0.1565    0.5109 H         1 <0>         0.1265
     47 H5          2.1328   -2.6180    0.5022 H         1 <0>         0.1315
     48 H6         -2.0138   -2.6099   -0.5319 H         1 <0>         0.1285
     49 H7         -2.0094   -0.1485   -0.5127 H         1 <0>         0.1266
     50 H8          1.0206   -7.7069    2.3426 H         1 <0>         0.0954
     51 H9          0.9224   -6.1471    3.1944 H         1 <0>         0.0963
     52 H10        -1.1980   -5.3312    4.0522 H         1 <0>         0.1320
     53 H11        -3.4342   -5.9240    4.8917 H         1 <0>         0.1230
     54 H12        -4.4365   -8.0941    4.3035 H         1 <0>         0.1237
     55 H13        -0.9593   -9.0721    2.0193 H         1 <0>         0.1319
     56 H14        -4.5775  -10.1806    4.4134 H         1 <0>         0.0809
     57 H15        -5.3150   -9.4480    2.9685 H         1 <0>         0.0798
     58 H16        -4.2868  -14.8240    4.9891 H         1 <0>         0.1422
     59 H17        -4.2659  -17.2079    5.5824 H         1 <0>         0.1356
     60 H18        -6.4121  -18.1249    1.9869 H         1 <0>         0.1339
     61 H19        -6.4451  -15.7404    1.3963 H         1 <0>         0.1338
     62 H20        -4.2580  -18.9553    6.0227 H         1 <0>         0.1276
     63 H21        -4.2402  -21.3442    6.6097 H         1 <0>         0.1253
     64 H22        -5.2872  -22.9911    5.1117 H         1 <0>         0.1230
     65 H23        -6.3584  -22.2591    3.0215 H         1 <0>         0.1248
     66 H24        -6.3959  -19.8731    2.4236 H         1 <0>         0.1267
     67 H25        -5.4150  -10.7071   -0.0529 H         1 <0>         0.0951
     68 H26        -7.1058  -11.1883    0.2263 H         1 <0>         0.0829
     69 H27        -6.3843   -9.8742    1.1860 H         1 <0>         0.0949
     70 H28        -0.1118   -7.8644    0.1217 H         1 <0>         0.0785
     71 H29        -0.2963   -6.3551   -0.8037 H         1 <0>         0.0814
@<TRIPOS>BOND
     1    1    2 1
     2    1   43 1
     3    1   44 1
     4    1   45 1
     5    2    7 ar
     6    2    3 ar
     7    3    4 ar
     8    3   46 1
     9    4    5 ar
    10    4   47 1
    11    5    6 ar
    12    5    8 1
    13    6    7 ar
    14    6   48 1
    15    7   49 1
    16    8    9 1
    17    9   10 2
    18    9   11 am
    19   11   12 1
    20   11   39 1
    21   12   13 1
    22   12   50 1
    23   12   51 1
    24   13   18 ar
    25   13   14 ar
    26   14   15 ar
    27   14   52 1
    28   15   16 ar
    29   15   53 1
    30   16   17 ar
    31   16   54 1
    32   17   18 ar
    33   17   19 1
    34   18   55 1
    35   19   20 1
    36   20   21 1
    37   20   56 1
    38   20   57 1
    39   21   25 1
    40   21   22 2
    41   22   23 1
    42   22   38 1
    43   23   24 1
    44   24   25 2
    45   24   26 1
    46   26   31 ar
    47   26   27 ar
    48   27   28 ar
    49   27   58 1
    50   28   29 ar
    51   28   59 1
    52   29   30 ar
    53   29   32 1
    54   30   31 ar
    55   30   60 1
    56   31   61 1
    57   32   37 ar
    58   32   33 ar
    59   33   34 ar
    60   33   62 1
    61   34   35 ar
    62   34   63 1
    63   35   36 ar
    64   35   64 1
    65   36   37 ar
    66   36   65 1
    67   37   66 1
    68   38   67 1
    69   38   68 1
    70   38   69 1
    71   39   40 1
    72   39   70 1
    73   39   71 1
    74   40   41 2
    75   40   42 1
@<TRIPOS>MOLECULE
CHEMBL593796
   54    57     0     0     0
SMALL
USER_CHARGES

@<TRIPOS>ATOM
      1 C1         -0.0885    0.7535    0.1037 C.3       1 <0>        -0.0686
      2 C2         -0.1451   -0.7492    0.0054 C.2       1 <0>        -0.0429
      3 C3         -1.2577   -1.5034   -0.0540 C.2       1 <0>        -0.0023
      4 N1         -0.8796   -2.7881   -0.1341 N.2       1 <0>        -0.4602
      5 C4          0.4315   -2.8409   -0.1253 C.2       1 <0>         0.2246
      6 O1          0.9094   -1.5870   -0.0452 O.3       1 <0>        -0.1954
      7 C5          1.2464   -4.0722   -0.1979 C.ar      1 <0>        -0.0147
      8 C6          0.6258   -5.3188   -0.2906 C.ar      1 <0>        -0.0712
      9 C7          1.3921   -6.4641   -0.3585 C.ar      1 <0>        -0.1206
     10 C8          2.7728   -6.3786   -0.3347 C.ar      1 <0>        -0.1026
     11 C9          3.3942   -5.1460   -0.2424 C.ar      1 <0>        -0.1211
     12 C10         2.6397   -3.9926   -0.1797 C.ar      1 <0>        -0.0916
     13 C11        -2.6764   -0.9955   -0.0337 C.3       1 <0>        -0.0366
     14 C12        -3.1434   -0.7294   -1.4662 C.3       1 <0>        -0.1068
     15 C13        -4.5837   -0.2137   -1.4456 C.3       1 <0>        -0.0735
     16 C14        -5.0437    0.0483   -2.8566 C.ar      1 <0>        -0.0943
     17 C15        -4.8458    1.2911   -3.4285 C.ar      1 <0>        -0.1158
     18 C16        -5.2678    1.5315   -4.7228 C.ar      1 <0>        -0.1139
     19 C17        -5.8871    0.5289   -5.4453 C.ar      1 <0>        -0.0778
     20 C18        -6.0841   -0.7143   -4.8737 C.ar      1 <0>        -0.1063
     21 C19        -5.6583   -0.9559   -3.5809 C.ar      1 <0>        -0.1136
     22 C20        -6.3480    0.7912   -6.8559 C.3       1 <0>        -0.0713
     23 C21        -5.1798    0.5815   -7.8214 C.3       1 <0>         0.1020
     24 C22        -5.6027    0.9724   -9.2140 C.2       1 <0>         0.5001
     25 O2         -6.6980    1.4745   -9.4001 O.co2     1 <0>        -0.6687
     26 O3         -4.8495    0.7865  -10.1546 O.co2     1 <0>        -0.6739
     27 N2         -4.7833   -0.8288   -7.8092 N.pl3     1 <0>        -0.0986
     28 N3         -5.5535   -1.8070   -8.1312 N.2       1 <0>        -0.2756
     29 C23        -4.8824   -2.9299   -8.0091 C.2       1 <0>        -0.0544
     30 C24        -3.6049   -2.5670   -7.5762 C.2       1 <0>        -0.0520
     31 N4         -3.6160   -1.2568   -7.4804 N.2       1 <0>        -0.2888
     32 H1          0.9521    1.0770    0.1294 H         1 <0>         0.0779
     33 H2         -0.5845    1.1932   -0.7616 H         1 <0>         0.0917
     34 H3         -0.5922    1.0772    1.0146 H         1 <0>         0.0895
     35 H4         -0.4519   -5.3869   -0.3089 H         1 <0>         0.1385
     36 H5          0.9131   -7.4294   -0.4299 H         1 <0>         0.1323
     37 H6          3.3681   -7.2782   -0.3881 H         1 <0>         0.1279
     38 H7          4.4724   -5.0862   -0.2236 H         1 <0>         0.1301
     39 H8          3.1260   -3.0307   -0.1126 H         1 <0>         0.1295
     40 H9         -3.3232   -1.7424    0.4265 H         1 <0>         0.0819
     41 H10        -2.7230   -0.0706    0.5412 H         1 <0>         0.0802
     42 H11        -2.4965    0.0175   -1.9265 H         1 <0>         0.0640
     43 H12        -3.0968   -1.6543   -2.0412 H         1 <0>         0.0680
     44 H13        -5.2305   -0.9607   -0.9854 H         1 <0>         0.0705
     45 H14        -4.6303    0.7111   -0.8706 H         1 <0>         0.0704
     46 H15        -4.3620    2.0745   -2.8640 H         1 <0>         0.1173
     47 H16        -5.1139    2.5027   -5.1693 H         1 <0>         0.1216
     48 H17        -6.5683   -1.4975   -5.4381 H         1 <0>         0.1159
     49 H18        -5.8089   -1.9283   -3.1357 H         1 <0>         0.1156
     50 H19        -7.1556    0.1039   -7.1080 H         1 <0>         0.0863
     51 H20        -6.7060    1.8176   -6.9362 H         1 <0>         0.1015
     52 H21        -4.3366    1.1986   -7.5110 H         1 <0>         0.1049
     53 H22        -5.2444   -3.9287   -8.2033 H         1 <0>         0.1860
     54 H23        -2.7766   -3.2278   -7.3673 H         1 <0>         0.1846
@<TRIPOS>BOND
     1    1    2 1
     2    1   32 1
     3    1   33 1
     4    1   34 1
     5    2    6 1
     6    2    3 2
     7    3    4 1
     8    3   13 1
     9    4    5 2
    10    5    6 1
    11    5    7 1
    12    7   12 ar
    13    7    8 ar
    14    8    9 ar
    15    8   35 1
    16    9   10 ar
    17    9   36 1
    18   10   11 ar
    19   10   37 1
    20   11   12 ar
    21   11   38 1
    22   12   39 1
    23   13   14 1
    24   13   40 1
    25   13   41 1
    26   14   15 1
    27   14   42 1
    28   14   43 1
    29   15   16 1
    30   15   44 1
    31   15   45 1
    32   16   21 ar
    33   16   17 ar
    34   17   18 ar
    35   17   46 1
    36   18   19 ar
    37   18   47 1
    38   19   20 ar
    39   19   22 1
    40   20   21 ar
    41   20   48 1
    42   21   49 1
    43   22   23 1
    44   22   50 1
    45   22   51 1
    46   23   24 1
    47   23   27 1
    48   23   52 1
    49   24   25 2
    50   24   26 1
    51   27   31 1
    52   27   28 1
    53   28   29 2
    54   29   30 1
    55   29   53 1
    56   30   31 2
    57   30   54 1
@<TRIPOS>MOLECULE
CHEMBL593796__1
   54    57     0     0     0
SMALL
USER_CHARGES

@<TRIPOS>ATOM
      1 C1         -0.0184    1.5028    0.0103 C.3       1 <0>        -0.0676
      2 C2          0.0021   -0.0041    0.0020 C.2       1 <0>        -0.0448
      3 C3         -1.0705   -0.8164    0.0025 C.2       1 <0>        -0.0008
      4 N1         -0.6270   -2.0826   -0.0064 N.2       1 <0>        -0.4591
      5 C4          0.6851   -2.0676   -0.0123 C.2       1 <0>         0.2243
      6 O1          1.0981   -0.7883   -0.0131 O.3       1 <0>        -0.1959
      7 C5          1.5619   -3.2577   -0.0227 C.ar      1 <0>        -0.0140
      8 C6          1.0059   -4.5378   -0.0330 C.ar      1 <0>        -0.0707
      9 C7          1.8298   -5.6443   -0.0432 C.ar      1 <0>        -0.1203
     10 C8          3.2044   -5.4871   -0.0433 C.ar      1 <0>        -0.1032
     11 C9          3.7620   -4.2209   -0.0327 C.ar      1 <0>        -0.1218
     12 C10         2.9493   -3.1060   -0.0282 C.ar      1 <0>        -0.0919
     13 C11        -2.5133   -0.3814    0.0119 C.3       1 <0>        -0.0362
     14 C12        -3.0085   -0.2260   -1.4274 C.3       1 <0>        -0.1094
     15 C13        -4.4733    0.2157   -1.4179 C.3       1 <0>        -0.0724
     16 C14        -4.9610    0.3688   -2.8355 C.ar      1 <0>        -0.0910
     17 C15        -4.8340    1.5837   -3.4827 C.ar      1 <0>        -0.1224
     18 C16        -5.2814    1.7242   -4.7831 C.ar      1 <0>        -0.1136
     19 C17        -5.8554    0.6496   -5.4365 C.ar      1 <0>        -0.0727
     20 C18        -5.9816   -0.5655   -4.7895 C.ar      1 <0>        -0.0849
     21 C19        -5.5303   -0.7071   -3.4906 C.ar      1 <0>        -0.1141
     22 C20        -6.3440    0.8031   -6.8538 C.3       1 <0>        -0.0717
     23 C21        -5.2116    0.4597   -7.8236 C.3       1 <0>         0.0976
     24 C22        -4.8525   -0.9969   -7.6812 C.2       1 <0>         0.5007
     25 O2         -5.6921   -1.8553   -7.8930 O.co2     1 <0>        -0.6578
     26 O3         -3.7224   -1.3171   -7.3541 O.co2     1 <0>        -0.6755
     27 N2         -5.6482    0.7230   -9.1970 N.pl3     1 <0>        -0.1155
     28 N3         -6.6557    0.1597   -9.7640 N.2       1 <0>        -0.2511
     29 C23        -6.7637    0.6230  -10.9886 C.2       1 <0>        -0.0611
     30 C24        -5.7214    1.5397  -11.1443 C.2       1 <0>        -0.0501
     31 N4         -5.0795    1.5529   -9.9980 N.2       1 <0>        -0.3039
     32 H1          1.0042    1.8801    0.0026 H         1 <0>         0.0771
     33 H2         -0.5455    1.8639   -0.8728 H         1 <0>         0.0917
     34 H3         -0.5286    1.8543    0.9071 H         1 <0>         0.0889
     35 H4         -0.0670   -4.6619   -0.0326 H         1 <0>         0.1392
     36 H5          1.4008   -6.6354   -0.0508 H         1 <0>         0.1323
     37 H6          3.8450   -6.3565   -0.0513 H         1 <0>         0.1275
     38 H7          4.8357   -4.1050   -0.0321 H         1 <0>         0.1296
     39 H8          3.3858   -2.1181   -0.0249 H         1 <0>         0.1293
     40 H9         -3.1156   -1.1316    0.5243 H         1 <0>         0.0820
     41 H10        -2.6018    0.5726    0.5316 H         1 <0>         0.0795
     42 H11        -2.4061    0.5242   -1.9398 H         1 <0>         0.0644
     43 H12        -2.9200   -1.1800   -1.9471 H         1 <0>         0.0709
     44 H13        -5.0756   -0.5344   -0.9055 H         1 <0>         0.0710
     45 H14        -4.5618    1.1697   -0.8982 H         1 <0>         0.0693
     46 H15        -4.3855    2.4232   -2.9723 H         1 <0>         0.1163
     47 H16        -5.1827    2.6735   -5.2885 H         1 <0>         0.1170
     48 H17        -6.4304   -1.4048   -5.2999 H         1 <0>         0.1294
     49 H18        -5.6255   -1.6575   -2.9865 H         1 <0>         0.1185
     50 H19        -7.1842    0.1297   -7.0233 H         1 <0>         0.0924
     51 H20        -6.6640    1.8320   -7.0184 H         1 <0>         0.0642
     52 H21        -4.3396    1.0728   -7.5957 H         1 <0>         0.1040
     53 H22        -7.5060    0.3506  -11.7243 H         1 <0>         0.1881
     54 H23        -5.4927    2.1216  -12.0249 H         1 <0>         0.1882
@<TRIPOS>BOND
     1    1    2 1
     2    1   32 1
     3    1   33 1
     4    1   34 1
     5    2    6 1
     6    2    3 2
     7    3    4 1
     8    3   13 1
     9    4    5 2
    10    5    6 1
    11    5    7 1
    12    7   12 ar
    13    7    8 ar
    14    8    9 ar
    15    8   35 1
    16    9   10 ar
    17    9   36 1
    18   10   11 ar
    19   10   37 1
    20   11   12 ar
    21   11   38 1
    22   12   39 1
    23   13   14 1
    24   13   40 1
    25   13   41 1
    26   14   15 1
    27   14   42 1
    28   14   43 1
    29   15   16 1
    30   15   44 1
    31   15   45 1
    32   16   21 ar
    33   16   17 ar
    34   17   18 ar
    35   17   46 1
    36   18   19 ar
    37   18   47 1
    38   19   20 ar
    39   19   22 1
    40   20   21 ar
    41   20   48 1
    42   21   49 1
    43   22   23 1
    44   22   50 1
    45   22   51 1
    46   23   24 1
    47   23   27 1
    48   23   52 1
    49   24   25 2
    50   24   26 1
    51   27   31 1
    52   27   28 1
    53   28   29 2
    54   29   30 1
    55   29   53 1
    56   30   31 2
    57   30   54 1
@<TRIPOS>MOLECULE
CHEMBL1085795
   63    65     0     0     0
SMALL
USER_CHARGES

@<TRIPOS>ATOM
      1 C1         -2.1366    1.3471   -4.8661 C.3       1 <0>        -0.1201
      2 C2         -1.9580   -0.1134   -4.5404 C.ar      1 <0>        -0.0790
      3 C3         -1.6546   -1.0126   -5.5464 C.ar      1 <0>        -0.1108
      4 C4         -1.4904   -2.3516   -5.2513 C.ar      1 <0>        -0.1100
      5 C5         -1.6298   -2.7949   -3.9424 C.ar      1 <0>         0.1128
      6 C6         -1.9341   -1.8895   -2.9346 C.ar      1 <0>        -0.0915
      7 C7         -2.0923   -0.5506   -3.2357 C.ar      1 <0>        -0.1034
      8 C8         -2.0863   -2.3661   -1.5131 C.3       1 <0>        -0.1224
      9 N1         -1.4645   -4.1510   -3.6401 N.am      1 <0>        -0.6396
     10 C9         -1.7791   -5.0887   -4.5556 C.2       1 <0>         0.5032
     11 O1         -2.1394   -4.7563   -5.6650 O.2       1 <0>        -0.5132
     12 C10        -1.6832   -6.5502   -4.2009 C.3       1 <0>        -0.0354
     13 N2         -2.0763   -7.3623   -5.3602 N.4       1 <0>        -0.3724
     14 C11        -2.0983   -8.7810   -4.9795 C.3       1 <0>         0.0533
     15 C12        -3.1811   -9.0098   -3.9566 C.ar      1 <0>        -0.2313
     16 C13        -2.8729   -8.9897   -2.6089 C.ar      1 <0>        -0.0587
     17 C14        -3.8636   -9.1996   -1.6693 C.ar      1 <0>        -0.1626
     18 C15        -5.1688   -9.4303   -2.0790 C.ar      1 <0>         0.1875
     19 C16        -5.4756   -9.4494   -3.4318 C.ar      1 <0>        -0.2233
     20 C17        -4.4823   -9.2338   -4.3673 C.ar      1 <0>        -0.0542
     21 O2         -6.1451   -9.6375   -1.1566 O.3       1 <0>        -0.2601
     22 C18        -7.4837   -9.7521   -1.6435 C.3       1 <0>         0.0337
     23 C19        -7.8341   -8.5125   -2.4690 C.3       1 <0>        -0.1787
     24 C20        -7.6021  -10.9997   -2.5213 C.3       1 <0>        -0.1697
     25 C21        -8.4337   -9.8653   -0.4791 C.2       1 <0>         0.5144
     26 O3         -8.0043   -9.8492    0.6619 O.co2     1 <0>        -0.6661
     27 O4         -9.6318   -9.9729   -0.6780 O.co2     1 <0>        -0.6702
     28 C22        -1.1099   -7.1624   -6.4484 C.3       1 <0>         0.0802
     29 C23        -1.5971   -7.8663   -7.6886 C.2       1 <0>        -0.1022
     30 C24        -2.3400   -7.3153   -8.6653 C.2       1 <0>        -0.1329
     31 C25        -2.5668   -8.3263   -9.6272 C.2       1 <0>        -0.2195
     32 C26        -1.9490   -9.4346   -9.1808 C.2       1 <0>         0.0095
     33 O5         -1.3584   -9.1485   -8.0090 O.3       1 <0>        -0.1708
     34 H1         -1.1761    1.8567   -4.7885 H         1 <0>         0.0746
     35 H2         -2.5209    1.4487   -5.8810 H         1 <0>         0.0695
     36 H3         -2.8418    1.7923   -4.1642 H         1 <0>         0.0700
     37 H4         -1.5463   -0.6673   -6.5640 H         1 <0>         0.1286
     38 H5         -1.2541   -3.0534   -6.0375 H         1 <0>         0.1427
     39 H6         -2.3249    0.1547   -2.4516 H         1 <0>         0.1315
     40 H7         -1.1204   -2.3227   -1.0099 H         1 <0>         0.0768
     41 H8         -2.7976   -1.7271   -0.9898 H         1 <0>         0.0788
     42 H9         -2.4510   -3.3933   -1.5114 H         1 <0>         0.0637
     43 H10        -1.1235   -4.4163   -2.7716 H         1 <0>         0.4197
     44 H11        -0.6574   -6.7896   -3.9206 H         1 <0>         0.1634
     45 H12        -2.3481   -6.7654   -3.3644 H         1 <0>         0.1692
     46 H13        -2.2965   -9.3907   -5.8610 H         1 <0>         0.1361
     47 H14        -1.1333   -9.0584   -4.5552 H         1 <0>         0.1344
     48 H15        -1.8566   -8.8102   -2.2905 H         1 <0>         0.1315
     49 H16        -3.6221   -9.1846   -0.6168 H         1 <0>         0.1420
     50 H17        -6.4910   -9.6288   -3.7532 H         1 <0>         0.1626
     51 H18        -4.7214   -9.2442   -5.4205 H         1 <0>         0.1251
     52 H19        -7.0587   -8.3423   -3.2159 H         1 <0>         0.0653
     53 H20        -8.7912   -8.6666   -2.9675 H         1 <0>         0.0798
     54 H21        -7.9022   -7.6456   -1.8118 H         1 <0>         0.0613
     55 H22        -7.7400  -11.8769   -1.8893 H         1 <0>         0.0654
     56 H23        -8.4575  -10.8945   -3.1887 H         1 <0>         0.0751
     57 H24        -6.6931  -11.1163   -3.1114 H         1 <0>         0.0600
     58 H25        -1.0075   -6.0965   -6.6521 H         1 <0>         0.1661
     59 H26        -0.1428   -7.5707   -6.1550 H         1 <0>         0.1403
     60 H27        -2.6956   -6.2963   -8.7064 H         1 <0>         0.1619
     61 H28        -3.1287   -8.2278  -10.5443 H         1 <0>         0.1613
     62 H29        -1.9279  -10.3912   -9.6817 H         1 <0>         0.2163
     63 H30        -2.9948   -7.0831   -5.6706 H         1 <0>         0.4306
@<TRIPOS>BOND
     1    1    2 1
     2    1   34 1
     3    1   35 1
     4    1   36 1
     5    2    7 ar
     6    2    3 ar
     7    3    4 ar
     8    3   37 1
     9    4    5 ar
    10    4   38 1
    11    5    6 ar
    12    5    9 1
    13    6    7 ar
    14    6    8 1
    15    7   39 1
    16    8   40 1
    17    8   41 1
    18    8   42 1
    19    9   10 am
    20    9   43 1
    21   10   11 2
    22   10   12 1
    23   12   13 1
    24   12   44 1
    25   12   45 1
    26   13   14 1
    27   13   28 1
    28   13   63 1
    29   14   15 1
    30   14   46 1
    31   14   47 1
    32   15   20 ar
    33   15   16 ar
    34   16   17 ar
    35   16   48 1
    36   17   18 ar
    37   17   49 1
    38   18   19 ar
    39   18   21 1
    40   19   20 ar
    41   19   50 1
    42   20   51 1
    43   21   22 1
    44   22   23 1
    45   22   24 1
    46   22   25 1
    47   23   52 1
    48   23   53 1
    49   23   54 1
    50   24   55 1
    51   24   56 1
    52   24   57 1
    53   25   26 2
    54   25   27 1
    55   28   29 1
    56   28   58 1
    57   28   59 1
    58   29   33 1
    59   29   30 2
    60   30   31 1
    61   30   60 1
    62   31   32 2
    63   31   61 1
    64   32   33 1
    65   32   62 1
@<TRIPOS>MOLECULE
CHEMBL144489
   58    60     0     0     0
SMALL
USER_CHARGES

@<TRIPOS>ATOM
      1 C1         -1.0769   -1.1601   -0.0847 C.3       1 <0>        -0.1431
      2 C2         -1.1167   -2.6261    0.3513 C.3       1 <0>         0.0659
      3 O1         -2.4639   -2.9981    0.6490 O.3       1 <0>        -0.3676
      4 C3         -2.6128   -4.3560    1.0685 C.3       1 <0>         0.0330
      5 H1         -1.7051   -4.6807    1.5772 H         1 <0>         0.0489
      6 C4         -3.8012   -4.4667    2.0258 C.3       1 <0>        -0.0606
      7 C5         -3.5069   -3.6908    3.2837 C.ar      1 <0>        -0.0964
      8 C6         -2.8810   -4.3132    4.3480 C.ar      1 <0>        -0.0821
      9 C7         -2.6105   -3.6042    5.5024 C.ar      1 <0>        -0.1515
     10 C8         -2.9672   -2.2666    5.5931 C.ar      1 <0>         0.1116
     11 C9         -3.5947   -1.6443    4.5237 C.ar      1 <0>        -0.2085
     12 C10        -3.8583   -2.3563    3.3696 C.ar      1 <0>        -0.0621
     13 O2         -2.7026   -1.5671    6.7279 O.3       1 <0>        -0.3144
     14 C11        -3.0979   -0.1941    6.7506 C.3       1 <0>         0.0892
     15 C12        -2.7262    0.4137    8.0786 C.2       1 <0>        -0.1397
     16 C13        -3.5929    1.1858    8.7205 C.2       1 <0>        -0.0803
     17 C14        -4.8981    1.5592    8.0660 C.3       1 <0>        -0.1214
     18 C15        -3.2789    1.6797   10.0767 C.ar      1 <0>        -0.0447
     19 C16        -3.1480    0.7785   11.1355 C.ar      1 <0>        -0.0999
     20 C17        -2.8553    1.2398   12.3994 C.ar      1 <0>        -0.1084
     21 C18        -2.6900    2.6067   12.6225 C.ar      1 <0>        -0.0475
     22 C19        -2.8205    3.5075   11.5656 C.ar      1 <0>        -0.1097
     23 C20        -3.1071    3.0475   10.2998 C.ar      1 <0>        -0.1032
     24 C21        -2.3757    3.1026   13.9843 C.ar      1 <0>        -0.0440
     25 C22        -2.2393    2.2046   15.0416 C.ar      1 <0>        -0.1115
     26 C23        -1.9464    2.6718   16.3067 C.ar      1 <0>        -0.1174
     27 C24        -1.7881    4.0283   16.5265 C.ar      1 <0>        -0.1208
     28 C25        -1.9227    4.9241   15.4811 C.ar      1 <0>        -0.1179
     29 C26        -2.2099    4.4680   14.2107 C.ar      1 <0>        -0.1119
     30 C27        -2.8542   -5.2300   -0.1352 C.2       1 <0>         0.4772
     31 O3         -2.8950   -4.7359   -1.2490 O.co2     1 <0>        -0.6806
     32 O4         -3.0087   -6.4313    0.0049 O.co2     1 <0>        -0.6997
     33 H2         -0.0493   -0.8763   -0.3118 H         1 <0>         0.0597
     34 H3         -1.6950   -1.0282   -0.9728 H         1 <0>         0.0623
     35 H4         -1.4581   -0.5312    0.7199 H         1 <0>         0.0531
     36 H5         -0.7355   -3.2549   -0.4533 H         1 <0>         0.0471
     37 H6         -0.4987   -2.7579    1.2394 H         1 <0>         0.0292
     38 H7         -4.6920   -4.0594    1.5477 H         1 <0>         0.0726
     39 H8         -3.9698   -5.5141    2.2760 H         1 <0>         0.0884
     40 H9         -2.6035   -5.3545    4.2768 H         1 <0>         0.1287
     41 H10        -2.1222   -4.0910    6.3336 H         1 <0>         0.1251
     42 H11        -3.8734   -0.6031    4.5920 H         1 <0>         0.1212
     43 H12        -4.3429   -1.8712    2.5352 H         1 <0>         0.1262
     44 H13        -2.5899    0.3436    5.9500 H         1 <0>         0.0707
     45 H14        -4.1763   -0.1240    6.6081 H         1 <0>         0.0713
     46 H15        -1.7541    0.2206    8.5077 H         1 <0>         0.1217
     47 H16        -5.6304    0.7709    8.2402 H         1 <0>         0.0744
     48 H17        -5.2630    2.4944    8.4907 H         1 <0>         0.0680
     49 H18        -4.7448    1.6824    6.9939 H         1 <0>         0.0699
     50 H19        -3.2767   -0.2798   10.9631 H         1 <0>         0.1282
     51 H20        -2.7540    0.5431   13.2184 H         1 <0>         0.1271
     52 H21        -2.6927    4.5657   11.7394 H         1 <0>         0.1263
     53 H22        -3.2034    3.7447    9.4806 H         1 <0>         0.1265
     54 H23        -2.3631    1.1453   14.8712 H         1 <0>         0.1259
     55 H24        -1.8408    1.9770   17.1268 H         1 <0>         0.1242
     56 H25        -1.5588    4.3894   17.5182 H         1 <0>         0.1222
     57 H26        -1.7988    5.9822   15.6586 H         1 <0>         0.1239
     58 H27        -2.3101    5.1678   13.3942 H         1 <0>         0.1254
@<TRIPOS>BOND
     1    1    2 1
     2    1   33 1
     3    1   34 1
     4    1   35 1
     5    2    3 1
     6    2   36 1
     7    2   37 1
     8    3    4 1
     9    4    5 1
    10    4    6 1
    11    4   30 1
    12    6    7 1
    13    6   38 1
    14    6   39 1
    15    7   12 ar
    16    7    8 ar
    17    8    9 ar
    18    8   40 1
    19    9   10 ar
    20    9   41 1
    21   10   11 ar
    22   10   13 1
    23   11   12 ar
    24   11   42 1
    25   12   43 1
    26   13   14 1
    27   14   15 1
    28   14   44 1
    29   14   45 1
    30   15   16 2
    31   15   46 1
    32   16   17 1
    33   16   18 1
    34   17   47 1
    35   17   48 1
    36   17   49 1
    37   18   23 ar
    38   18   19 ar
    39   19   20 ar
    40   19   50 1
    41   20   21 ar
    42   20   51 1
    43   21   22 ar
    44   21   24 1
    45   22   23 ar
    46   22   52 1
    47   23   53 1
    48   24   29 ar
    49   24   25 ar
    50   25   26 ar
    51   25   54 1
    52   26   27 ar
    53   26   55 1
    54   27   28 ar
    55   27   56 1
    56   28   29 ar
    57   28   57 1
    58   29   58 1
    59   30   31 2
    60   30   32 1
@<TRIPOS>MOLECULE
CHEMBL491751
   62    66     0     0     0
SMALL
USER_CHARGES

@<TRIPOS>ATOM
      1 C1         -0.0184    1.5028    0.0103 C.3       1 <0>        -0.0708
      2 C2          0.0021   -0.0041    0.0020 C.2       1 <0>        -0.0341
      3 C3         -1.0705   -0.8164    0.0025 C.2       1 <0>        -0.0044
      4 N1         -0.6270   -2.0826   -0.0064 N.2       1 <0>        -0.4577
      5 C4          0.6851   -2.0676   -0.0123 C.2       1 <0>         0.2280
      6 O1          1.0981   -0.7883   -0.0131 O.3       1 <0>        -0.1938
      7 C5          1.5619   -3.2577   -0.0227 C.ar      1 <0>        -0.0163
      8 C6          1.0059   -4.5378   -0.0330 C.ar      1 <0>        -0.0703
      9 C7          1.8298   -5.6443   -0.0432 C.ar      1 <0>        -0.1202
     10 C8          3.2044   -5.4871   -0.0433 C.ar      1 <0>        -0.1016
     11 C9          3.7620   -4.2209   -0.0327 C.ar      1 <0>        -0.1218
     12 C10         2.9493   -3.1060   -0.0282 C.ar      1 <0>        -0.0910
     13 C11        -2.5133   -0.3814    0.0119 C.3       1 <0>        -0.0343
     14 C12        -3.0085   -0.2260   -1.4274 C.3       1 <0>         0.0691
     15 O2         -4.3766    0.1865   -1.4185 O.3       1 <0>        -0.3175
     16 C13        -4.9731    0.3716   -2.6255 C.ar      1 <0>         0.1134
     17 C14        -4.2579    0.1549   -3.7946 C.ar      1 <0>        -0.2067
     18 C15        -4.8665    0.3431   -5.0201 C.ar      1 <0>        -0.0708
     19 C16        -6.1876    0.7473   -5.0825 C.ar      1 <0>        -0.0968
     20 C17        -6.9022    0.9643   -3.9192 C.ar      1 <0>        -0.0441
     21 C18        -6.2996    0.7718   -2.6908 C.ar      1 <0>        -0.1378
     22 C19        -8.3415    1.4051   -3.9909 C.3       1 <0>         0.0154
     23 C20        -9.2372    0.1935   -4.0169 C.2       1 <0>         0.0244
     24 C21        -9.6820   -0.5008   -5.1451 C.2       1 <0>         0.0907
     25 N2        -10.4342   -1.4787   -4.6922 N.2       1 <0>        -0.2968
     26 N3        -10.4658   -1.4146   -3.4083 N.pl3     1 <0>        -0.1244
     27 N4         -9.7558   -0.4303   -2.9830 N.2       1 <0>        -0.2913
     28 C22       -11.1737   -2.3006   -2.5839 C.ar      1 <0>         0.1684
     29 C23       -11.1472   -2.1397   -1.2051 C.ar      1 <0>        -0.1141
     30 C24       -11.8460   -3.0138   -0.3956 C.ar      1 <0>        -0.1031
     31 C25       -12.5711   -4.0487   -0.9571 C.ar      1 <0>        -0.1280
     32 C26       -12.5994   -4.2116   -2.3299 C.ar      1 <0>        -0.1016
     33 C27       -11.9073   -3.3372   -3.1449 C.ar      1 <0>        -0.1115
     34 C28        -9.3647   -0.1913   -6.5854 C.3       1 <0>        -0.1156
     35 C29        -8.1184   -0.9325   -6.9956 C.2       1 <0>         0.5027
     36 O3         -7.5412   -1.6458   -6.1928 O.co2     1 <0>        -0.6727
     37 O4         -7.6871   -0.8188   -8.1304 O.co2     1 <0>        -0.7009
     38 H1          1.0042    1.8801    0.0026 H         1 <0>         0.0798
     39 H2         -0.5455    1.8639   -0.8728 H         1 <0>         0.0925
     40 H3         -0.5286    1.8543    0.9071 H         1 <0>         0.0925
     41 H4         -0.0670   -4.6619   -0.0326 H         1 <0>         0.1395
     42 H5          1.4008   -6.6354   -0.0508 H         1 <0>         0.1328
     43 H6          3.8450   -6.3565   -0.0513 H         1 <0>         0.1282
     44 H7          4.8357   -4.1050   -0.0321 H         1 <0>         0.1302
     45 H8          3.3858   -2.1181   -0.0249 H         1 <0>         0.1298
     46 H9         -3.1156   -1.1316    0.5243 H         1 <0>         0.0939
     47 H10        -2.6018    0.5726    0.5316 H         1 <0>         0.0921
     48 H11        -2.4061    0.5242   -1.9398 H         1 <0>         0.0592
     49 H12        -2.9200   -1.1800   -1.9471 H         1 <0>         0.0641
     50 H13        -3.2261   -0.1604   -3.7464 H         1 <0>         0.1179
     51 H14        -4.3102    0.1749   -5.9304 H         1 <0>         0.1217
     52 H15        -6.6617    0.8940   -6.0418 H         1 <0>         0.1263
     53 H16        -6.8596    0.9372   -1.7823 H         1 <0>         0.1246
     54 H17        -8.5789    2.0139   -3.1184 H         1 <0>         0.0877
     55 H18        -8.4972    1.9916   -4.8964 H         1 <0>         0.0948
     56 H19       -10.5804   -1.3320   -0.7660 H         1 <0>         0.1396
     57 H20       -11.8257   -2.8891    0.6770 H         1 <0>         0.1315
     58 H21       -13.1161   -4.7314   -0.3220 H         1 <0>         0.1267
     59 H22       -13.1667   -5.0208   -2.7656 H         1 <0>         0.1321
     60 H23       -11.9335   -3.4622   -4.2174 H         1 <0>         0.1414
     61 H24       -10.1972   -0.5035   -7.2160 H         1 <0>         0.0774
     62 H25        -9.2043    0.8807   -6.6999 H         1 <0>         0.0814
@<TRIPOS>BOND
     1    1    2 1
     2    1   38 1
     3    1   39 1
     4    1   40 1
     5    2    6 1
     6    2    3 2
     7    3    4 1
     8    3   13 1
     9    4    5 2
    10    5    6 1
    11    5    7 1
    12    7   12 ar
    13    7    8 ar
    14    8    9 ar
    15    8   41 1
    16    9   10 ar
    17    9   42 1
    18   10   11 ar
    19   10   43 1
    20   11   12 ar
    21   11   44 1
    22   12   45 1
    23   13   14 1
    24   13   46 1
    25   13   47 1
    26   14   15 1
    27   14   48 1
    28   14   49 1
    29   15   16 1
    30   16   21 ar
    31   16   17 ar
    32   17   18 ar
    33   17   50 1
    34   18   19 ar
    35   18   51 1
    36   19   20 ar
    37   19   52 1
    38   20   21 ar
    39   20   22 1
    40   21   53 1
    41   22   23 1
    42   22   54 1
    43   22   55 1
    44   23   27 2
    45   23   24 1
    46   24   25 2
    47   24   34 1
    48   25   26 1
    49   26   27 1
    50   26   28 1
    51   28   33 ar
    52   28   29 ar
    53   29   30 ar
    54   29   56 1
    55   30   31 ar
    56   30   57 1
    57   31   32 ar
    58   31   58 1
    59   32   33 ar
    60   32   59 1
    61   33   60 1
    62   34   35 1
    63   34   61 1
    64   34   62 1
    65   35   36 2
    66   35   37 1
@<TRIPOS>MOLECULE
CHEMBL491750
   59    63     0     0     0
SMALL
USER_CHARGES

@<TRIPOS>ATOM
      1 C1         -0.0184    1.5028    0.0103 C.3       1 <0>        -0.0721
      2 C2          0.0021   -0.0041    0.0020 C.2       1 <0>        -0.0319
      3 C3         -1.0705   -0.8164    0.0025 C.2       1 <0>        -0.0064
      4 N1         -0.6270   -2.0826   -0.0064 N.2       1 <0>        -0.4584
      5 C4          0.6851   -2.0676   -0.0123 C.2       1 <0>         0.2284
      6 O1          1.0981   -0.7883   -0.0131 O.3       1 <0>        -0.1934
      7 C5          1.5619   -3.2577   -0.0227 C.ar      1 <0>        -0.0168
      8 C6          1.0059   -4.5378   -0.0330 C.ar      1 <0>        -0.0706
      9 C7          1.8298   -5.6443   -0.0432 C.ar      1 <0>        -0.1205
     10 C8          3.2044   -5.4871   -0.0433 C.ar      1 <0>        -0.1014
     11 C9          3.7620   -4.2209   -0.0327 C.ar      1 <0>        -0.1213
     12 C10         2.9493   -3.1060   -0.0282 C.ar      1 <0>        -0.0907
     13 C11        -2.5133   -0.3814    0.0119 C.3       1 <0>        -0.0345
     14 C12        -3.0085   -0.2260   -1.4274 C.3       1 <0>         0.0678
     15 O2         -4.3766    0.1865   -1.4185 O.3       1 <0>        -0.3146
     16 C13        -4.9731    0.3716   -2.6256 C.ar      1 <0>         0.1193
     17 C14        -4.2563    0.1545   -3.7945 C.ar      1 <0>        -0.2025
     18 C15        -4.8591    0.3415   -5.0241 C.ar      1 <0>        -0.0790
     19 C16        -6.1775    0.7452   -5.0965 C.ar      1 <0>        -0.1189
     20 C17        -6.9037    0.9652   -3.9280 C.ar      1 <0>         0.0416
     21 C18        -6.2977    0.7713   -2.6894 C.ar      1 <0>        -0.1248
     22 C19        -8.3211    1.3998   -4.0033 C.2       1 <0>         0.0506
     23 C20        -8.9014    2.2475   -4.9656 C.2       1 <0>         0.1027
     24 N2        -10.1676    2.3488   -4.6347 N.2       1 <0>        -0.2946
     25 N3        -10.3812    1.6469   -3.5793 N.pl3     1 <0>        -0.1179
     26 N4         -9.3038    1.0671   -3.1839 N.2       1 <0>        -0.2810
     27 C21       -11.6255    1.5255   -2.9460 C.ar      1 <0>         0.1638
     28 C22       -11.7517    0.7457   -1.8040 C.ar      1 <0>        -0.1125
     29 C23       -12.9793    0.6279   -1.1821 C.ar      1 <0>        -0.1032
     30 C24       -14.0822    1.2852   -1.6959 C.ar      1 <0>        -0.1255
     31 C25       -13.9597    2.0625   -2.8331 C.ar      1 <0>        -0.1017
     32 C26       -12.7335    2.1892   -3.4559 C.ar      1 <0>        -0.1086
     33 C27        -8.2115    2.9037   -6.1337 C.3       1 <0>        -0.1166
     34 C28        -8.2828    1.9954   -7.3341 C.2       1 <0>         0.5026
     35 O3         -8.8420    0.9153   -7.2490 O.co2     1 <0>        -0.6825
     36 O4         -7.7813    2.3406   -8.3904 O.co2     1 <0>        -0.6940
     37 H1          1.0042    1.8801    0.0026 H         1 <0>         0.0804
     38 H2         -0.5455    1.8639   -0.8728 H         1 <0>         0.0931
     39 H3         -0.5286    1.8543    0.9071 H         1 <0>         0.0931
     40 H4         -0.0670   -4.6619   -0.0326 H         1 <0>         0.1392
     41 H5          1.4008   -6.6354   -0.0508 H         1 <0>         0.1327
     42 H6          3.8450   -6.3565   -0.0513 H         1 <0>         0.1283
     43 H7          4.8357   -4.1050   -0.0321 H         1 <0>         0.1305
     44 H8          3.3858   -2.1181   -0.0249 H         1 <0>         0.1300
     45 H9         -3.1156   -1.1316    0.5243 H         1 <0>         0.0946
     46 H10        -2.6018    0.5726    0.5316 H         1 <0>         0.0928
     47 H11        -2.4061    0.5242   -1.9398 H         1 <0>         0.0614
     48 H12        -2.9200   -1.1800   -1.9471 H         1 <0>         0.0657
     49 H13        -3.2248   -0.1611   -3.7429 H         1 <0>         0.1243
     50 H14        -4.2973    0.1716   -5.9307 H         1 <0>         0.1301
     51 H15        -6.6457    0.8909   -6.0588 H         1 <0>         0.1466
     52 H16        -6.8578    0.9363   -1.7808 H         1 <0>         0.1317
     53 H17       -10.8909    0.2316   -1.4026 H         1 <0>         0.1403
     54 H18       -13.0781    0.0216   -0.2939 H         1 <0>         0.1323
     55 H19       -15.0412    1.1910   -1.2083 H         1 <0>         0.1275
     56 H20       -14.8228    2.5746   -3.2320 H         1 <0>         0.1331
     57 H21       -12.6374    2.8002   -4.3412 H         1 <0>         0.1427
     58 H22        -8.7046    3.8483   -6.3630 H         1 <0>         0.0820
     59 H23        -7.1678    3.0906   -5.8810 H         1 <0>         0.0868
@<TRIPOS>BOND
     1    1    2 1
     2    1   37 1
     3    1   38 1
     4    1   39 1
     5    2    6 1
     6    2    3 2
     7    3    4 1
     8    3   13 1
     9    4    5 2
    10    5    6 1
    11    5    7 1
    12    7   12 ar
    13    7    8 ar
    14    8    9 ar
    15    8   40 1
    16    9   10 ar
    17    9   41 1
    18   10   11 ar
    19   10   42 1
    20   11   12 ar
    21   11   43 1
    22   12   44 1
    23   13   14 1
    24   13   45 1
    25   13   46 1
    26   14   15 1
    27   14   47 1
    28   14   48 1
    29   15   16 1
    30   16   21 ar
    31   16   17 ar
    32   17   18 ar
    33   17   49 1
    34   18   19 ar
    35   18   50 1
    36   19   20 ar
    37   19   51 1
    38   20   21 ar
    39   20   22 1
    40   21   52 1
    41   22   26 2
    42   22   23 1
    43   23   24 2
    44   23   33 1
    45   24   25 1
    46   25   26 1
    47   25   27 1
    48   27   32 ar
    49   27   28 ar
    50   28   29 ar
    51   28   53 1
    52   29   30 ar
    53   29   54 1
    54   30   31 ar
    55   30   55 1
    56   31   32 ar
    57   31   56 1
    58   32   57 1
    59   33   34 1
    60   33   58 1
    61   33   59 1
    62   34   35 2
    63   34   36 1
@<TRIPOS>MOLECULE
CHEMBL148319
   58    59     0     0     0
SMALL
USER_CHARGES

@<TRIPOS>ATOM
      1 C1         -0.0187    1.5258    0.0104 C.3       1 <0>        -0.1538
      2 C2          0.0021   -0.0041    0.0020 C.3       1 <0>        -0.1255
      3 C3          0.7182   -0.4975   -1.2568 C.3       1 <0>        -0.1212
      4 C4          0.7390   -2.0273   -1.2652 C.3       1 <0>        -0.1170
      5 C5          1.4551   -2.5207   -2.5240 C.3       1 <0>        -0.1455
      6 C6          1.4758   -4.0506   -2.5324 C.3       1 <0>         0.1367
      7 H1          0.4580   -4.4283   -2.4352 H         1 <0>         0.1059
      8 C7          2.0707   -4.5378   -3.8285 C.2       1 <0>        -0.1976
      9 C8          3.0937   -5.3559   -3.8130 C.2       1 <0>        -0.1336
     10 C9          3.6886   -5.8431   -5.1091 C.3       1 <0>        -0.0542
     11 H2          3.1524   -5.4055   -5.9511 H         1 <0>         0.0886
     12 C10         5.1755   -5.4598   -5.1793 C.3       1 <0>         0.1110
     13 H3          5.4713   -4.9434   -4.2660 H         1 <0>         0.0562
     14 C11         5.9651   -6.7752   -5.3206 C.3       1 <0>        -0.1533
     15 C12         5.0307   -7.8615   -4.7424 C.3       1 <0>        -0.0899
     16 H4          5.1331   -7.9830   -3.6641 H         1 <0>         0.0852
     17 C13         3.6089   -7.3776   -5.1778 C.3       1 <0>        -0.0769
     18 H5          2.8073   -7.7884   -4.5640 H         1 <0>         0.0895
     19 C14         3.5373   -7.8135   -6.6580 C.3       1 <0>        -0.0840
     20 C15         4.2805   -9.1346   -6.7139 C.2       1 <0>        -0.1452
     21 C16         4.1288  -10.0723   -7.6159 C.2       1 <0>        -0.1330
     22 C17         3.1371   -9.8876   -8.7354 C.3       1 <0>        -0.0934
     23 C18         3.8459  -10.0666  -10.0795 C.3       1 <0>        -0.0859
     24 C19         2.8390   -9.8791  -11.2161 C.3       1 <0>        -0.1839
     25 C20         3.5372  -10.0554  -12.5399 C.2       1 <0>         0.4880
     26 O1          4.7296  -10.3076  -12.5713 O.co2     1 <0>        -0.6997
     27 O2          2.9096   -9.9457  -13.5794 O.co2     1 <0>        -0.7097
     28 C21         5.2528   -9.1713   -5.5201 C.3       1 <0>        -0.0824
     29 O3          5.4118   -4.6222   -6.3127 O.3       1 <0>        -0.5640
     30 O4          2.2655   -4.5223   -1.4388 O.3       1 <0>        -0.5584
     31 H6          1.0039    1.9031    0.0027 H         1 <0>         0.0529
     32 H7         -0.5459    1.8868   -0.8726 H         1 <0>         0.0532
     33 H8         -0.5289    1.8773    0.9072 H         1 <0>         0.0526
     34 H9          0.5293   -0.3651    0.8851 H         1 <0>         0.0604
     35 H10        -1.0205   -0.3814    0.0098 H         1 <0>         0.0604
     36 H11         0.1910   -0.1364   -2.1398 H         1 <0>         0.0604
     37 H12         1.7408   -0.1202   -1.2645 H         1 <0>         0.0598
     38 H13         1.2661   -2.3884   -0.3821 H         1 <0>         0.0676
     39 H14        -0.2836   -2.4046   -1.2575 H         1 <0>         0.0610
     40 H15         0.9279   -2.1597   -3.4071 H         1 <0>         0.0728
     41 H16         2.4777   -2.1435   -2.5317 H         1 <0>         0.0655
     42 H17         1.6537   -4.2124   -4.7701 H         1 <0>         0.1162
     43 H18         3.5108   -5.6813   -2.8714 H         1 <0>         0.1170
     44 H19         6.1792   -6.9783   -6.3699 H         1 <0>         0.0831
     45 H20         6.8903   -6.7259   -4.7465 H         1 <0>         0.0655
     46 H21         2.4998   -7.9492   -6.9633 H         1 <0>         0.0692
     47 H22         4.0269   -7.0761   -7.2942 H         1 <0>         0.0810
     48 H23         4.7145  -10.9778   -7.5573 H         1 <0>         0.1092
     49 H24         2.3422  -10.6277   -8.6425 H         1 <0>         0.0641
     50 H25         2.7096   -8.8864   -8.6806 H         1 <0>         0.0620
     51 H26         4.6408   -9.3265  -10.1724 H         1 <0>         0.0581
     52 H27         4.2734  -11.0678  -10.1343 H         1 <0>         0.0582
     53 H28         2.0442  -10.6191  -11.1231 H         1 <0>         0.0547
     54 H29         2.4115   -8.8779  -11.1612 H         1 <0>         0.0544
     55 H30         6.2852   -9.2269   -5.8652 H         1 <0>         0.0709
     56 H31         5.0273  -10.0248   -4.8807 H         1 <0>         0.0669
     57 H32         6.3331   -4.3458   -6.4123 H         1 <0>         0.3771
     58 H33         3.1852   -4.2243   -1.4604 H         1 <0>         0.3728
@<TRIPOS>BOND
     1    1    2 1
     2    1   31 1
     3    1   32 1
     4    1   33 1
     5    2    3 1
     6    2   34 1
     7    2   35 1
     8    3    4 1
     9    3   36 1
    10    3   37 1
    11    4    5 1
    12    4   38 1
    13    4   39 1
    14    5    6 1
    15    5   40 1
    16    5   41 1
    17    6    7 1
    18    6    8 1
    19    6   30 1
    20    8    9 2
    21    8   42 1
    22    9   10 1
    23    9   43 1
    24   10   11 1
    25   10   17 1
    26   10   12 1
    27   12   13 1
    28   12   14 1
    29   12   29 1
    30   14   15 1
    31   14   44 1
    32   14   45 1
    33   15   16 1
    34   15   28 1
    35   15   17 1
    36   17   18 1
    37   17   19 1
    38   19   20 1
    39   19   46 1
    40   19   47 1
    41   20   21 2
    42   20   28 1
    43   21   22 1
    44   21   48 1
    45   22   23 1
    46   22   49 1
    47   22   50 1
    48   23   24 1
    49   23   51 1
    50   23   52 1
    51   24   25 1
    52   24   53 1
    53   24   54 1
    54   25   26 2
    55   25   27 1
    56   28   55 1
    57   28   56 1
    58   29   57 1
    59   30   58 1
@<TRIPOS>MOLECULE
CHEMBL1083110
   70    72     0     0     0
SMALL
USER_CHARGES

@<TRIPOS>ATOM
      1 C1          8.1495   -8.6311    1.3986 C.3       1 <0>        -0.1195
      2 C2          6.7698   -8.1466    1.0342 C.ar      1 <0>        -0.0826
      3 C3          6.0323   -8.8200    0.0775 C.ar      1 <0>        -0.1057
      4 C4          4.7677   -8.3786   -0.2587 C.ar      1 <0>        -0.1160
      5 C5          4.2365   -7.2573    0.3654 C.ar      1 <0>         0.1172
      6 C6          4.9793   -6.5836    1.3258 C.ar      1 <0>        -0.1008
      7 C7          6.2418   -7.0331    1.6611 C.ar      1 <0>        -0.1034
      8 C8          4.4068   -5.3665    2.0055 C.3       1 <0>        -0.1181
      9 N1          2.9557   -6.8071    0.0267 N.am      1 <0>        -0.6430
     10 C9          2.4426   -7.0863   -1.1879 C.2       1 <0>         0.4989
     11 O1          3.0854   -7.7396   -1.9822 O.2       1 <0>        -0.4999
     12 C10         1.0701   -6.5868   -1.5590 C.3       1 <0>        -0.0357
     13 N2          0.6987   -7.1112   -2.8800 N.4       1 <0>        -0.3694
     14 C11        -0.5506   -6.4790   -3.3243 C.3       1 <0>         0.0415
     15 C12        -0.3272   -5.0002   -3.5094 C.ar      1 <0>        -0.1977
     16 C13        -0.6213   -4.1237   -2.4812 C.ar      1 <0>        -0.0606
     17 C14        -0.4178   -2.7677   -2.6486 C.ar      1 <0>        -0.1512
     18 C15         0.0825   -2.2855   -3.8493 C.ar      1 <0>         0.1615
     19 C16         0.3773   -3.1670   -4.8793 C.ar      1 <0>        -0.2052
     20 C17         0.1769   -4.5227   -4.7051 C.ar      1 <0>        -0.0465
     21 O2          0.2832   -0.9518   -4.0166 O.3       1 <0>        -0.3098
     22 C18         0.8008   -0.5269   -5.2790 C.3       1 <0>         0.0213
     23 C19         0.5081   -8.5652   -2.7937 C.3       1 <0>         0.0493
     24 C20         0.2480   -9.1203   -4.1704 C.ar      1 <0>        -0.2217
     25 C21        -1.0472   -9.2057   -4.6468 C.ar      1 <0>        -0.0686
     26 C22        -1.2883   -9.7146   -5.9083 C.ar      1 <0>        -0.1728
     27 C23        -0.2294  -10.1397   -6.6975 C.ar      1 <0>         0.2096
     28 C24         1.0692  -10.0525   -6.2174 C.ar      1 <0>        -0.1587
     29 C25         1.3054   -9.5380   -4.9572 C.ar      1 <0>        -0.0612
     30 O3         -0.4640  -10.6411   -7.9386 O.3       1 <0>        -0.2917
     31 C26         0.6773  -10.9204   -8.7519 C.3       1 <0>         0.0264
     32 C27         0.2169  -11.4298  -10.1192 C.3       1 <0>        -0.1191
     33 C28         1.4989   -9.6426   -8.9338 C.3       1 <0>        -0.1734
     34 C29         1.5251  -11.9719   -8.0835 C.2       1 <0>         0.4809
     35 O4          1.1836  -12.4387   -7.0102 O.co2     1 <0>        -0.6720
     36 O5          2.5525  -12.3557   -8.6161 O.co2     1 <0>        -0.6733
     37 H1          8.0783   -9.3497    2.2151 H         1 <0>         0.0742
     38 H2          8.6071   -9.1093    0.5326 H         1 <0>         0.0702
     39 H3          8.7609   -7.7848    1.7117 H         1 <0>         0.0684
     40 H4          6.4459   -9.6919   -0.4075 H         1 <0>         0.1304
     41 H5          4.1926   -8.9045   -1.0064 H         1 <0>         0.1505
     42 H6          6.8184   -6.5120    2.4110 H         1 <0>         0.1295
     43 H7          3.8654   -5.6714    2.9010 H         1 <0>         0.0750
     44 H8          5.2160   -4.6907    2.2825 H         1 <0>         0.0764
     45 H9          3.7251   -4.8571    1.3245 H         1 <0>         0.0604
     46 H10         2.4371   -6.2941    0.6661 H         1 <0>         0.4167
     47 H11         0.3471   -6.9259   -0.8171 H         1 <0>         0.1594
     48 H12         1.0758   -5.4972   -1.5891 H         1 <0>         0.1589
     49 H13        -0.8647   -6.9202   -4.2702 H         1 <0>         0.1483
     50 H14        -1.3252   -6.6383   -2.5741 H         1 <0>         0.1354
     51 H15        -1.0108   -4.4996   -1.5467 H         1 <0>         0.1386
     52 H16        -0.6483   -2.0834   -1.8455 H         1 <0>         0.1421
     53 H17         0.7669   -2.7941   -5.8150 H         1 <0>         0.1402
     54 H18         0.4103   -5.2098   -5.5050 H         1 <0>         0.1370
     55 H19         1.7714   -0.9927   -5.4491 H         1 <0>         0.0616
     56 H20         0.1126   -0.8212   -6.0714 H         1 <0>         0.0625
     57 H21         0.9130    0.5573   -5.2793 H         1 <0>         0.1088
     58 H22         1.4054   -9.0254   -2.3800 H         1 <0>         0.1381
     59 H23        -0.3426   -8.7824   -2.1477 H         1 <0>         0.1278
     60 H24        -1.8711   -8.8746   -4.0320 H         1 <0>         0.1254
     61 H25        -2.3002   -9.7817   -6.2796 H         1 <0>         0.1323
     62 H26         1.8952  -10.3828   -6.8298 H         1 <0>         0.1522
     63 H27         2.3166   -9.4658   -4.5847 H         1 <0>         0.1254
     64 H28        -0.3260  -10.6394  -10.6374 H         1 <0>         0.0536
     65 H29         1.0855  -11.7213  -10.7096 H         1 <0>         0.0835
     66 H30        -0.4368  -12.2916   -9.9846 H         1 <0>         0.0606
     67 H31         1.8567   -9.2994   -7.9631 H         1 <0>         0.0651
     68 H32         2.3501   -9.8474   -9.5832 H         1 <0>         0.0798
     69 H33         0.8753   -8.8708   -9.3849 H         1 <0>         0.0538
     70 H34         1.4328   -6.9068   -3.5415 H         1 <0>         0.4288
@<TRIPOS>BOND
     1    1    2 1
     2    1   37 1
     3    1   38 1
     4    1   39 1
     5    2    7 ar
     6    2    3 ar
     7    3    4 ar
     8    3   40 1
     9    4    5 ar
    10    4   41 1
    11    5    6 ar
    12    5    9 1
    13    6    7 ar
    14    6    8 1
    15    7   42 1
    16    8   43 1
    17    8   44 1
    18    8   45 1
    19    9   10 am
    20    9   46 1
    21   10   11 2
    22   10   12 1
    23   12   13 1
    24   12   47 1
    25   12   48 1
    26   13   14 1
    27   13   23 1
    28   13   70 1
    29   14   15 1
    30   14   49 1
    31   14   50 1
    32   15   20 ar
    33   15   16 ar
    34   16   17 ar
    35   16   51 1
    36   17   18 ar
    37   17   52 1
    38   18   19 ar
    39   18   21 1
    40   19   20 ar
    41   19   53 1
    42   20   54 1
    43   21   22 1
    44   22   55 1
    45   22   56 1
    46   22   57 1
    47   23   24 1
    48   23   58 1
    49   23   59 1
    50   24   29 ar
    51   24   25 ar
    52   25   26 ar
    53   25   60 1
    54   26   27 ar
    55   26   61 1
    56   27   28 ar
    57   27   30 1
    58   28   29 ar
    59   28   62 1
    60   29   63 1
    61   30   31 1
    62   31   32 1
    63   31   33 1
    64   31   34 1
    65   32   64 1
    66   32   65 1
    67   32   66 1
    68   33   67 1
    69   33   68 1
    70   33   69 1
    71   34   35 2
    72   34   36 1
@<TRIPOS>MOLECULE
CHEMBL271394
   56    58     0     0     0
SMALL
USER_CHARGES

@<TRIPOS>ATOM
      1 C1         -0.0184    1.5028    0.0103 C.3       1 <0>        -0.1190
      2 C2          0.0021   -0.0041    0.0020 C.ar      1 <0>        -0.0712
      3 C3          0.0057   -0.6863   -1.2019 C.ar      1 <0>        -0.1183
      4 C4          0.0249   -2.0655   -1.2165 C.ar      1 <0>        -0.0731
      5 C5          0.0405   -2.7729   -0.0133 C.ar      1 <0>        -0.0136
      6 C6          0.0368   -2.0788    1.1974 C.ar      1 <0>        -0.0880
      7 C7          0.0229   -0.6990    1.1979 C.ar      1 <0>        -0.0889
      8 C8          0.0250    0.0523    2.5042 C.3       1 <0>        -0.1161
      9 C9          0.0606   -4.2511   -0.0214 C.2       1 <0>         0.2212
     10 N1          0.0708   -5.0113   -1.0909 N.2       1 <0>        -0.4608
     11 C10         0.0882   -6.2958   -0.7039 C.2       1 <0>        -0.0031
     12 C11         0.0887   -6.3210    0.6413 C.2       1 <0>        -0.0397
     13 O1          0.0773   -5.0418    1.0656 O.3       1 <0>        -0.1962
     14 C12         0.1051   -7.5510    1.5119 C.3       1 <0>        -0.0706
     15 C13         0.1040   -7.4967   -1.6141 C.3       1 <0>        -0.0367
     16 C14         1.5517   -7.8841   -1.9224 C.3       1 <0>        -0.1121
     17 C15         1.5676   -9.1034   -2.8465 C.3       1 <0>        -0.1160
     18 C16         3.0153   -9.4908   -3.1547 C.3       1 <0>        -0.1062
     19 C17         3.0313  -10.7101   -4.0788 C.3       1 <0>        -0.1551
     20 C18         2.4517  -11.9216   -3.3405 C.3       1 <0>         0.0521
     21 O2          3.3176  -12.2608   -2.2530 O.3       1 <0>        -0.3657
     22 C19         4.6586  -12.5528   -2.6536 C.3       1 <0>         0.2070
     23 O3          5.2115  -11.4205   -3.3289 O.3       1 <0>        -0.3571
     24 C20         4.4740  -11.0244   -4.4894 C.3       1 <0>         0.0505
     25 C21         4.6584  -13.7585   -3.5955 C.3       1 <0>        -0.1867
     26 C22         5.4895  -12.8667   -1.4361 C.2       1 <0>         0.5281
     27 O4          5.2420  -13.8557   -0.7676 O.co2     1 <0>        -0.6722
     28 O5          6.4093  -12.1315   -1.1198 O.co2     1 <0>        -0.6624
     29 H1          1.0042    1.8801    0.0026 H         1 <0>         0.0738
     30 H2         -0.5455    1.8639   -0.8728 H         1 <0>         0.0686
     31 H3         -0.5286    1.8543    0.9071 H         1 <0>         0.0705
     32 H4         -0.0068   -0.1377   -2.1321 H         1 <0>         0.1312
     33 H5          0.0273   -2.5968   -2.1568 H         1 <0>         0.1381
     34 H6          0.0485   -2.6203    2.1317 H         1 <0>         0.1298
     35 H7         -1.0020    0.2195    2.8289 H         1 <0>         0.0719
     36 H8          0.5540   -0.5309    3.2580 H         1 <0>         0.0682
     37 H9          0.5246    1.0119    2.3706 H         1 <0>         0.0709
     38 H10         1.1366   -7.8340    1.7216 H         1 <0>         0.0900
     39 H11        -0.4115   -7.3403    2.4483 H         1 <0>         0.0775
     40 H12        -0.3981   -8.3685    0.9953 H         1 <0>         0.0953
     41 H13        -0.3988   -8.3306   -1.1242 H         1 <0>         0.0804
     42 H14        -0.4132   -7.2556   -2.5428 H         1 <0>         0.0795
     43 H15         2.0545   -7.0503   -2.4123 H         1 <0>         0.0634
     44 H16         2.0688   -8.1253   -0.9937 H         1 <0>         0.0655
     45 H17         1.0648   -9.9373   -2.3565 H         1 <0>         0.0652
     46 H18         1.0505   -8.8623   -3.7752 H         1 <0>         0.0575
     47 H19         3.5181   -8.6570   -3.6446 H         1 <0>         0.0580
     48 H20         3.5325   -9.7320   -2.2260 H         1 <0>         0.0798
     49 H21         2.4356  -10.5025   -4.9677 H         1 <0>         0.0774
     50 H22         1.4620  -11.6753   -2.9558 H         1 <0>         0.0899
     51 H23         2.3787  -12.7661   -4.0258 H         1 <0>         0.0448
     52 H24         4.4777  -11.8348   -5.2183 H         1 <0>         0.0445
     53 H25         4.9307  -10.1363   -4.9264 H         1 <0>         0.0873
     54 H26         4.0574  -13.5314   -4.4761 H         1 <0>         0.0474
     55 H27         5.6807  -13.9811   -3.9010 H         1 <0>         0.0660
     56 H28         4.2368  -14.6217   -3.0806 H         1 <0>         0.0775
@<TRIPOS>BOND
     1    1    2 1
     2    1   29 1
     3    1   30 1
     4    1   31 1
     5    2    7 ar
     6    2    3 ar
     7    3    4 ar
     8    3   32 1
     9    4    5 ar
    10    4   33 1
    11    5    6 ar
    12    5    9 1
    13    6    7 ar
    14    6   34 1
    15    7    8 1
    16    8   35 1
    17    8   36 1
    18    8   37 1
    19    9   13 1
    20    9   10 2
    21   10   11 1
    22   11   12 2
    23   11   15 1
    24   12   13 1
    25   12   14 1
    26   14   38 1
    27   14   39 1
    28   14   40 1
    29   15   16 1
    30   15   41 1
    31   15   42 1
    32   16   17 1
    33   16   43 1
    34   16   44 1
    35   17   18 1
    36   17   45 1
    37   17   46 1
    38   18   19 1
    39   18   47 1
    40   18   48 1
    41   19   24 1
    42   19   20 1
    43   19   49 1
    44   20   21 1
    45   20   50 1
    46   20   51 1
    47   21   22 1
    48   22   23 1
    49   22   25 1
    50   22   26 1
    51   23   24 1
    52   24   52 1
    53   24   53 1
    54   25   54 1
    55   25   55 1
    56   25   56 1
    57   26   27 2
    58   26   28 1
@<TRIPOS>MOLECULE
CHEMBL222121
   52    54     0     0     0
SMALL
USER_CHARGES

@<TRIPOS>ATOM
      1 C1         -0.0184    1.5028    0.0103 C.3       1 <0>        -0.0726
      2 C2          0.0021   -0.0041    0.0020 C.2       1 <0>        -0.0304
      3 C3         -1.0705   -0.8164    0.0025 C.2       1 <0>        -0.0083
      4 N1         -0.6270   -2.0826   -0.0064 N.2       1 <0>        -0.4589
      5 C4          0.6851   -2.0676   -0.0123 C.2       1 <0>         0.2297
      6 O1          1.0981   -0.7883   -0.0131 O.3       1 <0>        -0.1928
      7 C5          1.5619   -3.2577   -0.0227 C.ar      1 <0>        -0.0173
      8 C6          1.0059   -4.5378   -0.0330 C.ar      1 <0>        -0.0705
      9 C7          1.8298   -5.6443   -0.0432 C.ar      1 <0>        -0.1207
     10 C8          3.2044   -5.4871   -0.0433 C.ar      1 <0>        -0.1011
     11 C9          3.7620   -4.2209   -0.0327 C.ar      1 <0>        -0.1212
     12 C10         2.9493   -3.1060   -0.0282 C.ar      1 <0>        -0.0903
     13 C11        -2.5133   -0.3814    0.0119 C.3       1 <0>        -0.0322
     14 C12        -3.0085   -0.2260   -1.4274 C.3       1 <0>         0.0649
     15 O2         -4.3766    0.1865   -1.4185 O.3       1 <0>        -0.3124
     16 C13        -4.9731    0.3716   -2.6256 C.ar      1 <0>         0.0576
     17 C14        -6.3015    0.7785   -2.7012 C.ar      1 <0>        -0.1083
     18 C15        -6.8661    0.9538   -3.9541 C.ar      1 <0>        -0.1356
     19 C16        -6.0975    0.7206   -5.0794 C.ar      1 <0>         0.1183
     20 N2         -4.8409    0.3356   -4.9729 N.ar      1 <0>        -0.4133
     21 C17        -4.2647    0.1630   -3.7997 C.ar      1 <0>         0.0215
     22 C18        -6.7041    0.9085   -6.4461 C.3       1 <0>        -0.0413
     23 C19        -5.8461    1.8831   -7.2553 C.3       1 <0>         0.0555
     24 C20        -5.6842    3.1891   -6.4749 C.3       1 <0>        -0.1524
     25 C21        -6.5166    2.1662   -8.5749 C.2       1 <0>         0.4819
     26 O3         -7.6295    2.6636   -8.5989 O.co2     1 <0>        -0.6936
     27 O4         -5.9461    1.8979   -9.6185 O.co2     1 <0>        -0.6797
     28 O5         -4.5602    1.3051   -7.4887 O.3       1 <0>        -0.3536
     29 C22        -3.6761    2.1387   -8.2406 C.3       1 <0>         0.0201
     30 H1          1.0042    1.8801    0.0026 H         1 <0>         0.0809
     31 H2         -0.5455    1.8639   -0.8728 H         1 <0>         0.0930
     32 H3         -0.5286    1.8543    0.9071 H         1 <0>         0.0929
     33 H4         -0.0670   -4.6619   -0.0326 H         1 <0>         0.1390
     34 H5          1.4008   -6.6354   -0.0508 H         1 <0>         0.1327
     35 H6          3.8450   -6.3565   -0.0513 H         1 <0>         0.1284
     36 H7          4.8357   -4.1050   -0.0321 H         1 <0>         0.1306
     37 H8          3.3858   -2.1181   -0.0249 H         1 <0>         0.1302
     38 H9         -3.1156   -1.1316    0.5243 H         1 <0>         0.0944
     39 H10        -2.6018    0.5726    0.5316 H         1 <0>         0.0927
     40 H11        -2.4061    0.5242   -1.9398 H         1 <0>         0.0630
     41 H12        -2.9200   -1.1800   -1.9471 H         1 <0>         0.0675
     42 H13        -6.8785    0.9531   -1.8051 H         1 <0>         0.1376
     43 H14        -7.8947    1.2685   -4.0507 H         1 <0>         0.1411
     44 H15        -3.2316   -0.1483   -3.7524 H         1 <0>         0.1491
     45 H16        -6.7460   -0.0518   -6.9601 H         1 <0>         0.0820
     46 H17        -7.7122    1.3103   -6.3440 H         1 <0>         0.0949
     47 H18        -5.1992    2.9843   -5.5205 H         1 <0>         0.0418
     48 H19        -5.0729    3.8834   -7.0515 H         1 <0>         0.0487
     49 H20        -6.6650    3.6300   -6.2969 H         1 <0>         0.0634
     50 H21        -4.1160    2.3488   -9.2155 H         1 <0>         0.0797
     51 H22        -3.5157    3.0744   -7.7051 H         1 <0>         0.0138
     52 H23        -2.7221    1.6287   -8.3747 H         1 <0>         0.0593
@<TRIPOS>BOND
     1    1    2 1
     2    1   30 1
     3    1   31 1
     4    1   32 1
     5    2    6 1
     6    2    3 2
     7    3    4 1
     8    3   13 1
     9    4    5 2
    10    5    6 1
    11    5    7 1
    12    7   12 ar
    13    7    8 ar
    14    8    9 ar
    15    8   33 1
    16    9   10 ar
    17    9   34 1
    18   10   11 ar
    19   10   35 1
    20   11   12 ar
    21   11   36 1
    22   12   37 1
    23   13   14 1
    24   13   38 1
    25   13   39 1
    26   14   15 1
    27   14   40 1
    28   14   41 1
    29   15   16 1
    30   16   21 ar
    31   16   17 ar
    32   17   18 ar
    33   17   42 1
    34   18   19 ar
    35   18   43 1
    36   19   20 ar
    37   19   22 1
    38   20   21 ar
    39   21   44 1
    40   22   23 1
    41   22   45 1
    42   22   46 1
    43   23   24 1
    44   23   25 1
    45   23   28 1
    46   24   47 1
    47   24   48 1
    48   24   49 1
    49   25   26 2
    50   25   27 1
    51   28   29 1
    52   29   50 1
    53   29   51 1
    54   29   52 1
@<TRIPOS>MOLECULE
CHEMBL222121__1
   52    54     0     0     0
SMALL
USER_CHARGES

@<TRIPOS>ATOM
      1 C1         -0.0184    1.5028    0.0103 C.3       1 <0>        -0.0740
      2 C2          0.0021   -0.0041    0.0020 C.2       1 <0>        -0.0276
      3 C3         -1.0705   -0.8164    0.0025 C.2       1 <0>        -0.0081
      4 N1         -0.6270   -2.0826   -0.0064 N.2       1 <0>        -0.4578
      5 C4          0.6851   -2.0676   -0.0123 C.2       1 <0>         0.2254
      6 O1          1.0981   -0.7883   -0.0131 O.3       1 <0>        -0.1931
      7 C5          1.5619   -3.2577   -0.0227 C.ar      1 <0>        -0.0146
      8 C6          1.0059   -4.5378   -0.0330 C.ar      1 <0>        -0.0712
      9 C7          1.8298   -5.6443   -0.0432 C.ar      1 <0>        -0.1209
     10 C8          3.2044   -5.4871   -0.0433 C.ar      1 <0>        -0.1025
     11 C9          3.7620   -4.2209   -0.0327 C.ar      1 <0>        -0.1212
     12 C10         2.9493   -3.1060   -0.0282 C.ar      1 <0>        -0.0908
     13 C11        -2.5133   -0.3814    0.0119 C.3       1 <0>        -0.0322
     14 C12        -3.0085   -0.2260   -1.4274 C.3       1 <0>         0.0648
     15 O2         -4.3766    0.1865   -1.4185 O.3       1 <0>        -0.3130
     16 C13        -4.9731    0.3716   -2.6256 C.ar      1 <0>         0.0594
     17 C14        -6.3015    0.7785   -2.7012 C.ar      1 <0>        -0.1105
     18 C15        -6.8661    0.9538   -3.9541 C.ar      1 <0>        -0.1239
     19 C16        -6.0975    0.7206   -5.0794 C.ar      1 <0>         0.1188
     20 N2         -4.8409    0.3356   -4.9729 N.ar      1 <0>        -0.4059
     21 C17        -4.2647    0.1630   -3.7997 C.ar      1 <0>         0.0239
     22 C18        -6.7041    0.9085   -6.4461 C.3       1 <0>        -0.0364
     23 C19        -5.8461    1.8831   -7.2553 C.3       1 <0>         0.0474
     24 C20        -6.5268    2.1705   -8.5951 C.3       1 <0>        -0.1579
     25 C21        -5.6866    3.1695   -6.4867 C.2       1 <0>         0.4865
     26 O3         -4.5748    3.5555   -6.1682 O.co2     1 <0>        -0.6786
     27 O4         -6.6694    3.8242   -6.1833 O.co2     1 <0>        -0.6970
     28 O5         -4.5602    1.3051   -7.4887 O.3       1 <0>        -0.3538
     29 C22        -3.6761    2.1387   -8.2406 C.3       1 <0>         0.0197
     30 H1          1.0042    1.8801    0.0026 H         1 <0>         0.0807
     31 H2         -0.5455    1.8639   -0.8728 H         1 <0>         0.0955
     32 H3         -0.5286    1.8543    0.9071 H         1 <0>         0.0933
     33 H4         -0.0670   -4.6619   -0.0326 H         1 <0>         0.1389
     34 H5          1.4008   -6.6354   -0.0508 H         1 <0>         0.1321
     35 H6          3.8450   -6.3565   -0.0513 H         1 <0>         0.1277
     36 H7          4.8357   -4.1050   -0.0321 H         1 <0>         0.1302
     37 H8          3.3858   -2.1181   -0.0249 H         1 <0>         0.1303
     38 H9         -3.1156   -1.1316    0.5243 H         1 <0>         0.0936
     39 H10        -2.6018    0.5726    0.5316 H         1 <0>         0.0930
     40 H11        -2.4061    0.5242   -1.9398 H         1 <0>         0.0638
     41 H12        -2.9200   -1.1800   -1.9471 H         1 <0>         0.0658
     42 H13        -6.8785    0.9531   -1.8051 H         1 <0>         0.1359
     43 H14        -7.8947    1.2685   -4.0507 H         1 <0>         0.1378
     44 H15        -3.2316   -0.1483   -3.7524 H         1 <0>         0.1470
     45 H16        -6.7460   -0.0518   -6.9601 H         1 <0>         0.0738
     46 H17        -7.7122    1.3103   -6.3440 H         1 <0>         0.0897
     47 H18        -7.5076    2.6114   -8.4170 H         1 <0>         0.0651
     48 H19        -5.9156    2.8649   -9.1716 H         1 <0>         0.0509
     49 H20        -6.6422    1.2401   -9.1510 H         1 <0>         0.0470
     50 H21        -4.1160    2.3488   -9.2155 H         1 <0>         0.0144
     51 H22        -3.5157    3.0744   -7.7051 H         1 <0>         0.0796
     52 H23        -2.7221    1.6287   -8.3747 H         1 <0>         0.0589
@<TRIPOS>BOND
     1    1    2 1
     2    1   30 1
     3    1   31 1
     4    1   32 1
     5    2    6 1
     6    2    3 2
     7    3    4 1
     8    3   13 1
     9    4    5 2
    10    5    6 1
    11    5    7 1
    12    7   12 ar
    13    7    8 ar
    14    8    9 ar
    15    8   33 1
    16    9   10 ar
    17    9   34 1
    18   10   11 ar
    19   10   35 1
    20   11   12 ar
    21   11   36 1
    22   12   37 1
    23   13   14 1
    24   13   38 1
    25   13   39 1
    26   14   15 1
    27   14   40 1
    28   14   41 1
    29   15   16 1
    30   16   21 ar
    31   16   17 ar
    32   17   18 ar
    33   17   42 1
    34   18   19 ar
    35   18   43 1
    36   19   20 ar
    37   19   22 1
    38   20   21 ar
    39   21   44 1
    40   22   23 1
    41   22   45 1
    42   22   46 1
    43   23   24 1
    44   23   25 1
    45   23   28 1
    46   24   47 1
    47   24   48 1
    48   24   49 1
    49   25   26 2
    50   25   27 1
    51   28   29 1
    52   29   50 1
    53   29   51 1
    54   29   52 1
@<TRIPOS>MOLECULE
CHEMBL230705
   65    67     0     0     0
SMALL
USER_CHARGES

@<TRIPOS>ATOM
      1 C1         -0.0187    1.5258    0.0104 C.3       1 <0>        -0.1495
      2 C2          0.0021   -0.0041    0.0020 C.3       1 <0>        -0.1216
      3 C3          0.7421   -0.5109    1.2415 C.3       1 <0>        -0.1155
      4 C4          0.7628   -2.0407    1.2331 C.3       1 <0>         0.0836
      5 O1          1.4540   -2.5141    2.3908 O.3       1 <0>        -0.2766
      6 N1          1.5299   -3.9253    2.4794 N.2       1 <0>        -0.2645
      7 C5          2.1244   -4.4730    3.4712 C.2       1 <0>         0.1238
      8 C6          2.7438   -3.6163    4.5452 C.3       1 <0>        -0.1448
      9 C7          2.2053   -5.9749    3.5654 C.3       1 <0>        -0.1045
     10 C8          3.6666   -6.4148    3.4566 C.3       1 <0>        -0.0409
     11 C9          3.7607   -7.9032    3.6733 C.ar      1 <0>        -0.1083
     12 C10         3.9399   -8.4049    4.9492 C.ar      1 <0>        -0.0844
     13 C11         4.0268   -9.7688    5.1505 C.ar      1 <0>        -0.1785
     14 C12         3.9337  -10.6354    4.0711 C.ar      1 <0>         0.1194
     15 C13         3.7535  -10.1295    2.7920 C.ar      1 <0>        -0.2304
     16 C14         3.6619   -8.7650    2.5966 C.ar      1 <0>         0.0246
     17 O2          4.0194  -11.9775    4.2665 O.3       1 <0>        -0.3217
     18 C15         3.9152  -12.8095    3.1093 C.3       1 <0>         0.0692
     19 C16         4.0337  -14.2774    3.5242 C.3       1 <0>        -0.0335
     20 C17         3.9237  -15.1548    2.3039 C.2       1 <0>        -0.0063
     21 C18         2.7872  -15.6612    1.7919 C.2       1 <0>        -0.0295
     22 O3          3.1251  -16.3860    0.7070 O.3       1 <0>        -0.1936
     23 C19         4.4603  -16.3149    0.5680 C.2       1 <0>         0.2250
     24 N2          4.9410  -15.5650    1.5315 N.2       1 <0>        -0.4577
     25 C20         5.2533  -16.9676   -0.4953 C.ar      1 <0>        -0.0142
     26 C21         6.6409  -16.8204   -0.5252 C.ar      1 <0>        -0.0713
     27 C22         7.3752  -17.4324   -1.5199 C.ar      1 <0>        -0.1209
     28 C23         6.7389  -18.1908   -2.4865 C.ar      1 <0>        -0.1028
     29 C24         5.3637  -18.3407   -2.4626 C.ar      1 <0>        -0.1212
     30 C25         4.6183  -17.7383   -1.4703 C.ar      1 <0>        -0.0910
     31 C26         1.3951  -15.4566    2.3316 C.3       1 <0>        -0.0735
     32 C27         1.4101   -6.5921    2.4440 C.2       1 <0>         0.4998
     33 O4          1.7406   -7.6721    1.9847 O.co2     1 <0>        -0.6844
     34 O5          0.4361   -6.0115    1.9959 O.co2     1 <0>        -0.6660
     35 H1          1.0039    1.9031    0.0027 H         1 <0>         0.0532
     36 H2         -0.5459    1.8868   -0.8726 H         1 <0>         0.0535
     37 H3         -0.5289    1.8773    0.9072 H         1 <0>         0.0534
     38 H4         -1.0205   -0.3814    0.0098 H         1 <0>         0.0648
     39 H5          0.5123   -0.3556   -0.8948 H         1 <0>         0.0641
     40 H6          1.7647   -0.1336    1.2338 H         1 <0>         0.0655
     41 H7          0.2319   -0.1594    2.1383 H         1 <0>         0.0663
     42 H8         -0.2598   -2.4180    1.2409 H         1 <0>         0.0533
     43 H9          1.2730   -2.3923    0.3363 H         1 <0>         0.0488
     44 H10         2.0082   -3.4246    5.3263 H         1 <0>         0.0703
     45 H11         3.6019   -4.1343    4.9734 H         1 <0>         0.0706
     46 H12         3.0693   -2.6702    4.1125 H         1 <0>         0.0679
     47 H13         1.7979   -6.3014    4.5223 H         1 <0>         0.0845
     48 H14         4.0478   -6.1671    2.4660 H         1 <0>         0.0638
     49 H15         4.2585   -5.8994    4.2130 H         1 <0>         0.0565
     50 H16         4.0123   -7.7298    5.7892 H         1 <0>         0.1173
     51 H17         4.1675  -10.1602    6.1472 H         1 <0>         0.1174
     52 H18         3.6807  -10.8021    1.9501 H         1 <0>         0.1141
     53 H19         3.5172   -8.3709    1.6016 H         1 <0>         0.1408
     54 H20         2.9508  -12.6444    2.6289 H         1 <0>         0.0614
     55 H21         4.7156  -12.5634    2.4116 H         1 <0>         0.0630
     56 H22         4.9980  -14.4424    4.0047 H         1 <0>         0.0924
     57 H23         3.2333  -14.5235    4.2220 H         1 <0>         0.0913
     58 H24         7.1387  -16.2283    0.2285 H         1 <0>         0.1390
     59 H25         8.4489  -17.3190   -1.5444 H         1 <0>         0.1321
     60 H26         7.3183  -18.6676   -3.2633 H         1 <0>         0.1277
     61 H27         4.8731  -18.9338   -3.2203 H         1 <0>         0.1301
     62 H28         3.5453  -17.8598   -1.4502 H         1 <0>         0.1302
     63 H29         0.9534  -14.5726    1.8715 H         1 <0>         0.0912
     64 H30         0.7843  -16.3295    2.1016 H         1 <0>         0.0803
     65 H31         1.4408  -15.3195    3.4120 H         1 <0>         0.0967
@<TRIPOS>BOND
     1    1    2 1
     2    1   35 1
     3    1   36 1
     4    1   37 1
     5    2    3 1
     6    2   38 1
     7    2   39 1
     8    3    4 1
     9    3   40 1
    10    3   41 1
    11    4    5 1
    12    4   42 1
    13    4   43 1
    14    5    6 1
    15    6    7 2
    16    7    8 1
    17    7    9 1
    18    8   44 1
    19    8   45 1
    20    8   46 1
    21    9   10 1
    22    9   32 1
    23    9   47 1
    24   10   11 1
    25   10   48 1
    26   10   49 1
    27   11   16 ar
    28   11   12 ar
    29   12   13 ar
    30   12   50 1
    31   13   14 ar
    32   13   51 1
    33   14   15 ar
    34   14   17 1
    35   15   16 ar
    36   15   52 1
    37   16   53 1
    38   17   18 1
    39   18   19 1
    40   18   54 1
    41   18   55 1
    42   19   20 1
    43   19   56 1
    44   19   57 1
    45   20   24 1
    46   20   21 2
    47   21   22 1
    48   21   31 1
    49   22   23 1
    50   23   24 2
    51   23   25 1
    52   25   30 ar
    53   25   26 ar
    54   26   27 ar
    55   26   58 1
    56   27   28 ar
    57   27   59 1
    58   28   29 ar
    59   28   60 1
    60   29   30 ar
    61   29   61 1
    62   30   62 1
    63   31   63 1
    64   31   64 1
    65   31   65 1
    66   32   33 2
    67   32   34 1
@<TRIPOS>MOLECULE
CHEMBL230705__1
   65    67     0     0     0
SMALL
USER_CHARGES

@<TRIPOS>ATOM
      1 C1         -0.0187    1.5258    0.0104 C.3       1 <0>        -0.1495
      2 C2          0.0021   -0.0041    0.0020 C.3       1 <0>        -0.1217
      3 C3          0.7421   -0.5109    1.2415 C.3       1 <0>        -0.1149
      4 C4          0.7628   -2.0407    1.2331 C.3       1 <0>         0.0802
      5 O1          1.4540   -2.5141    2.3908 O.3       1 <0>        -0.2682
      6 N1          1.5299   -3.9253    2.4794 N.2       1 <0>        -0.2923
      7 C5          2.1244   -4.4730    3.4712 C.2       1 <0>         0.1383
      8 C6          2.7438   -3.6163    4.5452 C.3       1 <0>        -0.1448
      9 C7          2.2053   -5.9749    3.5654 C.3       1 <0>        -0.1054
     10 C8          1.4150   -6.4527    4.7853 C.3       1 <0>        -0.0493
     11 C9          1.5964   -7.9396    4.9505 C.ar      1 <0>        -0.0977
     12 C10         0.7266   -8.8145    4.3262 C.ar      1 <0>        -0.0519
     13 C11         0.8904  -10.1779    4.4765 C.ar      1 <0>        -0.1466
     14 C12         1.9290  -10.6691    5.2541 C.ar      1 <0>         0.1166
     15 C13         2.8006   -9.7891    5.8791 C.ar      1 <0>        -0.2115
     16 C14         2.6356   -8.4266    5.7215 C.ar      1 <0>        -0.0802
     17 O2          2.0920  -12.0099    5.4038 O.3       1 <0>        -0.3168
     18 C15         3.1827  -12.4439    6.2188 C.3       1 <0>         0.0689
     19 C16         3.2052  -13.9729    6.2688 C.3       1 <0>        -0.0350
     20 C17         4.3554  -14.4306    7.1282 C.2       1 <0>        -0.0061
     21 C18         5.6074  -14.6852    6.7063 C.2       1 <0>        -0.0302
     22 O3          6.3226  -15.0670    7.7830 O.3       1 <0>        -0.1938
     23 C19         5.5026  -15.0418    8.8480 C.2       1 <0>         0.2259
     24 N2          4.3146  -14.6510    8.4509 N.2       1 <0>        -0.4580
     25 C20         5.8779  -15.3904   10.2347 C.ar      1 <0>        -0.0152
     26 C21         4.9270  -15.3291   11.2545 C.ar      1 <0>        -0.0712
     27 C22         5.2837  -15.6562   12.5465 C.ar      1 <0>        -0.1207
     28 C23         6.5806  -16.0443   12.8322 C.ar      1 <0>        -0.1022
     29 C24         7.5280  -16.1072   11.8258 C.ar      1 <0>        -0.1212
     30 C25         7.1831  -15.7878   10.5287 C.ar      1 <0>        -0.0910
     31 C26         6.1155  -14.5660    5.2926 C.3       1 <0>        -0.0735
     32 C27         1.6233   -6.5885    2.3181 C.2       1 <0>         0.5143
     33 O4          2.3148   -7.2992    1.6086 O.co2     1 <0>        -0.6991
     34 O5          0.4611   -6.3743    2.0185 O.co2     1 <0>        -0.6775
     35 H1          1.0039    1.9031    0.0027 H         1 <0>         0.0533
     36 H2         -0.5459    1.8868   -0.8726 H         1 <0>         0.0538
     37 H3         -0.5289    1.8773    0.9072 H         1 <0>         0.0534
     38 H4         -1.0205   -0.3814    0.0098 H         1 <0>         0.0650
     39 H5          0.5123   -0.3556   -0.8948 H         1 <0>         0.0645
     40 H6          1.7647   -0.1336    1.2338 H         1 <0>         0.0662
     41 H7          0.2319   -0.1594    2.1383 H         1 <0>         0.0668
     42 H8         -0.2598   -2.4180    1.2409 H         1 <0>         0.0538
     43 H9          1.2730   -2.3923    0.3363 H         1 <0>         0.0508
     44 H10         2.0082   -3.4246    5.3263 H         1 <0>         0.0737
     45 H11         3.6019   -4.1343    4.9734 H         1 <0>         0.0702
     46 H12         3.0693   -2.6702    4.1125 H         1 <0>         0.0690
     47 H13         3.2477   -6.2770    3.6667 H         1 <0>         0.0833
     48 H14         1.7783   -5.9411    5.6767 H         1 <0>         0.0604
     49 H15         0.3577   -6.2291    4.6436 H         1 <0>         0.0774
     50 H16        -0.0817   -8.4316    3.7209 H         1 <0>         0.1359
     51 H17         0.2104  -10.8609    3.9892 H         1 <0>         0.1263
     52 H18         3.6099  -10.1690    6.4851 H         1 <0>         0.1190
     53 H19         3.3166   -7.7413    6.2043 H         1 <0>         0.1197
     54 H20         4.1193  -12.0804    5.7959 H         1 <0>         0.0605
     55 H21         3.0621  -12.0491    7.2276 H         1 <0>         0.0630
     56 H22         2.2686  -14.3364    6.6916 H         1 <0>         0.0939
     57 H23         3.3258  -14.3677    5.2600 H         1 <0>         0.0932
     58 H24         3.9144  -15.0260   11.0329 H         1 <0>         0.1391
     59 H25         4.5489  -15.6089   13.3366 H         1 <0>         0.1323
     60 H26         6.8547  -16.2990   13.8453 H         1 <0>         0.1280
     61 H27         8.5387  -16.4105   12.0555 H         1 <0>         0.1303
     62 H28         7.9224  -15.8415    9.7433 H         1 <0>         0.1302
     63 H29         6.4962  -13.5582    5.1271 H         1 <0>         0.0899
     64 H30         6.9164  -15.2878    5.1323 H         1 <0>         0.0808
     65 H31         5.3015  -14.7659    4.5959 H         1 <0>         0.0977
@<TRIPOS>BOND
     1    1    2 1
     2    1   35 1
     3    1   36 1
     4    1   37 1
     5    2    3 1
     6    2   38 1
     7    2   39 1
     8    3    4 1
     9    3   40 1
    10    3   41 1
    11    4    5 1
    12    4   42 1
    13    4   43 1
    14    5    6 1
    15    6    7 2
    16    7    8 1
    17    7    9 1
    18    8   44 1
    19    8   45 1
    20    8   46 1
    21    9   10 1
    22    9   32 1
    23    9   47 1
    24   10   11 1
    25   10   48 1
    26   10   49 1
    27   11   16 ar
    28   11   12 ar
    29   12   13 ar
    30   12   50 1
    31   13   14 ar
    32   13   51 1
    33   14   15 ar
    34   14   17 1
    35   15   16 ar
    36   15   52 1
    37   16   53 1
    38   17   18 1
    39   18   19 1
    40   18   54 1
    41   18   55 1
    42   19   20 1
    43   19   56 1
    44   19   57 1
    45   20   24 1
    46   20   21 2
    47   21   22 1
    48   21   31 1
    49   22   23 1
    50   23   24 2
    51   23   25 1
    52   25   30 ar
    53   25   26 ar
    54   26   27 ar
    55   26   58 1
    56   27   28 ar
    57   27   59 1
    58   28   29 ar
    59   28   60 1
    60   29   30 ar
    61   29   61 1
    62   30   62 1
    63   31   63 1
    64   31   64 1
    65   31   65 1
    66   32   33 2
    67   32   34 1
@<TRIPOS>MOLECULE
CHEMBL220708
   52    55     0     0     0
SMALL
USER_CHARGES

@<TRIPOS>ATOM
      1 C1         -0.0184    1.5028    0.0103 C.3       1 <0>        -0.0728
      2 C2          0.0021   -0.0041    0.0020 C.2       1 <0>        -0.0288
      3 C3         -1.0705   -0.8164    0.0025 C.2       1 <0>        -0.0038
      4 N1         -0.6270   -2.0826   -0.0064 N.2       1 <0>        -0.4569
      5 C4          0.6851   -2.0676   -0.0123 C.2       1 <0>         0.2229
      6 O1          1.0981   -0.7883   -0.0131 O.3       1 <0>        -0.1937
      7 C5          1.5619   -3.2577   -0.0227 C.ar      1 <0>        -0.0125
      8 C6          1.0059   -4.5378   -0.0330 C.ar      1 <0>        -0.0716
      9 C7          1.8298   -5.6443   -0.0432 C.ar      1 <0>        -0.1209
     10 C8          3.2044   -5.4871   -0.0433 C.ar      1 <0>        -0.1037
     11 C9          3.7620   -4.2209   -0.0327 C.ar      1 <0>        -0.1213
     12 C10         2.9493   -3.1060   -0.0282 C.ar      1 <0>        -0.0913
     13 C11        -2.5133   -0.3814    0.0119 C.3       1 <0>        -0.0354
     14 C12        -3.0085   -0.2260   -1.4274 C.3       1 <0>         0.0815
     15 O2         -4.3766    0.1865   -1.4185 O.3       1 <0>        -0.3143
     16 C13        -4.9721    0.3713   -2.6235 C.ar      1 <0>         0.3032
     17 C14        -6.2993    0.7777   -2.6799 C.ar      1 <0>        -0.2145
     18 C15        -6.8947    0.9630   -3.9152 C.ar      1 <0>        -0.0486
     19 C16        -6.1377    0.7339   -5.0562 C.ar      1 <0>        -0.1544
     20 C17        -4.8238    0.3313   -4.9253 C.ar      1 <0>         0.2179
     21 N2         -4.2819    0.1679   -3.7332 N.ar      1 <0>        -0.5518
     22 C18        -6.7440    0.9223   -6.4229 C.3       1 <0>        -0.0357
     23 C19        -6.5273    2.3655   -6.8825 C.3       1 <0>        -0.1428
     24 C20        -7.5644    3.3528   -6.3217 C.3       1 <0>        -0.1176
     25 C21        -7.5616    4.0206   -7.7070 C.3       1 <0>        -0.1299
     26 C22        -7.1119    2.6634   -8.2733 C.3       1 <0>        -0.1199
     27 C23        -5.1018    2.8249   -6.7157 C.2       1 <0>         0.5169
     28 O3         -4.2325    2.0214   -6.4238 O.co2     1 <0>        -0.6841
     29 O4         -4.8178    4.0002   -6.8727 O.co2     1 <0>        -0.6898
     30 H1          1.0042    1.8801    0.0026 H         1 <0>         0.0799
     31 H2         -0.5455    1.8639   -0.8728 H         1 <0>         0.0956
     32 H3         -0.5286    1.8543    0.9071 H         1 <0>         0.0921
     33 H4         -0.0670   -4.6619   -0.0326 H         1 <0>         0.1389
     34 H5          1.4008   -6.6354   -0.0508 H         1 <0>         0.1317
     35 H6          3.8450   -6.3565   -0.0513 H         1 <0>         0.1273
     36 H7          4.8357   -4.1050   -0.0321 H         1 <0>         0.1298
     37 H8          3.3858   -2.1181   -0.0249 H         1 <0>         0.1302
     38 H9         -3.1156   -1.1316    0.5243 H         1 <0>         0.0906
     39 H10        -2.6018    0.5726    0.5316 H         1 <0>         0.0897
     40 H11        -2.4061    0.5242   -1.9398 H         1 <0>         0.0648
     41 H12        -2.9200   -1.1800   -1.9471 H         1 <0>         0.0667
     42 H13        -6.8590    0.9466   -1.7718 H         1 <0>         0.1276
     43 H14        -7.9250    1.2782   -3.9901 H         1 <0>         0.1275
     44 H15        -4.2305    0.1518   -5.8097 H         1 <0>         0.1759
     45 H16        -6.2683    0.2410   -7.1284 H         1 <0>         0.0662
     46 H17        -7.8125    0.7116   -6.3786 H         1 <0>         0.0537
     47 H18        -8.5154    2.8872   -6.0633 H         1 <0>         0.0620
     48 H19        -7.1751    3.9912   -5.5285 H         1 <0>         0.0590
     49 H20        -8.5510    4.3286   -8.0451 H         1 <0>         0.0471
     50 H21        -6.8138    4.8067   -7.8113 H         1 <0>         0.0934
     51 H22        -6.3574    2.7452   -9.0557 H         1 <0>         0.0584
     52 H23        -7.9392    2.0093   -8.5485 H         1 <0>         0.0655
@<TRIPOS>BOND
     1    1    2 1
     2    1   30 1
     3    1   31 1
     4    1   32 1
     5    2    6 1
     6    2    3 2
     7    3    4 1
     8    3   13 1
     9    4    5 2
    10    5    6 1
    11    5    7 1
    12    7   12 ar
    13    7    8 ar
    14    8    9 ar
    15    8   33 1
    16    9   10 ar
    17    9   34 1
    18   10   11 ar
    19   10   35 1
    20   11   12 ar
    21   11   36 1
    22   12   37 1
    23   13   14 1
    24   13   38 1
    25   13   39 1
    26   14   15 1
    27   14   40 1
    28   14   41 1
    29   15   16 1
    30   16   21 ar
    31   16   17 ar
    32   17   18 ar
    33   17   42 1
    34   18   19 ar
    35   18   43 1
    36   19   20 ar
    37   19   22 1
    38   20   21 ar
    39   20   44 1
    40   22   23 1
    41   22   45 1
    42   22   46 1
    43   23   26 1
    44   23   24 1
    45   23   27 1
    46   24   25 1
    47   24   47 1
    48   24   48 1
    49   25   26 1
    50   25   49 1
    51   25   50 1
    52   26   51 1
    53   26   52 1
    54   27   28 2
    55   27   29 1
@<TRIPOS>MOLECULE
CHEMBL117165
   63    66     0     0     0
SMALL
USER_CHARGES

@<TRIPOS>ATOM
      1 C1         -0.0187    1.5258    0.0104 C.3       1 <0>        -0.1524
      2 C2          0.0021   -0.0041    0.0020 C.3       1 <0>        -0.1159
      3 C3          0.7421   -0.5109    1.2415 C.3       1 <0>        -0.0713
      4 C4          0.7625   -2.0177    1.2333 C.ar      1 <0>        -0.1073
      5 C5          1.8939   -2.6916    0.8150 C.ar      1 <0>        -0.0787
      6 C6          1.9131   -4.0739    0.8067 C.ar      1 <0>        -0.1043
      7 C7          0.8008   -4.7856    1.2172 C.ar      1 <0>        -0.0793
      8 C8         -0.3326   -4.1167    1.6366 C.ar      1 <0>        -0.2035
      9 C9         -0.3525   -2.7294    1.6508 C.ar      1 <0>         0.1265
     10 O1         -1.4644   -2.0689    2.0684 O.3       1 <0>        -0.3070
     11 C10        -2.5749   -2.8664    2.4842 C.3       1 <0>         0.0644
     12 C11        -3.7246   -1.9540    2.9161 C.3       1 <0>        -0.1197
     13 C12        -4.9136   -2.8078    3.3613 C.3       1 <0>         0.0636
     14 O2         -5.9875   -1.9557    3.7647 O.3       1 <0>        -0.3076
     15 C13        -7.1275   -2.5598    4.1918 C.ar      1 <0>         0.1355
     16 C14        -7.2088   -3.9445    4.2274 C.ar      1 <0>        -0.1910
     17 C15        -8.3684   -4.5561    4.6623 C.ar      1 <0>        -0.0733
     18 C16        -9.4477   -3.7896    5.0620 C.ar      1 <0>        -0.1312
     19 C17        -9.3694   -2.4098    5.0270 C.ar      1 <0>        -0.0712
     20 C18        -8.2097   -1.7932    4.5983 C.ar      1 <0>        -0.1182
     21 C19       -10.5477   -1.5775    5.4629 C.3       1 <0>         0.0882
     22 C20       -10.5862   -1.4618    6.9732 C.2       1 <0>         0.5126
     23 O3         -9.7455   -0.9668    7.6928 O.2       1 <0>        -0.4338
     24 N1        -11.7530   -2.0247    7.3485 N.am      1 <0>        -0.6836
     25 C21       -12.4315   -2.4673    6.2820 C.2       1 <0>         0.6500
     26 O4        -13.5139   -3.0144    6.3481 O.2       1 <0>        -0.4648
     27 O5        -11.7792   -2.2369    5.1318 O.3       1 <0>        -0.2873
     28 C22         3.1481   -4.8063    0.3492 C.3       1 <0>        -0.0502
     29 C23         2.8002   -5.7489   -0.8214 C.3       1 <0>        -0.1177
     30 C24         3.6810   -6.9993   -0.5769 C.3       1 <0>        -0.1269
     31 C25         3.6444   -7.1469    0.9645 C.3       1 <0>        -0.1258
     32 C26         3.6849   -5.6952    1.4847 C.3       1 <0>        -0.1183
     33 H1          1.0039    1.9031    0.0027 H         1 <0>         0.0532
     34 H2         -0.5459    1.8868   -0.8726 H         1 <0>         0.0539
     35 H3         -0.5289    1.8773    0.9072 H         1 <0>         0.0546
     36 H4         -1.0205   -0.3814    0.0098 H         1 <0>         0.0641
     37 H5          0.5123   -0.3556   -0.8948 H         1 <0>         0.0591
     38 H6          1.7647   -0.1336    1.2338 H         1 <0>         0.0690
     39 H7          0.2319   -0.1594    2.1383 H         1 <0>         0.0745
     40 H8          2.7639   -2.1380    0.4940 H         1 <0>         0.1272
     41 H9          0.8181   -5.8655    1.2094 H         1 <0>         0.1232
     42 H10        -1.2010   -4.6730    1.9570 H         1 <0>         0.1256
     43 H11        -2.9014   -3.4948    1.6556 H         1 <0>         0.0653
     44 H12        -2.2764   -3.4962    3.3222 H         1 <0>         0.0651
     45 H13        -3.3982   -1.3255    3.7447 H         1 <0>         0.0881
     46 H14        -4.0232   -1.3242    2.0781 H         1 <0>         0.0882
     47 H15        -5.2401   -3.4363    2.5328 H         1 <0>         0.0685
     48 H16        -4.6151   -3.4376    4.1994 H         1 <0>         0.0682
     49 H17        -6.3662   -4.5436    3.9149 H         1 <0>         0.1341
     50 H18        -8.4323   -5.6338    4.6898 H         1 <0>         0.1343
     51 H19       -10.3535   -4.2696    5.4017 H         1 <0>         0.1252
     52 H20        -8.1473   -0.7152    4.5754 H         1 <0>         0.1417
     53 H21       -10.5075   -0.5901    5.0031 H         1 <0>         0.1634
     54 H22       -12.0592   -2.0987    8.2659 H         1 <0>         0.4454
     55 H23         3.9122   -4.0928    0.0406 H         1 <0>         0.0783
     56 H24         1.7436   -6.0155   -0.7955 H         1 <0>         0.0687
     57 H25         3.0540   -5.2839   -1.7740 H         1 <0>         0.0661
     58 H26         3.2492   -7.8762   -1.0593 H         1 <0>         0.0663
     59 H27         4.6998   -6.8282   -0.9245 H         1 <0>         0.0675
     60 H28         2.7242   -7.6393    1.2789 H         1 <0>         0.0639
     61 H29         4.5143   -7.7022    1.3153 H         1 <0>         0.0652
     62 H30         4.7097   -5.4136    1.7266 H         1 <0>         0.0653
     63 H31         3.0521   -5.5968    2.3668 H         1 <0>         0.0664
@<TRIPOS>BOND
     1    1    2 1
     2    1   33 1
     3    1   34 1
     4    1   35 1
     5    2    3 1
     6    2   36 1
     7    2   37 1
     8    3    4 1
     9    3   38 1
    10    3   39 1
    11    4    9 ar
    12    4    5 ar
    13    5    6 ar
    14    5   40 1
    15    6    7 ar
    16    6   28 1
    17    7    8 ar
    18    7   41 1
    19    8    9 ar
    20    8   42 1
    21    9   10 1
    22   10   11 1
    23   11   12 1
    24   11   43 1
    25   11   44 1
    26   12   13 1
    27   12   45 1
    28   12   46 1
    29   13   14 1
    30   13   47 1
    31   13   48 1
    32   14   15 1
    33   15   20 ar
    34   15   16 ar
    35   16   17 ar
    36   16   49 1
    37   17   18 ar
    38   17   50 1
    39   18   19 ar
    40   18   51 1
    41   19   20 ar
    42   19   21 1
    43   20   52 1
    44   21   27 1
    45   21   22 1
    46   21   53 1
    47   22   23 2
    48   22   24 am
    49   24   25 am
    50   24   54 1
    51   25   26 2
    52   25   27 1
    53   28   32 1
    54   28   29 1
    55   28   55 1
    56   29   30 1
    57   29   56 1
    58   29   57 1
    59   30   31 1
    60   30   58 1
    61   30   59 1
    62   31   32 1
    63   31   60 1
    64   31   61 1
    65   32   62 1
    66   32   63 1
@<TRIPOS>MOLECULE
CHEMBL117165__1
   63    66     0     0     0
SMALL
USER_CHARGES

@<TRIPOS>ATOM
      1 C1         -0.0187    1.5258    0.0104 C.3       1 <0>        -0.1524
      2 C2          0.0021   -0.0041    0.0020 C.3       1 <0>        -0.1160
      3 C3          0.7421   -0.5109    1.2415 C.3       1 <0>        -0.0712
      4 C4          0.7625   -2.0177    1.2333 C.ar      1 <0>        -0.1073
      5 C5          1.8939   -2.6916    0.8150 C.ar      1 <0>        -0.0787
      6 C6          1.9131   -4.0739    0.8067 C.ar      1 <0>        -0.1042
      7 C7          0.8008   -4.7856    1.2172 C.ar      1 <0>        -0.0793
      8 C8         -0.3326   -4.1167    1.6366 C.ar      1 <0>        -0.2035
      9 C9         -0.3525   -2.7294    1.6508 C.ar      1 <0>         0.1265
     10 O1         -1.4644   -2.0689    2.0684 O.3       1 <0>        -0.3070
     11 C10        -2.5749   -2.8664    2.4842 C.3       1 <0>         0.0644
     12 C11        -3.7246   -1.9540    2.9161 C.3       1 <0>        -0.1196
     13 C12        -4.9136   -2.8078    3.3613 C.3       1 <0>         0.0635
     14 O2         -5.9875   -1.9557    3.7647 O.3       1 <0>        -0.3076
     15 C13        -7.1275   -2.5598    4.1918 C.ar      1 <0>         0.1355
     16 C14        -7.2088   -3.9445    4.2274 C.ar      1 <0>        -0.1905
     17 C15        -8.3684   -4.5561    4.6623 C.ar      1 <0>        -0.0730
     18 C16        -9.4477   -3.7896    5.0620 C.ar      1 <0>        -0.1313
     19 C17        -9.3694   -2.4098    5.0270 C.ar      1 <0>        -0.0705
     20 C18        -8.2097   -1.7932    4.5983 C.ar      1 <0>        -0.1176
     21 C19       -10.5477   -1.5775    5.4629 C.3       1 <0>         0.0879
     22 C20       -11.6200   -1.5738    4.3925 C.2       1 <0>         0.5127
     23 O3        -11.5218   -1.1603    3.2571 O.2       1 <0>        -0.4339
     24 N1        -12.7064   -2.1280    4.9682 N.am      1 <0>        -0.6838
     25 C21       -12.4494   -2.4692    6.2375 C.2       1 <0>         0.6498
     26 O4        -13.2621   -2.9871    6.9767 O.2       1 <0>        -0.4648
     27 O5        -11.1912   -2.1732    6.5996 O.3       1 <0>        -0.2872
     28 C22         3.1481   -4.8063    0.3492 C.3       1 <0>        -0.0502
     29 C23         2.8002   -5.7489   -0.8214 C.3       1 <0>        -0.1177
     30 C24         3.6810   -6.9993   -0.5769 C.3       1 <0>        -0.1269
     31 C25         3.6444   -7.1469    0.9645 C.3       1 <0>        -0.1258
     32 C26         3.6849   -5.6952    1.4847 C.3       1 <0>        -0.1183
     33 H1          1.0039    1.9031    0.0027 H         1 <0>         0.0532
     34 H2         -0.5459    1.8868   -0.8726 H         1 <0>         0.0539
     35 H3         -0.5289    1.8773    0.9072 H         1 <0>         0.0546
     36 H4         -1.0205   -0.3814    0.0098 H         1 <0>         0.0641
     37 H5          0.5123   -0.3556   -0.8948 H         1 <0>         0.0590
     38 H6          1.7647   -0.1336    1.2338 H         1 <0>         0.0690
     39 H7          0.2319   -0.1594    2.1383 H         1 <0>         0.0745
     40 H8          2.7639   -2.1380    0.4940 H         1 <0>         0.1272
     41 H9          0.8181   -5.8655    1.2094 H         1 <0>         0.1232
     42 H10        -1.2010   -4.6730    1.9570 H         1 <0>         0.1256
     43 H11        -2.9014   -3.4948    1.6556 H         1 <0>         0.0652
     44 H12        -2.2764   -3.4962    3.3222 H         1 <0>         0.0652
     45 H13        -3.3982   -1.3255    3.7447 H         1 <0>         0.0882
     46 H14        -4.0232   -1.3242    2.0781 H         1 <0>         0.0882
     47 H15        -5.2401   -3.4363    2.5328 H         1 <0>         0.0683
     48 H16        -4.6151   -3.4376    4.1994 H         1 <0>         0.0685
     49 H17        -6.3662   -4.5436    3.9149 H         1 <0>         0.1342
     50 H18        -8.4323   -5.6338    4.6898 H         1 <0>         0.1343
     51 H19       -10.3535   -4.2696    5.4017 H         1 <0>         0.1238
     52 H20        -8.1473   -0.7152    4.5754 H         1 <0>         0.1419
     53 H21       -10.2312   -0.5601    5.6929 H         1 <0>         0.1630
     54 H22       -13.5580   -2.2616    4.5234 H         1 <0>         0.4454
     55 H23         3.9122   -4.0928    0.0406 H         1 <0>         0.0783
     56 H24         1.7436   -6.0155   -0.7955 H         1 <0>         0.0687
     57 H25         3.0540   -5.2839   -1.7740 H         1 <0>         0.0661
     58 H26         3.2492   -7.8762   -1.0593 H         1 <0>         0.0662
     59 H27         4.6998   -6.8282   -0.9245 H         1 <0>         0.0675
     60 H28         2.7242   -7.6393    1.2789 H         1 <0>         0.0639
     61 H29         4.5143   -7.7022    1.3153 H         1 <0>         0.0652
     62 H30         4.7097   -5.4136    1.7266 H         1 <0>         0.0653
     63 H31         3.0521   -5.5968    2.3668 H         1 <0>         0.0664
@<TRIPOS>BOND
     1    1    2 1
     2    1   33 1
     3    1   34 1
     4    1   35 1
     5    2    3 1
     6    2   36 1
     7    2   37 1
     8    3    4 1
     9    3   38 1
    10    3   39 1
    11    4    9 ar
    12    4    5 ar
    13    5    6 ar
    14    5   40 1
    15    6    7 ar
    16    6   28 1
    17    7    8 ar
    18    7   41 1
    19    8    9 ar
    20    8   42 1
    21    9   10 1
    22   10   11 1
    23   11   12 1
    24   11   43 1
    25   11   44 1
    26   12   13 1
    27   12   45 1
    28   12   46 1
    29   13   14 1
    30   13   47 1
    31   13   48 1
    32   14   15 1
    33   15   20 ar
    34   15   16 ar
    35   16   17 ar
    36   16   49 1
    37   17   18 ar
    38   17   50 1
    39   18   19 ar
    40   18   51 1
    41   19   20 ar
    42   19   21 1
    43   20   52 1
    44   21   27 1
    45   21   22 1
    46   21   53 1
    47   22   23 2
    48   22   24 am
    49   24   25 am
    50   24   54 1
    51   25   26 2
    52   25   27 1
    53   28   32 1
    54   28   29 1
    55   28   55 1
    56   29   30 1
    57   29   56 1
    58   29   57 1
    59   30   31 1
    60   30   58 1
    61   30   59 1
    62   31   32 1
    63   31   60 1
    64   31   61 1
    65   32   62 1
    66   32   63 1
@<TRIPOS>MOLECULE
CHEMBL456974
   74    78     0     0     0
SMALL
USER_CHARGES

@<TRIPOS>ATOM
      1 C1         -1.4522    0.2008   -2.0903 C.3       1 <0>        -0.1490
      2 C2          0.0125    0.5720   -1.8503 C.3       1 <0>        -0.1009
      3 C3          0.7370   -0.6066   -1.1970 C.3       1 <0>        -0.1511
      4 C4          0.1651   -0.8448    0.2019 C.3       1 <0>        -0.0569
      5 C5          0.7914   -2.0794    0.7972 C.ar      1 <0>        -0.1262
      6 C6          1.8219   -1.9588    1.7109 C.ar      1 <0>        -0.0133
      7 C7          2.3978   -3.0888    2.2582 C.ar      1 <0>        -0.1558
      8 C8          1.9421   -4.3470    1.8908 C.ar      1 <0>         0.1626
      9 C9          0.9085   -4.4677    0.9743 C.ar      1 <0>        -0.2499
     10 C10         0.3302   -3.3332    0.4326 C.ar      1 <0>         0.1478
     11 F1         -0.6809   -3.4489   -0.4560 F         1 <0>        -0.1347
     12 O1          2.5083   -5.4594    2.4282 O.3       1 <0>        -0.3055
     13 C11         1.9887   -6.7212    2.0042 C.3       1 <0>         0.0519
     14 C12         2.7451   -7.8477    2.7112 C.3       1 <0>        -0.1501
     15 C13         3.5213   -2.9552    3.2536 C.3       1 <0>         0.1800
     16 N1          4.8015   -3.1821    2.5785 N.am      1 <0>        -0.7112
     17 C14         5.9527   -3.1129    3.2759 C.2       1 <0>         0.5594
     18 O2          5.9288   -2.8622    4.4650 O.2       1 <0>        -0.5472
     19 C15         7.2447   -3.3418    2.5945 C.ar      1 <0>        -0.1347
     20 C16         7.2761   -3.6242    1.2280 C.ar      1 <0>        -0.0768
     21 C17         8.4850   -3.8363    0.5982 C.ar      1 <0>        -0.1212
     22 C18         9.6646   -3.7701    1.3182 C.ar      1 <0>        -0.0478
     23 C19         9.6405   -3.4911    2.6732 C.ar      1 <0>        -0.1326
     24 C20         8.4387   -3.2708    3.3138 C.ar      1 <0>        -0.0579
     25 C21        10.9815   -4.0035    0.6237 C.3       1 <0>        -0.0136
     26 C22        10.9956   -5.4073    0.0154 C.3       1 <0>        -0.0986
     27 C23        12.3326   -5.6442   -0.6897 C.3       1 <0>        -0.0857
     28 C24        13.4728   -5.5154    0.3224 C.3       1 <0>        -0.1078
     29 C25        13.4587   -4.1116    0.9306 C.3       1 <0>        -0.0858
     30 C26        12.1217   -3.8747    1.6358 C.3       1 <0>        -0.1044
     31 C27        13.6415   -3.0735   -0.1783 C.3       1 <0>        -0.1084
     32 C28        12.5013   -3.2022   -1.1904 C.3       1 <0>        -0.0860
     33 C29        12.5154   -4.6061   -1.7986 C.3       1 <0>        -0.1088
     34 C30        11.1643   -2.9653   -0.4853 C.3       1 <0>        -0.1009
     35 C31         2.2080   -0.2965   -1.0923 C.2       1 <0>         0.5019
     36 O3          3.0237   -1.0183   -1.6401 O.co2     1 <0>        -0.7009
     37 O4          2.5824    0.6762   -0.4597 O.co2     1 <0>        -0.6979
     38 H1         -1.5032   -0.7252   -2.6629 H         1 <0>         0.0486
     39 H2         -1.9539    0.0637   -1.1323 H         1 <0>         0.0503
     40 H3         -1.9430    0.9995   -2.6465 H         1 <0>         0.0448
     41 H4          0.4881    0.8084   -2.8022 H         1 <0>         0.0533
     42 H5          0.0644    1.4399   -1.1929 H         1 <0>         0.0632
     43 H6          0.5965   -1.5010   -1.8040 H         1 <0>         0.0579
     44 H7          0.3840    0.0150    0.8351 H         1 <0>         0.0786
     45 H8         -0.9143   -0.9812    0.1348 H         1 <0>         0.0626
     46 H9          2.1772   -0.9798    1.9970 H         1 <0>         0.1442
     47 H10         0.5524   -5.4460    0.6867 H         1 <0>         0.1366
     48 H11         0.9298   -6.7811    2.2554 H         1 <0>         0.0612
     49 H12         2.1126   -6.8214    0.9259 H         1 <0>         0.0626
     50 H13         2.3488   -8.8103    2.3878 H         1 <0>         0.0760
     51 H14         3.8040   -7.7879    2.4600 H         1 <0>         0.0660
     52 H15         2.6212   -7.7476    3.7895 H         1 <0>         0.0654
     53 H16         3.5094   -1.9533    3.6827 H         1 <0>         0.0771
     54 H17         3.3934   -3.6918    4.0469 H         1 <0>         0.0788
     55 H18         4.8206   -3.3822    1.6295 H         1 <0>         0.4039
     56 H19         6.3559   -3.6768    0.6650 H         1 <0>         0.1280
     57 H20         8.5107   -4.0549   -0.4592 H         1 <0>         0.1266
     58 H21        10.5648   -3.4413    3.2296 H         1 <0>         0.1302
     59 H22         8.4216   -3.0483    4.3705 H         1 <0>         0.1336
     60 H23        10.8654   -6.1469    0.8055 H         1 <0>         0.0634
     61 H24        10.1833   -5.4990   -0.7056 H         1 <0>         0.0659
     62 H25        12.3427   -6.6443   -1.1230 H         1 <0>         0.0692
     63 H26        13.3426   -6.2550    1.1124 H         1 <0>         0.0607
     64 H27        14.4253   -5.6842   -0.1800 H         1 <0>         0.0600
     65 H28        14.2710   -4.0199    1.6517 H         1 <0>         0.0689
     66 H29        12.1117   -2.8746    2.0691 H         1 <0>         0.0668
     67 H30        11.9915   -4.6143    2.4258 H         1 <0>         0.0659
     68 H31        13.6314   -2.0734    0.2550 H         1 <0>         0.0618
     69 H32        14.5940   -3.2422   -0.6806 H         1 <0>         0.0601
     70 H33        12.6314   -2.4626   -1.9804 H         1 <0>         0.0706
     71 H34        13.4679   -4.7748   -2.3010 H         1 <0>         0.0602
     72 H35        11.7031   -4.6978   -2.5196 H         1 <0>         0.0626
     73 H36        10.3520   -3.0571   -1.2063 H         1 <0>         0.0672
     74 H37        11.1542   -1.9652   -0.0519 H         1 <0>         0.0654
@<TRIPOS>BOND
     1    1    2 1
     2    1   38 1
     3    1   39 1
     4    1   40 1
     5    2    3 1
     6    2   41 1
     7    2   42 1
     8    3    4 1
     9    3   35 1
    10    3   43 1
    11    4    5 1
    12    4   44 1
    13    4   45 1
    14    5   10 ar
    15    5    6 ar
    16    6    7 ar
    17    6   46 1
    18    7    8 ar
    19    7   15 1
    20    8    9 ar
    21    8   12 1
    22    9   10 ar
    23    9   47 1
    24   10   11 1
    25   12   13 1
    26   13   14 1
    27   13   48 1
    28   13   49 1
    29   14   50 1
    30   14   51 1
    31   14   52 1
    32   15   16 1
    33   15   53 1
    34   15   54 1
    35   16   17 am
    36   16   55 1
    37   17   18 2
    38   17   19 1
    39   19   24 ar
    40   19   20 ar
    41   20   21 ar
    42   20   56 1
    43   21   22 ar
    44   21   57 1
    45   22   23 ar
    46   22   25 1
    47   23   24 ar
    48   23   58 1
    49   24   59 1
    50   25   30 1
    51   25   34 1
    52   25   26 1
    53   26   27 1
    54   26   60 1
    55   26   61 1
    56   27   33 1
    57   27   28 1
    58   27   62 1
    59   28   29 1
    60   28   63 1
    61   28   64 1
    62   29   30 1
    63   29   31 1
    64   29   65 1
    65   30   66 1
    66   30   67 1
    67   31   32 1
    68   31   68 1
    69   31   69 1
    70   32   33 1
    71   32   34 1
    72   32   70 1
    73   33   71 1
    74   33   72 1
    75   34   73 1
    76   34   74 1
    77   35   36 2
    78   35   37 1
@<TRIPOS>MOLECULE
CHEMBL456974__1
   74    78     0     0     0
SMALL
USER_CHARGES

@<TRIPOS>ATOM
      1 C1         -0.0187    1.5258    0.0104 C.3       1 <0>        -0.1439
      2 C2          0.0021   -0.0041    0.0020 C.3       1 <0>        -0.0991
      3 C3          0.7182   -0.4975   -1.2568 C.3       1 <0>        -0.1572
      4 C4          0.8493   -2.0210   -1.2049 C.3       1 <0>        -0.0556
      5 C5          1.6611   -2.4957   -2.3824 C.ar      1 <0>        -0.1414
      6 C6          2.9978   -2.8085   -2.2183 C.ar      1 <0>        -0.0348
      7 C7          3.7443   -3.2439   -3.2958 C.ar      1 <0>        -0.1715
      8 C8          3.1527   -3.3677   -4.5450 C.ar      1 <0>         0.1661
      9 C9          1.8121   -3.0539   -4.7094 C.ar      1 <0>        -0.2536
     10 C10         1.0660   -2.6234   -3.6263 C.ar      1 <0>         0.1786
     11 F1         -0.2417   -2.3230   -3.7834 F         1 <0>        -0.0957
     12 O1          3.8864   -3.7955   -5.6059 O.3       1 <0>        -0.3078
     13 C11         3.2121   -3.8991   -6.8615 C.3       1 <0>         0.0507
     14 C12         4.1923   -4.3924   -7.9277 C.3       1 <0>        -0.1489
     15 C13         5.2013   -3.5839   -3.1150 C.3       1 <0>         0.1825
     16 N1          6.0251   -2.4636   -3.5762 N.am      1 <0>        -0.7138
     17 C14         7.3689   -2.5432   -3.5098 C.2       1 <0>         0.5578
     18 O2          7.8973   -3.5445   -3.0674 O.2       1 <0>        -0.5451
     19 C15         8.2002   -1.4127   -3.9752 C.ar      1 <0>        -0.1362
     20 C16         7.5964   -0.2592   -4.4784 C.ar      1 <0>        -0.0801
     21 C17         8.3780    0.7923   -4.9106 C.ar      1 <0>        -0.1219
     22 C18         9.7573    0.7051   -4.8465 C.ar      1 <0>        -0.0462
     23 C19        10.3621   -0.4357   -4.3492 C.ar      1 <0>        -0.1313
     24 C20         9.5921   -1.4919   -3.9079 C.ar      1 <0>        -0.0577
     25 C21        10.6047    1.8574   -5.3208 C.3       1 <0>        -0.0144
     26 C22        10.3177    2.1269   -6.7993 C.3       1 <0>        -0.0990
     27 C23        11.1780    3.2968   -7.2809 C.3       1 <0>        -0.0859
     28 C24        12.6573    2.9489   -7.1037 C.3       1 <0>        -0.1084
     29 C25        12.9444    2.6795   -5.6252 C.3       1 <0>        -0.0859
     30 C26        12.0840    1.5095   -5.1436 C.3       1 <0>        -0.1044
     31 C27        12.6124    3.9280   -4.8055 C.3       1 <0>        -0.1085
     32 C28        11.1330    4.2759   -4.9827 C.3       1 <0>        -0.0860
     33 C29        10.8460    4.5453   -6.4612 C.3       1 <0>        -0.1091
     34 C30        10.2727    3.1059   -4.5011 C.3       1 <0>        -0.0996
     35 C31        -0.0771   -0.1029   -2.4745 C.2       1 <0>         0.5037
     36 O3          0.4235    0.6153   -3.3231 O.co2     1 <0>        -0.7055
     37 O4         -1.2211   -0.5017   -2.6110 O.co2     1 <0>        -0.6883
     38 H1          1.0039    1.9031    0.0027 H         1 <0>         0.0455
     39 H2         -0.5459    1.8868   -0.8726 H         1 <0>         0.0586
     40 H3         -0.5289    1.8773    0.9072 H         1 <0>         0.0418
     41 H4          0.5293   -0.3651    0.8851 H         1 <0>         0.0435
     42 H5         -1.0205   -0.3814    0.0098 H         1 <0>         0.0634
     43 H6          1.7103   -0.0491   -1.3098 H         1 <0>         0.0574
     44 H7          1.3468   -2.3116   -0.2797 H         1 <0>         0.0607
     45 H8         -0.1422   -2.4724   -1.2416 H         1 <0>         0.0766
     46 H9          3.4588   -2.7120   -1.2464 H         1 <0>         0.1356
     47 H10         1.3497   -3.1491   -5.6808 H         1 <0>         0.1367
     48 H11         2.3860   -4.6047   -6.7731 H         1 <0>         0.0624
     49 H12         2.8255   -2.9211   -7.1481 H         1 <0>         0.0645
     50 H13         3.6779   -4.4715   -8.8854 H         1 <0>         0.0765
     51 H14         5.0184   -3.6868   -8.0161 H         1 <0>         0.0649
     52 H15         4.5789   -5.3704   -7.6411 H         1 <0>         0.0646
     53 H16         5.4022   -3.7726   -2.0605 H         1 <0>         0.0747
     54 H17         5.4413   -4.4746   -3.6957 H         1 <0>         0.0781
     55 H18         5.6034   -1.6646   -3.9292 H         1 <0>         0.4021
     56 H19         6.5199   -0.1902   -4.5297 H         1 <0>         0.1271
     57 H20         7.9121    1.6853   -5.3002 H         1 <0>         0.1270
     58 H21        11.4393   -0.4975   -4.3021 H         1 <0>         0.1309
     59 H22        10.0653   -2.3798   -3.5154 H         1 <0>         0.1339
     60 H23        10.5542    1.2374   -7.3833 H         1 <0>         0.0638
     61 H24         9.2638    2.3747   -6.9255 H         1 <0>         0.0660
     62 H25        10.9735    3.4888   -8.3342 H         1 <0>         0.0701
     63 H26        12.8939    2.0594   -7.6877 H         1 <0>         0.0611
     64 H27        13.2703    3.7824   -7.4468 H         1 <0>         0.0607
     65 H28        13.9983    2.4316   -5.4990 H         1 <0>         0.0694
     66 H29        12.2885    1.3176   -4.0903 H         1 <0>         0.0664
     67 H30        12.3206    0.6201   -5.7276 H         1 <0>         0.0662
     68 H31        12.8168    3.7360   -3.7522 H         1 <0>         0.0615
     69 H32        13.2253    4.7615   -5.1486 H         1 <0>         0.0607
     70 H33        10.8965    5.1653   -4.3987 H         1 <0>         0.0706
     71 H34        11.4589    5.3788   -6.8043 H         1 <0>         0.0609
     72 H35         9.7921    4.7932   -6.5874 H         1 <0>         0.0628
     73 H36         9.2188    3.3538   -4.6273 H         1 <0>         0.0664
     74 H37        10.4772    2.9140   -3.4478 H         1 <0>         0.0644
@<TRIPOS>BOND
     1    1    2 1
     2    1   38 1
     3    1   39 1
     4    1   40 1
     5    2    3 1
     6    2   41 1
     7    2   42 1
     8    3    4 1
     9    3   35 1
    10    3   43 1
    11    4    5 1
    12    4   44 1
    13    4   45 1
    14    5   10 ar
    15    5    6 ar
    16    6    7 ar
    17    6   46 1
    18    7    8 ar
    19    7   15 1
    20    8    9 ar
    21    8   12 1
    22    9   10 ar
    23    9   47 1
    24   10   11 1
    25   12   13 1
    26   13   14 1
    27   13   48 1
    28   13   49 1
    29   14   50 1
    30   14   51 1
    31   14   52 1
    32   15   16 1
    33   15   53 1
    34   15   54 1
    35   16   17 am
    36   16   55 1
    37   17   18 2
    38   17   19 1
    39   19   24 ar
    40   19   20 ar
    41   20   21 ar
    42   20   56 1
    43   21   22 ar
    44   21   57 1
    45   22   23 ar
    46   22   25 1
    47   23   24 ar
    48   23   58 1
    49   24   59 1
    50   25   30 1
    51   25   34 1
    52   25   26 1
    53   26   27 1
    54   26   60 1
    55   26   61 1
    56   27   33 1
    57   27   28 1
    58   27   62 1
    59   28   29 1
    60   28   63 1
    61   28   64 1
    62   29   30 1
    63   29   31 1
    64   29   65 1
    65   30   66 1
    66   30   67 1
    67   31   32 1
    68   31   68 1
    69   31   69 1
    70   32   33 1
    71   32   34 1
    72   32   70 1
    73   33   71 1
    74   33   72 1
    75   34   73 1
    76   34   74 1
    77   35   36 2
    78   35   37 1
@<TRIPOS>MOLECULE
CHEMBL201880
   69    73     0     0     0
SMALL
USER_CHARGES

@<TRIPOS>ATOM
      1 C1         -0.6540    1.0471    0.5607 C.3       1 <0>        -0.1522
      2 C2         -0.4152   -0.4263    0.2244 C.3       1 <0>        -0.1173
      3 C3          0.5384   -0.5293   -0.9676 C.3       1 <0>        -0.0705
      4 C4          0.7737   -1.9805   -1.2987 C.ar      1 <0>        -0.1245
      5 C5          1.8261   -2.6815   -0.6910 C.ar      1 <0>         0.0161
      6 C6          2.6786   -2.0490    0.2343 C.ar      1 <0>        -0.1228
      7 C7          3.6905   -2.7441    0.8109 C.ar      1 <0>        -0.0615
      8 C8          3.9044   -4.0998    0.4972 C.ar      1 <0>        -0.1747
      9 C9          3.0814   -4.7505   -0.4100 C.ar      1 <0>        -0.0391
     10 C10         2.0309   -4.0474   -1.0158 C.ar      1 <0>        -0.0984
     11 C11         1.1762   -4.6768   -1.9402 C.ar      1 <0>        -0.0586
     12 C12         0.1640   -3.9743   -2.5137 C.ar      1 <0>        -0.1893
     13 C13        -0.0466   -2.6283   -2.1953 C.ar      1 <0>         0.1513
     14 O1         -1.0690   -1.9520   -2.7798 O.3       1 <0>        -0.3027
     15 C14        -1.8847   -2.6786   -3.7011 C.3       1 <0>         0.0611
     16 C15        -2.9751   -1.7581   -4.2528 C.3       1 <0>        -0.1178
     17 C16        -3.8485   -2.5361   -5.2392 C.3       1 <0>         0.0668
     18 O2         -4.8669   -1.6763   -5.7545 O.3       1 <0>        -0.3172
     19 C17        -5.7352   -2.2161   -6.6512 C.ar      1 <0>         0.0855
     20 C18        -5.6083   -3.5527   -7.0211 C.ar      1 <0>        -0.1889
     21 C19        -6.4791   -4.1152   -7.9272 C.ar      1 <0>        -0.0761
     22 C20        -7.4973   -3.3471   -8.4823 C.ar      1 <0>         0.0882
     23 C21        -7.6280   -1.9972   -8.1108 C.ar      1 <0>        -0.0750
     24 C22        -6.7422   -1.4384   -7.1867 C.ar      1 <0>        -0.1116
     25 C23        -8.7757   -1.4798   -8.8598 C.2       1 <0>        -0.2343
     26 C24        -9.2492   -2.4928   -9.6027 C.2       1 <0>         0.0795
     27 N1         -8.4988   -3.6169   -9.3910 N.pl3     1 <0>        -0.4416
     28 C25        -8.7248   -4.9135  -10.0344 C.3       1 <0>         0.0318
     29 C26        -9.5660   -5.7812   -9.1340 C.2       1 <0>         0.4801
     30 O3         -9.9418   -5.3559   -8.0549 O.co2     1 <0>        -0.6713
     31 O4         -9.8707   -6.9084   -9.4846 O.co2     1 <0>        -0.6928
     32 C27         5.0128   -4.8337    1.1379 C.2       1 <0>         0.4398
     33 O5          5.6483   -4.3135    2.0344 O.2       1 <0>        -0.4478
     34 C28         5.3502   -6.2007    0.6899 C.ar      1 <0>        -0.1553
     35 C29         5.2146   -6.5517   -0.6551 C.ar      1 <0>        -0.0877
     36 C30         5.5313   -7.8296   -1.0663 C.ar      1 <0>        -0.1276
     37 C31         5.9821   -8.7632   -0.1496 C.ar      1 <0>        -0.0935
     38 C32         6.1184   -8.4224    1.1847 C.ar      1 <0>        -0.1269
     39 C33         5.8116   -7.1462    1.6086 C.ar      1 <0>        -0.0675
     40 H1          0.2949    1.5207    0.8125 H         1 <0>         0.0525
     41 H2         -1.0936    1.5497   -0.3008 H         1 <0>         0.0559
     42 H3         -1.3334    1.1205    1.4099 H         1 <0>         0.0541
     43 H4          0.0244   -0.9289    1.0860 H         1 <0>         0.0600
     44 H5         -1.3641   -0.8999   -0.0274 H         1 <0>         0.0644
     45 H6          0.0988   -0.0267   -1.8291 H         1 <0>         0.0794
     46 H7          1.4873   -0.0557   -0.7157 H         1 <0>         0.0717
     47 H8          2.5267   -1.0094    0.4848 H         1 <0>         0.1359
     48 H9          4.3403   -2.2515    1.5190 H         1 <0>         0.1335
     49 H10         3.2488   -5.7906   -0.6480 H         1 <0>         0.1437
     50 H11         1.3248   -5.7161   -2.1936 H         1 <0>         0.1348
     51 H12        -0.4886   -4.4625   -3.2223 H         1 <0>         0.1355
     52 H13        -1.2681   -3.0442   -4.5222 H         1 <0>         0.0679
     53 H14        -2.3466   -3.5231   -3.1896 H         1 <0>         0.0687
     54 H15        -3.5917   -1.3925   -3.4317 H         1 <0>         0.0861
     55 H16        -2.5132   -0.9136   -4.7643 H         1 <0>         0.0854
     56 H17        -3.2319   -2.9017   -6.0603 H         1 <0>         0.0612
     57 H18        -4.3104   -3.3806   -4.7277 H         1 <0>         0.0624
     58 H19        -4.8193   -4.1535   -6.5935 H         1 <0>         0.1225
     59 H20        -6.3713   -5.1527   -8.2073 H         1 <0>         0.1178
     60 H21        -6.8420   -0.4031   -6.8959 H         1 <0>         0.1237
     61 H22        -9.1673   -0.4740   -8.8213 H         1 <0>         0.1414
     62 H23       -10.0969   -2.4297  -10.2688 H         1 <0>         0.1607
     63 H24        -9.2426   -4.7637  -10.9818 H         1 <0>         0.0877
     64 H25        -7.7669   -5.4005  -10.2169 H         1 <0>         0.0822
     65 H26         4.8622   -5.8244   -1.3715 H         1 <0>         0.1355
     66 H27         5.4269   -8.1024   -2.1061 H         1 <0>         0.1309
     67 H28         6.2283   -9.7625   -0.4770 H         1 <0>         0.1280
     68 H29         6.4700   -9.1560    1.8949 H         1 <0>         0.1299
     69 H30         5.9231   -6.8801    2.6494 H         1 <0>         0.1310
@<TRIPOS>BOND
     1    1    2 1
     2    1   40 1
     3    1   41 1
     4    1   42 1
     5    2    3 1
     6    2   43 1
     7    2   44 1
     8    3    4 1
     9    3   45 1
    10    3   46 1
    11    4   13 ar
    12    4    5 ar
    13    5   10 ar
    14    5    6 ar
    15    6    7 ar
    16    6   47 1
    17    7    8 ar
    18    7   48 1
    19    8    9 ar
    20    8   32 1
    21    9   10 ar
    22    9   49 1
    23   10   11 ar
    24   11   12 ar
    25   11   50 1
    26   12   13 ar
    27   12   51 1
    28   13   14 1
    29   14   15 1
    30   15   16 1
    31   15   52 1
    32   15   53 1
    33   16   17 1
    34   16   54 1
    35   16   55 1
    36   17   18 1
    37   17   56 1
    38   17   57 1
    39   18   19 1
    40   19   24 ar
    41   19   20 ar
    42   20   21 ar
    43   20   58 1
    44   21   22 ar
    45   21   59 1
    46   22   27 1
    47   22   23 ar
    48   23   24 ar
    49   23   25 1
    50   24   60 1
    51   25   26 2
    52   25   61 1
    53   26   27 1
    54   26   62 1
    55   27   28 1
    56   28   29 1
    57   28   63 1
    58   28   64 1
    59   29   30 2
    60   29   31 1
    61   32   33 2
    62   32   34 1
    63   34   39 ar
    64   34   35 ar
    65   35   36 ar
    66   35   65 1
    67   36   37 ar
    68   36   66 1
    69   37   38 ar
    70   37   67 1
    71   38   39 ar
    72   38   68 1
    73   39   69 1
@<TRIPOS>MOLECULE
CHEMBL200305
   57    60     0     0     0
SMALL
USER_CHARGES

@<TRIPOS>ATOM
      1 C1         -0.0187    1.5258    0.0104 C.3       1 <0>        -0.1443
      2 C2          0.0021   -0.0041    0.0020 C.3       1 <0>        -0.1046
      3 C3         -1.4333   -0.5336    0.0129 C.3       1 <0>        -0.1400
      4 C4         -1.4133   -2.0590    0.1302 C.3       1 <0>        -0.0278
      5 C5         -2.8531   -2.6087    0.2133 C.3       1 <0>        -0.1158
      6 C6         -3.0960   -2.6732    1.7361 C.3       1 <0>        -0.0788
      7 C7         -1.7213   -2.8306    2.3502 C.ar      1 <0>        -0.0571
      8 C8         -0.7538   -2.4774    1.4271 C.ar      1 <0>        -0.1004
      9 C9          0.5862   -2.5438    1.7707 C.ar      1 <0>        -0.0682
     10 C10         0.9619   -2.9620    3.0316 C.ar      1 <0>        -0.2075
     11 C11        -0.0066   -3.3168    3.9590 C.ar      1 <0>         0.1151
     12 C12        -1.3479   -3.2496    3.6149 C.ar      1 <0>        -0.1381
     13 O1          0.3584   -3.7297    5.2013 O.3       1 <0>        -0.3144
     14 C13         1.7582   -3.7745    5.4848 C.3       1 <0>         0.0483
     15 C14         1.9726   -4.2594    6.9200 C.3       1 <0>         0.1363
     16 N1          3.4078   -4.3053    7.2107 N.pl3     1 <0>        -0.3639
     17 C15         4.2239   -5.3620    7.0080 C.2       1 <0>         0.0893
     18 C16         5.4677   -5.0092    7.3993 C.2       1 <0>        -0.2585
     19 C17         5.4140   -3.6799    7.8619 C.2       1 <0>         0.1145
     20 N2          4.1728   -3.2589    7.7415 N.2       1 <0>        -0.2797
     21 C18         6.5565   -2.8913    8.3870 C.ar      1 <0>        -0.0144
     22 C19         7.8275   -3.4585    8.4496 C.ar      1 <0>        -0.0954
     23 C20         8.8865   -2.7205    8.9383 C.ar      1 <0>        -0.1220
     24 C21         8.6877   -1.4200    9.3655 C.ar      1 <0>        -0.1137
     25 C22         7.4278   -0.8521    9.3060 C.ar      1 <0>        -0.1217
     26 C23         6.3629   -1.5792    8.8137 C.ar      1 <0>        -0.0919
     27 C24         3.8182   -6.6996    6.4448 C.3       1 <0>        -0.0968
     28 C25        -2.1247   -0.1373   -1.2662 C.2       1 <0>         0.5047
     29 O2         -1.6815   -0.5094   -2.3393 O.co2     1 <0>        -0.6981
     30 O3         -3.1272    0.5556   -1.2278 O.co2     1 <0>        -0.7024
     31 H1          1.0039    1.9031    0.0027 H         1 <0>         0.0410
     32 H2         -0.5459    1.8868   -0.8726 H         1 <0>         0.0583
     33 H3         -0.5289    1.8773    0.9072 H         1 <0>         0.0452
     34 H4          0.5123   -0.3556   -0.8948 H         1 <0>         0.0614
     35 H5          0.5293   -0.3651    0.8851 H         1 <0>         0.0485
     36 H6         -1.9701   -0.1109    0.8621 H         1 <0>         0.0583
     37 H7         -0.8884   -2.4962   -0.7192 H         1 <0>         0.0808
     38 H8         -3.5566   -1.9256   -0.2627 H         1 <0>         0.0878
     39 H9         -2.9148   -3.6020   -0.2313 H         1 <0>         0.0652
     40 H10        -3.5624   -1.7515    2.0840 H         1 <0>         0.0832
     41 H11        -3.7211   -3.5312    1.9833 H         1 <0>         0.0717
     42 H12         1.3406   -2.2676    1.0489 H         1 <0>         0.1235
     43 H13         2.0079   -3.0131    3.2953 H         1 <0>         0.1217
     44 H14        -2.1033   -3.5255    4.3358 H         1 <0>         0.1250
     45 H15         2.2473   -4.4601    4.7928 H         1 <0>         0.0657
     46 H16         2.1842   -2.7777    5.3706 H         1 <0>         0.0708
     47 H17         1.4835   -3.5738    7.6120 H         1 <0>         0.1085
     48 H18         1.5467   -5.2562    7.0343 H         1 <0>         0.1062
     49 H19         6.3470   -5.6353    7.3642 H         1 <0>         0.1501
     50 H20         7.9838   -4.4740    8.1166 H         1 <0>         0.1269
     51 H21         9.8721   -3.1593    8.9876 H         1 <0>         0.1257
     52 H22         9.5191   -0.8461    9.7473 H         1 <0>         0.1231
     53 H23         7.2780    0.1635    9.6412 H         1 <0>         0.1253
     54 H24         5.3806   -1.1333    8.7632 H         1 <0>         0.1288
     55 H25         3.9226   -6.6838    5.3599 H         1 <0>         0.0833
     56 H26         4.4583   -7.4779    6.8601 H         1 <0>         0.0880
     57 H27         2.7802   -6.9045    6.7070 H         1 <0>         0.0734
@<TRIPOS>BOND
     1    1    2 1
     2    1   31 1
     3    1   32 1
     4    1   33 1
     5    2    3 1
     6    2   34 1
     7    2   35 1
     8    3    4 1
     9    3   28 1
    10    3   36 1
    11    4    8 1
    12    4    5 1
    13    4   37 1
    14    5    6 1
    15    5   38 1
    16    5   39 1
    17    6    7 1
    18    6   40 1
    19    6   41 1
    20    7   12 ar
    21    7    8 ar
    22    8    9 ar
    23    9   10 ar
    24    9   42 1
    25   10   11 ar
    26   10   43 1
    27   11   12 ar
    28   11   13 1
    29   12   44 1
    30   13   14 1
    31   14   15 1
    32   14   45 1
    33   14   46 1
    34   15   16 1
    35   15   47 1
    36   15   48 1
    37   16   20 1
    38   16   17 1
    39   17   18 2
    40   17   27 1
    41   18   19 1
    42   18   49 1
    43   19   20 2
    44   19   21 1
    45   21   26 ar
    46   21   22 ar
    47   22   23 ar
    48   22   50 1
    49   23   24 ar
    50   23   51 1
    51   24   25 ar
    52   24   52 1
    53   25   26 ar
    54   25   53 1
    55   26   54 1
    56   27   55 1
    57   27   56 1
    58   27   57 1
    59   28   29 2
    60   28   30 1
@<TRIPOS>MOLECULE
CHEMBL200305__1
   57    60     0     0     0
SMALL
USER_CHARGES

@<TRIPOS>ATOM
      1 C1         -0.0187    1.5258    0.0104 C.3       1 <0>        -0.1450
      2 C2          0.0021   -0.0041    0.0020 C.3       1 <0>        -0.1005
      3 C3         -1.4333   -0.5336    0.0129 C.3       1 <0>        -0.1490
      4 C4         -1.4133   -2.0590    0.1302 C.3       1 <0>        -0.0290
      5 C5         -0.7712   -2.4848    1.4676 C.3       1 <0>        -0.1156
      6 C6         -1.5777   -3.7484    1.8351 C.3       1 <0>        -0.0757
      7 C7         -2.9205   -3.5718    1.1588 C.ar      1 <0>        -0.0716
      8 C8         -2.8261   -2.6007    0.1786 C.ar      1 <0>        -0.1023
      9 C9         -3.9396   -2.2691   -0.5753 C.ar      1 <0>        -0.0495
     10 C10        -5.1451   -2.9041   -0.3533 C.ar      1 <0>        -0.2053
     11 C11        -5.2423   -3.8783    0.6293 C.ar      1 <0>         0.1142
     12 C12        -4.1276   -4.2098    1.3840 C.ar      1 <0>        -0.1468
     13 O1         -6.4271   -4.5056    0.8520 O.3       1 <0>        -0.3161
     14 C13        -7.5328   -4.1122    0.0368 C.3       1 <0>         0.0466
     15 C14        -8.7701   -4.9215    0.4304 C.3       1 <0>         0.1377
     16 N1         -9.9037   -4.5181   -0.4054 N.pl3     1 <0>        -0.3632
     17 C15       -10.7815   -3.5303   -0.1271 C.2       1 <0>         0.0905
     18 C16       -11.6746   -3.4690   -1.1387 C.2       1 <0>        -0.2587
     19 C17       -11.3315   -4.4606   -2.0783 C.2       1 <0>         0.1131
     20 N2        -10.2616   -5.0860   -1.6348 N.2       1 <0>        -0.2799
     21 C18       -12.0465   -4.7460   -3.3472 C.ar      1 <0>        -0.0125
     22 C19       -13.1654   -3.9959   -3.7031 C.ar      1 <0>        -0.0954
     23 C20       -13.8263   -4.2653   -4.8845 C.ar      1 <0>        -0.1221
     24 C21       -13.3797   -5.2776   -5.7145 C.ar      1 <0>        -0.1147
     25 C22       -12.2697   -6.0256   -5.3658 C.ar      1 <0>        -0.1220
     26 C23       -11.5978   -5.7610   -4.1895 C.ar      1 <0>        -0.0921
     27 C24       -10.7675   -2.6514    1.0970 C.3       1 <0>        -0.0973
     28 C25        -2.1247   -0.1373   -1.2662 C.2       1 <0>         0.5055
     29 O2         -1.6815   -0.5094   -2.3393 O.co2     1 <0>        -0.6986
     30 O3         -3.1272    0.5556   -1.2278 O.co2     1 <0>        -0.7013
     31 H1          1.0039    1.9031    0.0027 H         1 <0>         0.0417
     32 H2         -0.5459    1.8868   -0.8726 H         1 <0>         0.0580
     33 H3         -0.5289    1.8773    0.9072 H         1 <0>         0.0457
     34 H4          0.5123   -0.3556   -0.8948 H         1 <0>         0.0624
     35 H5          0.5293   -0.3651    0.8851 H         1 <0>         0.0464
     36 H6         -1.9701   -0.1109    0.8621 H         1 <0>         0.0587
     37 H7         -0.8695   -2.4951   -0.7078 H         1 <0>         0.0856
     38 H8          0.2835   -2.7242    1.3321 H         1 <0>         0.0721
     39 H9         -0.8997   -1.7098    2.2232 H         1 <0>         0.0705
     40 H10        -1.0777   -4.6397    1.4562 H         1 <0>         0.0773
     41 H11        -1.7043   -3.8153    2.9156 H         1 <0>         0.0705
     42 H12        -3.8643   -1.5107   -1.3405 H         1 <0>         0.1497
     43 H13        -6.0110   -2.6426   -0.9433 H         1 <0>         0.1212
     44 H14        -4.2014   -4.9681    2.1494 H         1 <0>         0.1216
     45 H15        -7.7318   -3.0504    0.1822 H         1 <0>         0.0672
     46 H16        -7.2958   -4.2973   -1.0109 H         1 <0>         0.0712
     47 H17        -8.5712   -5.9832    0.2850 H         1 <0>         0.1074
     48 H18        -9.0072   -4.7363    1.4781 H         1 <0>         0.1056
     49 H19       -12.5046   -2.7821   -1.2134 H         1 <0>         0.1500
     50 H20       -13.5151   -3.2055   -3.0556 H         1 <0>         0.1271
     51 H21       -14.6939   -3.6847   -5.1612 H         1 <0>         0.1254
     52 H22       -13.8998   -5.4850   -6.6380 H         1 <0>         0.1225
     53 H23       -11.9254   -6.8152   -6.0173 H         1 <0>         0.1247
     54 H24       -10.7284   -6.3425   -3.9204 H         1 <0>         0.1288
     55 H25       -10.1620   -1.7663    0.9018 H         1 <0>         0.0850
     56 H26       -11.7863   -2.3486    1.3385 H         1 <0>         0.0876
     57 H27       -10.3440   -3.2036    1.9359 H         1 <0>         0.0730
@<TRIPOS>BOND
     1    1    2 1
     2    1   31 1
     3    1   32 1
     4    1   33 1
     5    2    3 1
     6    2   34 1
     7    2   35 1
     8    3    4 1
     9    3   28 1
    10    3   36 1
    11    4    8 1
    12    4    5 1
    13    4   37 1
    14    5    6 1
    15    5   38 1
    16    5   39 1
    17    6    7 1
    18    6   40 1
    19    6   41 1
    20    7   12 ar
    21    7    8 ar
    22    8    9 ar
    23    9   10 ar
    24    9   42 1
    25   10   11 ar
    26   10   43 1
    27   11   12 ar
    28   11   13 1
    29   12   44 1
    30   13   14 1
    31   14   15 1
    32   14   45 1
    33   14   46 1
    34   15   16 1
    35   15   47 1
    36   15   48 1
    37   16   20 1
    38   16   17 1
    39   17   18 2
    40   17   27 1
    41   18   19 1
    42   18   49 1
    43   19   20 2
    44   19   21 1
    45   21   26 ar
    46   21   22 ar
    47   22   23 ar
    48   22   50 1
    49   23   24 ar
    50   23   51 1
    51   24   25 ar
    52   24   52 1
    53   25   26 ar
    54   25   53 1
    55   26   54 1
    56   27   55 1
    57   27   56 1
    58   27   57 1
    59   28   29 2
    60   28   30 1
@<TRIPOS>MOLECULE
CHEMBL200305__2
   57    60     0     0     0
SMALL
USER_CHARGES

@<TRIPOS>ATOM
      1 C1         -0.0187    1.5258    0.0104 C.3       1 <0>        -0.1510
      2 C2          0.0021   -0.0041    0.0020 C.3       1 <0>        -0.0925
      3 C3         -1.4333   -0.5336    0.0129 C.3       1 <0>        -0.1452
      4 C4         -1.4157   -2.0577   -0.1212 C.3       1 <0>        -0.0265
      5 C5         -0.7993   -2.4690   -1.4751 C.3       1 <0>        -0.1209
      6 C6         -2.0414   -2.5821   -2.3841 C.3       1 <0>        -0.0737
      7 C7         -3.1888   -2.9005   -1.4494 C.ar      1 <0>        -0.0709
      8 C8         -2.8292   -2.5990   -0.1484 C.ar      1 <0>        -0.0949
      9 C9         -3.7280   -2.8107    0.8838 C.ar      1 <0>         0.0078
     10 C10        -4.9828   -3.3226    0.6205 C.ar      1 <0>        -0.2172
     11 C11        -5.3456   -3.6259   -0.6835 C.ar      1 <0>         0.1157
     12 C12        -4.4459   -3.4132   -1.7166 C.ar      1 <0>        -0.1555
     13 O1         -6.5795   -4.1307   -0.9475 O.3       1 <0>        -0.3179
     14 C13        -7.4534   -4.3240    0.1665 C.3       1 <0>         0.0486
     15 C14        -8.7856   -4.8949   -0.3235 C.3       1 <0>         0.1368
     16 N1         -9.6816   -5.0930    0.8186 N.pl3     1 <0>        -0.3621
     17 C15        -9.7747   -6.2127    1.5677 C.2       1 <0>         0.0887
     18 C16       -10.7091   -6.0007    2.5200 C.2       1 <0>        -0.2592
     19 C17       -11.2114   -4.6959    2.3491 C.2       1 <0>         0.1123
     20 N2        -10.5859   -4.1518    1.3268 N.2       1 <0>        -0.2779
     21 C18       -12.2571   -4.0472    3.1788 C.ar      1 <0>        -0.0126
     22 C19       -12.8317   -4.7368    4.2443 C.ar      1 <0>        -0.0959
     23 C20       -13.8034   -4.1286    5.0130 C.ar      1 <0>        -0.1226
     24 C21       -14.2068   -2.8368    4.7272 C.ar      1 <0>        -0.1147
     25 C22       -13.6399   -2.1477    3.6703 C.ar      1 <0>        -0.1215
     26 C23       -12.6634   -2.7443    2.8987 C.ar      1 <0>        -0.0917
     27 C24        -8.9770   -7.4766    1.3750 C.3       1 <0>        -0.0961
     28 C25        -2.1001   -0.1511    1.3091 C.2       1 <0>         0.4956
     29 O2         -1.4843    0.4861    2.1465 O.co2     1 <0>        -0.6943
     30 O3         -3.2553   -0.4788    1.5203 O.co2     1 <0>        -0.6880
     31 H1          1.0039    1.9031    0.0027 H         1 <0>         0.0343
     32 H2         -0.5459    1.8868   -0.8726 H         1 <0>         0.0334
     33 H3         -0.5289    1.8773    0.9072 H         1 <0>         0.0841
     34 H4          0.5123   -0.3556   -0.8948 H         1 <0>         0.0390
     35 H5          0.5293   -0.3651    0.8851 H         1 <0>         0.0574
     36 H6         -1.9862   -0.1019   -0.8214 H         1 <0>         0.0593
     37 H7         -0.8561   -2.5026    0.7016 H         1 <0>         0.0675
     38 H8         -0.1199   -1.6993   -1.8413 H         1 <0>         0.0782
     39 H9         -0.2904   -3.4294   -1.3932 H         1 <0>         0.0652
     40 H10        -2.2222   -1.6372   -2.8967 H         1 <0>         0.0758
     41 H11        -1.9086   -3.3864   -3.1077 H         1 <0>         0.0678
     42 H12        -3.4459   -2.5747    1.8992 H         1 <0>         0.1304
     43 H13        -5.6804   -3.4870    1.4284 H         1 <0>         0.1167
     44 H14        -4.7268   -3.6488   -2.7325 H         1 <0>         0.1177
     45 H15        -6.9966   -5.0199    0.8701 H         1 <0>         0.0646
     46 H16        -7.6276   -3.3687    0.6616 H         1 <0>         0.0715
     47 H17        -9.2424   -4.1989   -1.0271 H         1 <0>         0.1076
     48 H18        -8.6114   -5.8502   -0.8186 H         1 <0>         0.1050
     49 H19       -11.0167   -6.7064    3.2774 H         1 <0>         0.1495
     50 H20       -12.5177   -5.7457    4.4681 H         1 <0>         0.1267
     51 H21       -14.2498   -4.6624    5.8390 H         1 <0>         0.1251
     52 H22       -14.9675   -2.3646    5.3312 H         1 <0>         0.1225
     53 H23       -13.9588   -1.1394    3.4512 H         1 <0>         0.1250
     54 H24       -12.2180   -2.2037    2.0766 H         1 <0>         0.1293
     55 H25        -8.0588   -7.4194    1.9596 H         1 <0>         0.0835
     56 H26        -9.5659   -8.3320    1.7061 H         1 <0>         0.0870
     57 H27        -8.7292   -7.5925    0.3199 H         1 <0>         0.0730
@<TRIPOS>BOND
     1    1    2 1
     2    1   31 1
     3    1   32 1
     4    1   33 1
     5    2    3 1
     6    2   34 1
     7    2   35 1
     8    3    4 1
     9    3   28 1
    10    3   36 1
    11    4    8 1
    12    4    5 1
    13    4   37 1
    14    5    6 1
    15    5   38 1
    16    5   39 1
    17    6    7 1
    18    6   40 1
    19    6   41 1
    20    7   12 ar
    21    7    8 ar
    22    8    9 ar
    23    9   10 ar
    24    9   42 1
    25   10   11 ar
    26   10   43 1
    27   11   12 ar
    28   11   13 1
    29   12   44 1
    30   13   14 1
    31   14   15 1
    32   14   45 1
    33   14   46 1
    34   15   16 1
    35   15   47 1
    36   15   48 1
    37   16   20 1
    38   16   17 1
    39   17   18 2
    40   17   27 1
    41   18   19 1
    42   18   49 1
    43   19   20 2
    44   19   21 1
    45   21   26 ar
    46   21   22 ar
    47   22   23 ar
    48   22   50 1
    49   23   24 ar
    50   23   51 1
    51   24   25 ar
    52   24   52 1
    53   25   26 ar
    54   25   53 1
    55   26   54 1
    56   27   55 1
    57   27   56 1
    58   27   57 1
    59   28   29 2
    60   28   30 1
@<TRIPOS>MOLECULE
CHEMBL200305__3
   57    60     0     0     0
SMALL
USER_CHARGES

@<TRIPOS>ATOM
      1 C1         -2.0665    1.3644    1.5092 C.3       1 <0>        -0.1492
      2 C2         -2.0793   -0.1570    1.3477 C.3       1 <0>        -0.0913
      3 C3         -1.4333   -0.5336    0.0129 C.3       1 <0>        -0.1538
      4 C4         -1.2979   -2.0550   -0.0769 C.3       1 <0>        -0.0280
      5 C5         -2.6890   -2.7092   -0.2150 C.3       1 <0>        -0.1153
      6 C6         -2.3989   -3.9137   -1.1354 C.3       1 <0>        -0.0760
      7 C7         -1.1841   -3.5110   -1.9439 C.ar      1 <0>        -0.0604
      8 C8         -0.5510   -2.4425   -1.3354 C.ar      1 <0>        -0.0680
      9 C9          0.5914   -1.9021   -1.9021 C.ar      1 <0>        -0.0464
     10 C10         1.1023   -2.4254   -3.0729 C.ar      1 <0>        -0.2023
     11 C11         0.4690   -3.4969   -3.6851 C.ar      1 <0>         0.1112
     12 C12        -0.6746   -4.0375   -3.1177 C.ar      1 <0>        -0.1373
     13 O1          0.9679   -4.0150   -4.8382 O.3       1 <0>        -0.3164
     14 C13         2.1488   -3.4069   -5.3652 C.3       1 <0>         0.0489
     15 C14         2.5571   -4.1199   -6.6558 C.3       1 <0>         0.1363
     16 N1          3.7677   -3.4964   -7.1961 N.pl3     1 <0>        -0.3622
     17 C15         3.8069   -2.4614   -8.0625 C.2       1 <0>         0.0924
     18 C16         5.1033   -2.1796   -8.3172 C.2       1 <0>        -0.2603
     19 C17         5.8942   -3.0792   -7.5763 C.2       1 <0>         0.1119
     20 N2          5.0856   -3.8665   -6.8990 N.2       1 <0>        -0.2812
     21 C18         7.3775   -3.1271   -7.5579 C.ar      1 <0>        -0.0117
     22 C19         8.1157   -2.2224   -8.3180 C.ar      1 <0>        -0.0957
     23 C20         9.4949   -2.2711   -8.2968 C.ar      1 <0>        -0.1219
     24 C21        10.1443   -3.2159   -7.5230 C.ar      1 <0>        -0.1152
     25 C22         9.4163   -4.1168   -6.7668 C.ar      1 <0>        -0.1222
     26 C23         8.0368   -4.0733   -6.7761 C.ar      1 <0>        -0.0928
     27 C24         2.6142   -1.7466   -8.6435 C.3       1 <0>        -0.0986
     28 C25        -2.2951   -0.0383   -1.1198 C.2       1 <0>         0.5016
     29 O2         -3.3301    0.5604   -0.8815 O.co2     1 <0>        -0.6985
     30 O3         -1.9574   -0.2363   -2.2745 O.co2     1 <0>        -0.6882
     31 H1         -2.5267    1.6327    2.4601 H         1 <0>         0.0347
     32 H2         -1.0374    1.7231    1.4896 H         1 <0>         0.0332
     33 H3         -2.6261    1.8212    0.6930 H         1 <0>         0.0819
     34 H4         -1.5197   -0.6138    2.1639 H         1 <0>         0.0335
     35 H5         -3.1084   -0.5158    1.3673 H         1 <0>         0.0606
     36 H6         -0.4462   -0.0764   -0.0548 H         1 <0>         0.0567
     37 H7         -0.7825   -2.4408    0.8027 H         1 <0>         0.0686
     38 H8         -3.0582   -3.0428    0.7548 H         1 <0>         0.0660
     39 H9         -3.3945   -2.0238   -0.6845 H         1 <0>         0.0868
     40 H10        -2.1804   -4.8004   -0.5404 H         1 <0>         0.0730
     41 H11        -3.2473   -4.0990   -1.7943 H         1 <0>         0.0708
     42 H12         1.0848   -1.0678   -1.4258 H         1 <0>         0.1136
     43 H13         1.9933   -2.0011   -3.5116 H         1 <0>         0.1171
     44 H14        -1.1690   -4.8718   -3.5930 H         1 <0>         0.1200
     45 H15         1.9526   -2.3559   -5.5771 H         1 <0>         0.0663
     46 H16         2.9548   -3.4861   -4.6357 H         1 <0>         0.0683
     47 H17         2.7533   -5.1709   -6.4438 H         1 <0>         0.1074
     48 H18         1.7511   -4.0407   -7.3853 H         1 <0>         0.1065
     49 H19         5.4684   -1.4030   -8.9729 H         1 <0>         0.1497
     50 H20         7.6096   -1.4845   -8.9228 H         1 <0>         0.1273
     51 H21        10.0680   -1.5705   -8.8859 H         1 <0>         0.1254
     52 H22        11.2236   -3.2505   -7.5093 H         1 <0>         0.1224
     53 H23         9.9284   -4.8527   -6.1646 H         1 <0>         0.1245
     54 H24         7.4695   -4.7741   -6.1816 H         1 <0>         0.1286
     55 H25         2.3378   -0.9149   -7.9954 H         1 <0>         0.0855
     56 H26         2.8649   -1.3674   -9.6342 H         1 <0>         0.0877
     57 H27         1.7772   -2.4404   -8.7212 H         1 <0>         0.0741
@<TRIPOS>BOND
     1    1    2 1
     2    1   31 1
     3    1   32 1
     4    1   33 1
     5    2    3 1
     6    2   34 1
     7    2   35 1
     8    3    4 1
     9    3   28 1
    10    3   36 1
    11    4    8 1
    12    4    5 1
    13    4   37 1
    14    5    6 1
    15    5   38 1
    16    5   39 1
    17    6    7 1
    18    6   40 1
    19    6   41 1
    20    7   12 ar
    21    7    8 ar
    22    8    9 ar
    23    9   10 ar
    24    9   42 1
    25   10   11 ar
    26   10   43 1
    27   11   12 ar
    28   11   13 1
    29   12   44 1
    30   13   14 1
    31   14   15 1
    32   14   45 1
    33   14   46 1
    34   15   16 1
    35   15   47 1
    36   15   48 1
    37   16   20 1
    38   16   17 1
    39   17   18 2
    40   17   27 1
    41   18   19 1
    42   18   49 1
    43   19   20 2
    44   19   21 1
    45   21   26 ar
    46   21   22 ar
    47   22   23 ar
    48   22   50 1
    49   23   24 ar
    50   23   51 1
    51   24   25 ar
    52   24   52 1
    53   25   26 ar
    54   25   53 1
    55   26   54 1
    56   27   55 1
    57   27   56 1
    58   27   57 1
    59   28   29 2
    60   28   30 1
@<TRIPOS>MOLECULE
CHEMBL176222
   69    73     0     0     0
SMALL
USER_CHARGES

@<TRIPOS>ATOM
      1 C1         -0.0187    1.5258    0.0104 C.3       1 <0>        -0.1452
      2 C2          0.0021   -0.0041    0.0020 C.3       1 <0>        -0.0888
      3 C3         -1.4333   -0.5336    0.0129 C.3       1 <0>         0.0411
      4 C4         -1.4183   -2.0649    0.1036 C.3       1 <0>        -0.1305
      5 C5         -2.8639   -2.5534    0.2242 C.3       1 <0>        -0.0704
      6 C6         -3.7151   -1.8848   -0.8256 C.ar      1 <0>        -0.1839
      7 C7         -4.9423   -2.4443   -1.1426 C.ar      1 <0>        -0.0495
      8 C8         -5.7514   -1.8589   -2.0951 C.ar      1 <0>        -0.2543
      9 C9         -5.3357   -0.7028   -2.7408 C.ar      1 <0>         0.1519
     10 C10        -4.1090   -0.1421   -2.4281 C.ar      1 <0>        -0.1886
     11 C11        -3.2939   -0.7340   -1.4695 C.ar      1 <0>         0.2198
     12 O1         -2.0929   -0.1604   -1.1977 O.3       1 <0>        -0.2953
     13 O2         -6.1307   -0.1227   -3.6780 O.3       1 <0>        -0.3127
     14 C12        -7.3822   -0.7567   -3.9495 C.3       1 <0>         0.0676
     15 C13        -8.1322    0.0342   -5.0233 C.3       1 <0>        -0.1197
     16 C14        -9.4722   -0.6446   -5.3140 C.3       1 <0>         0.0638
     17 O3        -10.1727    0.0941   -6.3169 O.3       1 <0>        -0.2998
     18 C15       -11.3904   -0.3781   -6.6935 C.ar      1 <0>         0.1396
     19 C16       -11.9028   -1.5253   -6.1057 C.ar      1 <0>        -0.1957
     20 C17       -13.1409   -2.0031   -6.4898 C.ar      1 <0>        -0.0709
     21 C18       -13.8695   -1.3394   -7.4597 C.ar      1 <0>        -0.1048
     22 C19       -13.3616   -0.1961   -8.0479 C.ar      1 <0>        -0.0671
     23 C20       -12.1258    0.2900   -7.6629 C.ar      1 <0>        -0.0671
     24 Cl1       -11.4913    1.7297   -8.3964 Cl        1 <0>        -0.0560
     25 C21       -15.2195   -1.8636   -7.8766 C.3       1 <0>        -0.0392
     26 C22       -15.1954   -2.2006   -9.3682 C.3       1 <0>        -0.1088
     27 C23       -16.5422   -2.8054   -9.7764 C.3       1 <0>        -0.0809
     28 C24       -17.6579   -1.8207   -9.4142 C.3       1 <0>        -0.1221
     29 C25       -17.6663   -1.3607   -7.9535 C.3       1 <0>        -0.0810
     30 C26       -16.2844   -0.8009   -7.6020 C.3       1 <0>        -0.1090
     31 C27       -19.0050   -1.9819  -10.1172 C.3       1 <0>        -0.1781
     32 C28       -18.0876   -0.8117  -10.4789 C.3       1 <0>        -0.1745
     33 C29        -2.1763    0.0382    1.1927 C.2       1 <0>         0.4949
     34 O4         -3.1755    0.7137    1.0148 O.co2     1 <0>        -0.6727
     35 O5         -1.7781   -0.1747    2.3253 O.co2     1 <0>        -0.6896
     36 H1          1.0039    1.9031    0.0027 H         1 <0>         0.0451
     37 H2         -0.5459    1.8868   -0.8726 H         1 <0>         0.0557
     38 H3         -0.5289    1.8773    0.9072 H         1 <0>         0.0610
     39 H4          0.5123   -0.3556   -0.8948 H         1 <0>         0.0562
     40 H5          0.5293   -0.3651    0.8851 H         1 <0>         0.0808
     41 H6         -0.9634   -2.4818   -0.7949 H         1 <0>         0.0605
     42 H7         -0.8512   -2.3754    0.9811 H         1 <0>         0.0828
     43 H8         -2.8948   -3.6337    0.0822 H         1 <0>         0.0685
     44 H9         -3.2486   -2.3072    1.2139 H         1 <0>         0.0792
     45 H10        -5.2679   -3.3437   -0.6411 H         1 <0>         0.1194
     46 H11        -6.7068   -2.3001   -2.3380 H         1 <0>         0.1196
     47 H12        -3.7843    0.7574   -2.9300 H         1 <0>         0.1311
     48 H13        -7.2058   -1.7725   -4.3032 H         1 <0>         0.0630
     49 H14        -7.9790   -0.7878   -3.0379 H         1 <0>         0.0644
     50 H15        -8.3086    1.0500   -4.6696 H         1 <0>         0.0879
     51 H16        -7.5354    0.0654   -5.9349 H         1 <0>         0.0867
     52 H17        -9.2958   -1.6604   -5.6676 H         1 <0>         0.0681
     53 H18       -10.0690   -0.6757   -4.4024 H         1 <0>         0.0689
     54 H19       -11.3342   -2.0448   -5.3486 H         1 <0>         0.1377
     55 H20       -13.5400   -2.8963   -6.0322 H         1 <0>         0.1303
     56 H21       -13.9323    0.3201   -8.8057 H         1 <0>         0.1372
     57 H22       -15.4504   -2.7636   -7.3067 H         1 <0>         0.0797
     58 H23       -15.0158   -1.2921   -9.9431 H         1 <0>         0.0655
     59 H24       -14.3996   -2.9189   -9.5657 H         1 <0>         0.0654
     60 H25       -16.5501   -2.9869  -10.8512 H         1 <0>         0.0641
     61 H26       -16.6970   -3.7442   -9.2447 H         1 <0>         0.0672
     62 H27       -18.4196   -0.5843   -7.8195 H         1 <0>         0.0643
     63 H28       -17.8928   -2.2073   -7.3054 H         1 <0>         0.0672
     64 H29       -16.2609   -0.5268   -6.5473 H         1 <0>         0.0657
     65 H30       -16.0838    0.0805   -8.2111 H         1 <0>         0.0656
     66 H31       -19.1006   -2.7895  -10.8430 H         1 <0>         0.0922
     67 H32       -19.9031   -1.7581   -9.5415 H         1 <0>         0.0922
     68 H33       -18.3821    0.1819  -10.1410 H         1 <0>         0.0922
     69 H34       -17.5796   -0.8495  -11.4425 H         1 <0>         0.0921
@<TRIPOS>BOND
     1    1    2 1
     2    1   36 1
     3    1   37 1
     4    1   38 1
     5    2    3 1
     6    2   39 1
     7    2   40 1
     8    3   12 1
     9    3    4 1
    10    3   33 1
    11    4    5 1
    12    4   41 1
    13    4   42 1
    14    5    6 1
    15    5   43 1
    16    5   44 1
    17    6   11 ar
    18    6    7 ar
    19    7    8 ar
    20    7   45 1
    21    8    9 ar
    22    8   46 1
    23    9   10 ar
    24    9   13 1
    25   10   11 ar
    26   10   47 1
    27   11   12 1
    28   13   14 1
    29   14   15 1
    30   14   48 1
    31   14   49 1
    32   15   16 1
    33   15   50 1
    34   15   51 1
    35   16   17 1
    36   16   52 1
    37   16   53 1
    38   17   18 1
    39   18   23 ar
    40   18   19 ar
    41   19   20 ar
    42   19   54 1
    43   20   21 ar
    44   20   55 1
    45   21   22 ar
    46   21   25 1
    47   22   23 ar
    48   22   56 1
    49   23   24 1
    50   25   30 1
    51   25   26 1
    52   25   57 1
    53   26   27 1
    54   26   58 1
    55   26   59 1
    56   27   28 1
    57   27   60 1
    58   27   61 1
    59   28   32 1
    60   28   29 1
    61   28   31 1
    62   29   30 1
    63   29   62 1
    64   29   63 1
    65   30   64 1
    66   30   65 1
    67   31   32 1
    68   31   66 1
    69   31   67 1
    70   32   68 1
    71   32   69 1
    72   33   34 2
    73   33   35 1
@<TRIPOS>MOLECULE
CHEMBL272962
   64    68     0     0     0
SMALL
USER_CHARGES

@<TRIPOS>ATOM
      1 C1         -0.0184    1.5028    0.0103 C.3       1 <0>        -0.0712
      2 C2          0.0021   -0.0041    0.0020 C.2       1 <0>        -0.0336
      3 C3         -1.0705   -0.8164    0.0025 C.2       1 <0>        -0.0053
      4 N1         -0.6270   -2.0826   -0.0064 N.2       1 <0>        -0.4581
      5 C4          0.6851   -2.0676   -0.0123 C.2       1 <0>         0.2292
      6 O1          1.0981   -0.7883   -0.0131 O.3       1 <0>        -0.1936
      7 C5          1.5619   -3.2577   -0.0227 C.ar      1 <0>        -0.0174
      8 C6          1.0059   -4.5378   -0.0330 C.ar      1 <0>        -0.0703
      9 C7          1.8298   -5.6443   -0.0432 C.ar      1 <0>        -0.1202
     10 C8          3.2044   -5.4871   -0.0433 C.ar      1 <0>        -0.1010
     11 C9          3.7620   -4.2209   -0.0327 C.ar      1 <0>        -0.1215
     12 C10         2.9493   -3.1060   -0.0282 C.ar      1 <0>        -0.0908
     13 C11        -2.5133   -0.3814    0.0119 C.3       1 <0>        -0.0356
     14 C12        -3.0085   -0.2260   -1.4274 C.3       1 <0>         0.0689
     15 O2         -4.3766    0.1865   -1.4185 O.3       1 <0>        -0.3125
     16 C13        -4.9731    0.3716   -2.6255 C.ar      1 <0>         0.1283
     17 C14        -4.2579    0.1549   -3.7946 C.ar      1 <0>        -0.2131
     18 C15        -4.8665    0.3431   -5.0201 C.ar      1 <0>        -0.0827
     19 C16        -6.1876    0.7473   -5.0825 C.ar      1 <0>        -0.1461
     20 C17        -6.9022    0.9643   -3.9192 C.ar      1 <0>        -0.0415
     21 C18        -6.2996    0.7718   -2.6908 C.ar      1 <0>        -0.1300
     22 C19        -8.3415    1.4051   -3.9909 C.3       1 <0>        -0.0594
     23 C20        -9.2509    0.1751   -4.0173 C.3       1 <0>        -0.1226
     24 C21       -10.7335    0.5219   -4.1877 C.3       1 <0>         0.0727
     25 N2        -10.8589   -0.0423   -2.8387 N.am      1 <0>        -0.5406
     26 C22        -9.5621   -0.3660   -2.6431 C.2       1 <0>         0.5362
     27 O3         -8.9220   -0.8745   -1.7470 O.2       1 <0>        -0.4934
     28 C23       -11.9782   -0.1971   -2.0096 C.ar      1 <0>         0.1024
     29 C24       -11.8458   -0.7660   -0.7442 C.ar      1 <0>        -0.0877
     30 C25       -12.9776   -0.8985    0.0398 C.ar      1 <0>        -0.1624
     31 C26       -14.2000   -0.4634   -0.4562 C.ar      1 <0>         0.2760
     32 N3        -14.2891    0.0716   -1.6619 N.ar      1 <0>        -0.5148
     33 C27       -13.2304    0.2191   -2.4354 C.ar      1 <0>         0.1383
     34 O4        -15.3162   -0.5892    0.3060 O.3       1 <0>        -0.3143
     35 C28       -16.5434   -0.1235   -0.2590 C.3       1 <0>         0.0424
     36 C29       -11.4339   -0.2764   -5.2568 C.2       1 <0>         0.4979
     37 O5        -12.2636   -1.1143   -4.9469 O.co2     1 <0>        -0.6674
     38 O6        -11.1708   -0.0845   -6.4317 O.co2     1 <0>        -0.6770
     39 H1          1.0042    1.8801    0.0026 H         1 <0>         0.0802
     40 H2         -0.5455    1.8639   -0.8728 H         1 <0>         0.0917
     41 H3         -0.5286    1.8543    0.9071 H         1 <0>         0.0932
     42 H4         -0.0670   -4.6619   -0.0326 H         1 <0>         0.1395
     43 H5          1.4008   -6.6354   -0.0508 H         1 <0>         0.1331
     44 H6          3.8450   -6.3565   -0.0513 H         1 <0>         0.1285
     45 H7          4.8357   -4.1050   -0.0321 H         1 <0>         0.1305
     46 H8          3.3858   -2.1181   -0.0249 H         1 <0>         0.1298
     47 H9         -3.1156   -1.1316    0.5243 H         1 <0>         0.0961
     48 H10        -2.6018    0.5726    0.5316 H         1 <0>         0.0931
     49 H11        -2.4061    0.5242   -1.9398 H         1 <0>         0.0599
     50 H12        -2.9200   -1.1800   -1.9471 H         1 <0>         0.0652
     51 H13        -3.2261   -0.1604   -3.7464 H         1 <0>         0.1213
     52 H14        -4.3102    0.1749   -5.9304 H         1 <0>         0.1228
     53 H15        -6.6617    0.8940   -6.0418 H         1 <0>         0.1286
     54 H16        -6.8596    0.9372   -1.7823 H         1 <0>         0.1305
     55 H17        -8.5789    2.0139   -3.1184 H         1 <0>         0.0772
     56 H18        -8.4972    1.9916   -4.8964 H         1 <0>         0.0956
     57 H19        -8.9018   -0.5889   -4.7120 H         1 <0>         0.1212
     58 H20       -10.9372    1.5912   -4.2439 H         1 <0>         0.1042
     59 H21       -10.8824   -1.0960   -0.3844 H         1 <0>         0.1460
     60 H22       -12.9119   -1.3353    1.0254 H         1 <0>         0.1395
     61 H23       -13.3411    0.6648   -3.4129 H         1 <0>         0.1625
     62 H24       -16.4599    0.9400   -0.4827 H         1 <0>         0.0551
     63 H25       -16.7522   -0.6726   -1.1772 H         1 <0>         0.0571
     64 H26       -17.3542   -0.2827    0.4519 H         1 <0>         0.0895
@<TRIPOS>BOND
     1    1    2 1
     2    1   39 1
     3    1   40 1
     4    1   41 1
     5    2    6 1
     6    2    3 2
     7    3    4 1
     8    3   13 1
     9    4    5 2
    10    5    6 1
    11    5    7 1
    12    7   12 ar
    13    7    8 ar
    14    8    9 ar
    15    8   42 1
    16    9   10 ar
    17    9   43 1
    18   10   11 ar
    19   10   44 1
    20   11   12 ar
    21   11   45 1
    22   12   46 1
    23   13   14 1
    24   13   47 1
    25   13   48 1
    26   14   15 1
    27   14   49 1
    28   14   50 1
    29   15   16 1
    30   16   21 ar
    31   16   17 ar
    32   17   18 ar
    33   17   51 1
    34   18   19 ar
    35   18   52 1
    36   19   20 ar
    37   19   53 1
    38   20   21 ar
    39   20   22 1
    40   21   54 1
    41   22   23 1
    42   22   55 1
    43   22   56 1
    44   23   26 1
    45   23   24 1
    46   23   57 1
    47   24   25 1
    48   24   36 1
    49   24   58 1
    50   25   26 am
    51   25   28 1
    52   26   27 2
    53   28   33 ar
    54   28   29 ar
    55   29   30 ar
    56   29   59 1
    57   30   31 ar
    58   30   60 1
    59   31   32 ar
    60   31   34 1
    61   32   33 ar
    62   33   61 1
    63   34   35 1
    64   35   62 1
    65   35   63 1
    66   35   64 1
    67   36   37 2
    68   36   38 1
@<TRIPOS>MOLECULE
CHEMBL272962__1
   64    68     0     0     0
SMALL
USER_CHARGES

@<TRIPOS>ATOM
      1 C1         -0.0184    1.5028    0.0103 C.3       1 <0>        -0.0719
      2 C2          0.0021   -0.0041    0.0020 C.2       1 <0>        -0.0324
      3 C3         -1.0705   -0.8164    0.0025 C.2       1 <0>        -0.0053
      4 N1         -0.6270   -2.0826   -0.0064 N.2       1 <0>        -0.4580
      5 C4          0.6851   -2.0676   -0.0123 C.2       1 <0>         0.2277
      6 O1          1.0981   -0.7883   -0.0131 O.3       1 <0>        -0.1936
      7 C5          1.5619   -3.2577   -0.0227 C.ar      1 <0>        -0.0165
      8 C6          1.0059   -4.5378   -0.0330 C.ar      1 <0>        -0.0707
      9 C7          1.8298   -5.6443   -0.0432 C.ar      1 <0>        -0.1204
     10 C8          3.2044   -5.4871   -0.0433 C.ar      1 <0>        -0.1015
     11 C9          3.7620   -4.2209   -0.0327 C.ar      1 <0>        -0.1214
     12 C10         2.9493   -3.1060   -0.0282 C.ar      1 <0>        -0.0909
     13 C11        -2.5133   -0.3814    0.0119 C.3       1 <0>        -0.0361
     14 C12        -3.0085   -0.2260   -1.4274 C.3       1 <0>         0.0692
     15 O2         -4.3766    0.1865   -1.4185 O.3       1 <0>        -0.3121
     16 C13        -4.9731    0.3716   -2.6255 C.ar      1 <0>         0.1290
     17 C14        -4.2579    0.1549   -3.7946 C.ar      1 <0>        -0.2157
     18 C15        -4.8665    0.3431   -5.0201 C.ar      1 <0>        -0.0839
     19 C16        -6.1876    0.7473   -5.0825 C.ar      1 <0>        -0.1492
     20 C17        -6.9022    0.9643   -3.9192 C.ar      1 <0>        -0.0360
     21 C18        -6.2996    0.7718   -2.6908 C.ar      1 <0>        -0.1297
     22 C19        -8.3415    1.4051   -3.9909 C.3       1 <0>        -0.0626
     23 C20        -9.2509    0.1751   -4.0173 C.3       1 <0>        -0.1197
     24 C21       -10.7335    0.5219   -4.1877 C.3       1 <0>         0.0658
     25 N2        -10.8589   -0.0423   -2.8387 N.am      1 <0>        -0.5389
     26 C22        -9.5621   -0.3660   -2.6431 C.2       1 <0>         0.5384
     27 O3         -8.9220   -0.8745   -1.7470 O.2       1 <0>        -0.4932
     28 C23       -11.9782   -0.1971   -2.0096 C.ar      1 <0>         0.1049
     29 C24       -11.8458   -0.7660   -0.7442 C.ar      1 <0>        -0.0865
     30 C25       -12.9776   -0.8985    0.0398 C.ar      1 <0>        -0.1593
     31 C26       -14.2000   -0.4634   -0.4562 C.ar      1 <0>         0.2757
     32 N3        -14.2891    0.0716   -1.6619 N.ar      1 <0>        -0.5131
     33 C27       -13.2304    0.2191   -2.4354 C.ar      1 <0>         0.1270
     34 O4        -15.3162   -0.5892    0.3060 O.3       1 <0>        -0.3138
     35 C28       -16.5434   -0.1235   -0.2590 C.3       1 <0>         0.0423
     36 C29       -11.0151    2.0003   -4.2655 C.2       1 <0>         0.5016
     37 O5        -11.0163    2.5646   -5.3463 O.co2     1 <0>        -0.6778
     38 O6        -11.2417    2.6321   -3.2477 O.co2     1 <0>        -0.6661
     39 H1          1.0042    1.8801    0.0026 H         1 <0>         0.0803
     40 H2         -0.5455    1.8639   -0.8728 H         1 <0>         0.0923
     41 H3         -0.5286    1.8543    0.9071 H         1 <0>         0.0937
     42 H4         -0.0670   -4.6619   -0.0326 H         1 <0>         0.1393
     43 H5          1.4008   -6.6354   -0.0508 H         1 <0>         0.1328
     44 H6          3.8450   -6.3565   -0.0513 H         1 <0>         0.1283
     45 H7          4.8357   -4.1050   -0.0321 H         1 <0>         0.1304
     46 H8          3.3858   -2.1181   -0.0249 H         1 <0>         0.1300
     47 H9         -3.1156   -1.1316    0.5243 H         1 <0>         0.0959
     48 H10        -2.6018    0.5726    0.5316 H         1 <0>         0.0936
     49 H11        -2.4061    0.5242   -1.9398 H         1 <0>         0.0597
     50 H12        -2.9200   -1.1800   -1.9471 H         1 <0>         0.0644
     51 H13        -3.2261   -0.1604   -3.7464 H         1 <0>         0.1206
     52 H14        -4.3102    0.1749   -5.9304 H         1 <0>         0.1215
     53 H15        -6.6617    0.8940   -6.0418 H         1 <0>         0.1265
     54 H16        -6.8596    0.9372   -1.7823 H         1 <0>         0.1309
     55 H17        -8.5789    2.0139   -3.1184 H         1 <0>         0.0859
     56 H18        -8.4972    1.9916   -4.8964 H         1 <0>         0.1019
     57 H19        -8.9018   -0.5889   -4.7120 H         1 <0>         0.1139
     58 H20       -11.2401   -0.0555   -4.9610 H         1 <0>         0.1033
     59 H21       -10.8824   -1.0960   -0.3844 H         1 <0>         0.1470
     60 H22       -12.9119   -1.3353    1.0254 H         1 <0>         0.1404
     61 H23       -13.3411    0.6648   -3.4129 H         1 <0>         0.1600
     62 H24       -16.4599    0.9400   -0.4827 H         1 <0>         0.0571
     63 H25       -16.7522   -0.6726   -1.1772 H         1 <0>         0.0552
     64 H26       -17.3542   -0.2827    0.4519 H         1 <0>         0.0899
@<TRIPOS>BOND
     1    1    2 1
     2    1   39 1
     3    1   40 1
     4    1   41 1
     5    2    6 1
     6    2    3 2
     7    3    4 1
     8    3   13 1
     9    4    5 2
    10    5    6 1
    11    5    7 1
    12    7   12 ar
    13    7    8 ar
    14    8    9 ar
    15    8   42 1
    16    9   10 ar
    17    9   43 1
    18   10   11 ar
    19   10   44 1
    20   11   12 ar
    21   11   45 1
    22   12   46 1
    23   13   14 1
    24   13   47 1
    25   13   48 1
    26   14   15 1
    27   14   49 1
    28   14   50 1
    29   15   16 1
    30   16   21 ar
    31   16   17 ar
    32   17   18 ar
    33   17   51 1
    34   18   19 ar
    35   18   52 1
    36   19   20 ar
    37   19   53 1
    38   20   21 ar
    39   20   22 1
    40   21   54 1
    41   22   23 1
    42   22   55 1
    43   22   56 1
    44   23   26 1
    45   23   24 1
    46   23   57 1
    47   24   25 1
    48   24   36 1
    49   24   58 1
    50   25   26 am
    51   25   28 1
    52   26   27 2
    53   28   33 ar
    54   28   29 ar
    55   29   30 ar
    56   29   59 1
    57   30   31 ar
    58   30   60 1
    59   31   32 ar
    60   31   34 1
    61   32   33 ar
    62   33   61 1
    63   34   35 1
    64   35   62 1
    65   35   63 1
    66   35   64 1
    67   36   37 2
    68   36   38 1
@<TRIPOS>MOLECULE
CHEMBL272962__2
   64    68     0     0     0
SMALL
USER_CHARGES

@<TRIPOS>ATOM
      1 C1         -0.0184    1.5028    0.0103 C.3       1 <0>        -0.0721
      2 C2          0.0021   -0.0041    0.0020 C.2       1 <0>        -0.0321
      3 C3         -1.0705   -0.8164    0.0025 C.2       1 <0>        -0.0062
      4 N1         -0.6270   -2.0826   -0.0064 N.2       1 <0>        -0.4585
      5 C4          0.6851   -2.0676   -0.0123 C.2       1 <0>         0.2282
      6 O1          1.0981   -0.7883   -0.0131 O.3       1 <0>        -0.1935
      7 C5          1.5619   -3.2577   -0.0227 C.ar      1 <0>        -0.0169
      8 C6          1.0059   -4.5378   -0.0330 C.ar      1 <0>        -0.0707
      9 C7          1.8298   -5.6443   -0.0432 C.ar      1 <0>        -0.1205
     10 C8          3.2044   -5.4871   -0.0433 C.ar      1 <0>        -0.1013
     11 C9          3.7620   -4.2209   -0.0327 C.ar      1 <0>        -0.1213
     12 C10         2.9493   -3.1060   -0.0282 C.ar      1 <0>        -0.0908
     13 C11        -2.5133   -0.3814    0.0119 C.3       1 <0>        -0.0351
     14 C12        -3.0085   -0.2260   -1.4274 C.3       1 <0>         0.0689
     15 O2         -4.3766    0.1865   -1.4185 O.3       1 <0>        -0.3140
     16 C13        -4.9731    0.3716   -2.6255 C.ar      1 <0>         0.1247
     17 C14        -4.2579    0.1549   -3.7946 C.ar      1 <0>        -0.2151
     18 C15        -4.8665    0.3431   -5.0201 C.ar      1 <0>        -0.0809
     19 C16        -6.1876    0.7473   -5.0825 C.ar      1 <0>        -0.1359
     20 C17        -6.9022    0.9643   -3.9192 C.ar      1 <0>        -0.0352
     21 C18        -6.2996    0.7718   -2.6908 C.ar      1 <0>        -0.1426
     22 C19        -8.3415    1.4051   -3.9909 C.3       1 <0>        -0.0635
     23 C20        -9.2509    0.1751   -4.0173 C.3       1 <0>        -0.1193
     24 C21       -10.7424    0.5244   -3.9924 C.3       1 <0>         0.0668
     25 N2        -10.7443   -0.0736   -5.3326 N.am      1 <0>        -0.5404
     26 C22        -9.4354   -0.4006   -5.4003 C.2       1 <0>         0.5356
     27 O3         -8.7161   -0.9296   -6.2213 O.2       1 <0>        -0.4963
     28 C23       -11.7831   -0.2510   -6.2565 C.ar      1 <0>         0.1021
     29 C24       -11.5382   -0.8615   -7.4852 C.ar      1 <0>        -0.0880
     30 C25       -12.5937   -1.0160   -8.3657 C.ar      1 <0>        -0.1626
     31 C26       -13.8538   -0.5609   -7.9990 C.ar      1 <0>         0.2761
     32 N3        -14.0502    0.0144   -6.8249 N.ar      1 <0>        -0.5148
     33 C27       -13.0687    0.1735   -5.9575 C.ar      1 <0>         0.1387
     34 O4        -14.8959   -0.7081   -8.8564 O.3       1 <0>        -0.3143
     35 C28       -16.1670   -0.2201   -8.4226 C.3       1 <0>         0.0424
     36 C29       -11.0283    2.0039   -3.9777 C.2       1 <0>         0.5019
     37 O5        -11.5135    2.5409   -4.9589 O.co2     1 <0>        -0.6675
     38 O6        -10.7745    2.6640   -2.9845 O.co2     1 <0>        -0.6743
     39 H1          1.0042    1.8801    0.0026 H         1 <0>         0.0803
     40 H2         -0.5455    1.8639   -0.8728 H         1 <0>         0.0925
     41 H3         -0.5286    1.8543    0.9071 H         1 <0>         0.0938
     42 H4         -0.0670   -4.6619   -0.0326 H         1 <0>         0.1392
     43 H5          1.4008   -6.6354   -0.0508 H         1 <0>         0.1328
     44 H6          3.8450   -6.3565   -0.0513 H         1 <0>         0.1284
     45 H7          4.8357   -4.1050   -0.0321 H         1 <0>         0.1305
     46 H8          3.3858   -2.1181   -0.0249 H         1 <0>         0.1300
     47 H9         -3.1156   -1.1316    0.5243 H         1 <0>         0.0953
     48 H10        -2.6018    0.5726    0.5316 H         1 <0>         0.0937
     49 H11        -2.4061    0.5242   -1.9398 H         1 <0>         0.0600
     50 H12        -2.9200   -1.1800   -1.9471 H         1 <0>         0.0644
     51 H13        -3.2261   -0.1604   -3.7464 H         1 <0>         0.1202
     52 H14        -4.3102    0.1749   -5.9304 H         1 <0>         0.1207
     53 H15        -6.6617    0.8940   -6.0418 H         1 <0>         0.1231
     54 H16        -6.8596    0.9372   -1.7823 H         1 <0>         0.1336
     55 H17        -8.5789    2.0139   -3.1184 H         1 <0>         0.1130
     56 H18        -8.4972    1.9916   -4.8964 H         1 <0>         0.0790
     57 H19        -8.9679   -0.5709   -3.2746 H         1 <0>         0.1140
     58 H20       -11.3185   -0.0342   -3.2546 H         1 <0>         0.1039
     59 H21       -10.5476   -1.2055   -7.7439 H         1 <0>         0.1457
     60 H22       -12.4399   -1.4844   -9.3266 H         1 <0>         0.1395
     61 H23       -13.2681    0.6439   -5.0059 H         1 <0>         0.1627
     62 H24       -16.4629   -0.7382   -7.5103 H         1 <0>         0.0551
     63 H25       -16.0978    0.8499   -8.2266 H         1 <0>         0.0572
     64 H26       -16.9097   -0.3999   -9.1998 H         1 <0>         0.0896
@<TRIPOS>BOND
     1    1    2 1
     2    1   39 1
     3    1   40 1
     4    1   41 1
     5    2    6 1
     6    2    3 2
     7    3    4 1
     8    3   13 1
     9    4    5 2
    10    5    6 1
    11    5    7 1
    12    7   12 ar
    13    7    8 ar
    14    8    9 ar
    15    8   42 1
    16    9   10 ar
    17    9   43 1
    18   10   11 ar
    19   10   44 1
    20   11   12 ar
    21   11   45 1
    22   12   46 1
    23   13   14 1
    24   13   47 1
    25   13   48 1
    26   14   15 1
    27   14   49 1
    28   14   50 1
    29   15   16 1
    30   16   21 ar
    31   16   17 ar
    32   17   18 ar
    33   17   51 1
    34   18   19 ar
    35   18   52 1
    36   19   20 ar
    37   19   53 1
    38   20   21 ar
    39   20   22 1
    40   21   54 1
    41   22   23 1
    42   22   55 1
    43   22   56 1
    44   23   26 1
    45   23   24 1
    46   23   57 1
    47   24   25 1
    48   24   36 1
    49   24   58 1
    50   25   26 am
    51   25   28 1
    52   26   27 2
    53   28   33 ar
    54   28   29 ar
    55   29   30 ar
    56   29   59 1
    57   30   31 ar
    58   30   60 1
    59   31   32 ar
    60   31   34 1
    61   32   33 ar
    62   33   61 1
    63   34   35 1
    64   35   62 1
    65   35   63 1
    66   35   64 1
    67   36   37 2
    68   36   38 1
@<TRIPOS>MOLECULE
CHEMBL272962__3
   64    68     0     0     0
SMALL
USER_CHARGES

@<TRIPOS>ATOM
      1 C1         -0.0184    1.5028    0.0103 C.3       1 <0>        -0.0714
      2 C2          0.0021   -0.0041    0.0020 C.2       1 <0>        -0.0335
      3 C3         -1.0705   -0.8164    0.0025 C.2       1 <0>        -0.0056
      4 N1         -0.6270   -2.0826   -0.0064 N.2       1 <0>        -0.4582
      5 C4          0.6851   -2.0676   -0.0123 C.2       1 <0>         0.2292
      6 O1          1.0981   -0.7883   -0.0131 O.3       1 <0>        -0.1936
      7 C5          1.5619   -3.2577   -0.0227 C.ar      1 <0>        -0.0174
      8 C6          1.0059   -4.5378   -0.0330 C.ar      1 <0>        -0.0703
      9 C7          1.8298   -5.6443   -0.0432 C.ar      1 <0>        -0.1202
     10 C8          3.2044   -5.4871   -0.0433 C.ar      1 <0>        -0.1011
     11 C9          3.7620   -4.2209   -0.0327 C.ar      1 <0>        -0.1216
     12 C10         2.9493   -3.1060   -0.0282 C.ar      1 <0>        -0.0909
     13 C11        -2.5133   -0.3814    0.0119 C.3       1 <0>        -0.0357
     14 C12        -3.0085   -0.2260   -1.4274 C.3       1 <0>         0.0688
     15 O2         -4.3766    0.1865   -1.4185 O.3       1 <0>        -0.3129
     16 C13        -4.9731    0.3716   -2.6255 C.ar      1 <0>         0.1269
     17 C14        -4.2579    0.1549   -3.7946 C.ar      1 <0>        -0.2122
     18 C15        -4.8665    0.3431   -5.0201 C.ar      1 <0>        -0.0808
     19 C16        -6.1876    0.7473   -5.0825 C.ar      1 <0>        -0.1349
     20 C17        -6.9022    0.9643   -3.9192 C.ar      1 <0>        -0.0411
     21 C18        -6.2996    0.7718   -2.6908 C.ar      1 <0>        -0.1414
     22 C19        -8.3415    1.4051   -3.9909 C.3       1 <0>        -0.0603
     23 C20        -9.2509    0.1751   -4.0173 C.3       1 <0>        -0.1230
     24 C21       -10.7424    0.5244   -3.9924 C.3       1 <0>         0.0714
     25 N2        -10.7443   -0.0736   -5.3326 N.am      1 <0>        -0.5384
     26 C22        -9.4354   -0.4006   -5.4003 C.2       1 <0>         0.5409
     27 O3         -8.7161   -0.9296   -6.2213 O.2       1 <0>        -0.4960
     28 C23       -11.7831   -0.2510   -6.2565 C.ar      1 <0>         0.1044
     29 C24       -11.5382   -0.8615   -7.4852 C.ar      1 <0>        -0.0864
     30 C25       -12.5937   -1.0160   -8.3657 C.ar      1 <0>        -0.1596
     31 C26       -13.8538   -0.5609   -7.9990 C.ar      1 <0>         0.2761
     32 N3        -14.0502    0.0144   -6.8249 N.ar      1 <0>        -0.5129
     33 C27       -13.0687    0.1735   -5.9575 C.ar      1 <0>         0.1275
     34 O4        -14.8959   -0.7081   -8.8564 O.3       1 <0>        -0.3138
     35 C28       -16.1670   -0.2201   -8.4226 C.3       1 <0>         0.0422
     36 C29       -11.5389   -0.2478   -2.9723 C.2       1 <0>         0.4970
     37 O5        -11.6729    0.1922   -1.8432 O.co2     1 <0>        -0.6767
     38 O6        -12.0492   -1.3126   -3.2762 O.co2     1 <0>        -0.6672
     39 H1          1.0042    1.8801    0.0026 H         1 <0>         0.0802
     40 H2         -0.5455    1.8639   -0.8728 H         1 <0>         0.0917
     41 H3         -0.5286    1.8543    0.9071 H         1 <0>         0.0935
     42 H4         -0.0670   -4.6619   -0.0326 H         1 <0>         0.1395
     43 H5          1.4008   -6.6354   -0.0508 H         1 <0>         0.1331
     44 H6          3.8450   -6.3565   -0.0513 H         1 <0>         0.1285
     45 H7          4.8357   -4.1050   -0.0321 H         1 <0>         0.1304
     46 H8          3.3858   -2.1181   -0.0249 H         1 <0>         0.1298
     47 H9         -3.1156   -1.1316    0.5243 H         1 <0>         0.0964
     48 H10        -2.6018    0.5726    0.5316 H         1 <0>         0.0937
     49 H11        -2.4061    0.5242   -1.9398 H         1 <0>         0.0601
     50 H12        -2.9200   -1.1800   -1.9471 H         1 <0>         0.0653
     51 H13        -3.2261   -0.1604   -3.7464 H         1 <0>         0.1215
     52 H14        -4.3102    0.1749   -5.9304 H         1 <0>         0.1217
     53 H15        -6.6617    0.8940   -6.0418 H         1 <0>         0.1238
     54 H16        -6.8596    0.9372   -1.7823 H         1 <0>         0.1347
     55 H17        -8.5789    2.0139   -3.1184 H         1 <0>         0.0951
     56 H18        -8.4972    1.9916   -4.8964 H         1 <0>         0.0788
     57 H19        -8.9679   -0.5709   -3.2746 H         1 <0>         0.1205
     58 H20       -10.9492    1.5945   -3.9817 H         1 <0>         0.1044
     59 H21       -10.5476   -1.2055   -7.7439 H         1 <0>         0.1468
     60 H22       -12.4399   -1.4844   -9.3266 H         1 <0>         0.1404
     61 H23       -13.2681    0.6439   -5.0059 H         1 <0>         0.1603
     62 H24       -16.4629   -0.7382   -7.5103 H         1 <0>         0.0571
     63 H25       -16.0978    0.8499   -8.2266 H         1 <0>         0.0553
     64 H26       -16.9097   -0.3999   -9.1998 H         1 <0>         0.0900
@<TRIPOS>BOND
     1    1    2 1
     2    1   39 1
     3    1   40 1
     4    1   41 1
     5    2    6 1
     6    2    3 2
     7    3    4 1
     8    3   13 1
     9    4    5 2
    10    5    6 1
    11    5    7 1
    12    7   12 ar
    13    7    8 ar
    14    8    9 ar
    15    8   42 1
    16    9   10 ar
    17    9   43 1
    18   10   11 ar
    19   10   44 1
    20   11   12 ar
    21   11   45 1
    22   12   46 1
    23   13   14 1
    24   13   47 1
    25   13   48 1
    26   14   15 1
    27   14   49 1
    28   14   50 1
    29   15   16 1
    30   16   21 ar
    31   16   17 ar
    32   17   18 ar
    33   17   51 1
    34   18   19 ar
    35   18   52 1
    36   19   20 ar
    37   19   53 1
    38   20   21 ar
    39   20   22 1
    40   21   54 1
    41   22   23 1
    42   22   55 1
    43   22   56 1
    44   23   26 1
    45   23   24 1
    46   23   57 1
    47   24   25 1
    48   24   36 1
    49   24   58 1
    50   25   26 am
    51   25   28 1
    52   26   27 2
    53   28   33 ar
    54   28   29 ar
    55   29   30 ar
    56   29   59 1
    57   30   31 ar
    58   30   60 1
    59   31   32 ar
    60   31   34 1
    61   32   33 ar
    62   33   61 1
    63   34   35 1
    64   35   62 1
    65   35   63 1
    66   35   64 1
    67   36   37 2
    68   36   38 1
@<TRIPOS>MOLECULE
CHEMBL427299
   59    62     0     0     0
SMALL
USER_CHARGES

@<TRIPOS>ATOM
      1 C1         -0.0187    1.5258    0.0104 C.3       1 <0>        -0.1513
      2 C2          0.0021   -0.0041    0.0020 C.3       1 <0>        -0.1158
      3 C3         -1.4333   -0.5336    0.0129 C.3       1 <0>        -0.0677
      4 C4         -1.4129   -2.0405    0.0046 C.ar      1 <0>        -0.1252
      5 C5         -1.4091   -2.7284   -1.1962 C.ar      1 <0>         0.1935
      6 C6         -1.3902   -4.1207   -1.2118 C.ar      1 <0>        -0.2266
      7 C7         -1.3752   -4.8252   -0.0419 C.ar      1 <0>        -0.0040
      8 C8         -1.3783   -4.1476    1.1779 C.ar      1 <0>        -0.2233
      9 C9         -1.3920   -2.7435    1.2015 C.ar      1 <0>         0.1287
     10 O1         -1.3848   -2.3644    2.4958 O.3       1 <0>        -0.0819
     11 N1         -1.3608   -3.5099    3.3232 N.2       1 <0>        -0.2849
     12 C10        -1.3652   -4.5862    2.5826 C.2       1 <0>         0.1807
     13 C11        -1.3448   -5.9876    3.0666 C.ar      1 <0>        -0.0393
     14 C12        -2.0229   -6.9811    2.3621 C.ar      1 <0>        -0.0865
     15 C13        -2.0005   -8.2836    2.8174 C.ar      1 <0>        -0.1198
     16 C14        -1.3069   -8.6042    3.9706 C.ar      1 <0>        -0.1000
     17 C15        -0.6322   -7.6225    4.6738 C.ar      1 <0>        -0.1196
     18 C16        -0.6428   -6.3176    4.2248 C.ar      1 <0>        -0.0812
     19 O2         -1.4243   -2.0408   -2.3676 O.3       1 <0>        -0.2897
     20 C17        -1.4194   -2.8103   -3.5717 C.3       1 <0>         0.0595
     21 C18        -1.4384   -1.8697   -4.7782 C.3       1 <0>         0.0613
     22 O3         -0.2279   -1.1108   -4.8096 O.3       1 <0>        -0.3112
     23 C19        -0.0839   -0.2209   -5.8265 C.ar      1 <0>         0.1080
     24 C20        -1.0894   -0.0768   -6.7714 C.ar      1 <0>        -0.2054
     25 C21        -0.9407    0.8288   -7.8040 C.ar      1 <0>        -0.0824
     26 C22         0.2092    1.5910   -7.8964 C.ar      1 <0>        -0.0960
     27 C23         1.2130    1.4490   -6.9562 C.ar      1 <0>        -0.0818
     28 C24         1.0665    0.5491   -5.9183 C.ar      1 <0>        -0.1455
     29 C25         0.3689    2.5779   -9.0241 C.3       1 <0>        -0.0573
     30 C26        -0.1908    3.9360   -8.5964 C.3       1 <0>        -0.1753
     31 C27        -0.0310    4.9229   -9.7240 C.2       1 <0>         0.4889
     32 O4          0.4829    4.5724  -10.7726 O.co2     1 <0>        -0.6990
     33 O5         -0.4157    6.0718   -9.5878 O.co2     1 <0>        -0.7062
     34 H1          1.0039    1.9031    0.0027 H         1 <0>         0.0550
     35 H2         -0.5459    1.8868   -0.8726 H         1 <0>         0.0574
     36 H3         -0.5289    1.8773    0.9072 H         1 <0>         0.0526
     37 H4          0.5123   -0.3556   -0.8948 H         1 <0>         0.0663
     38 H5          0.5293   -0.3651    0.8851 H         1 <0>         0.0574
     39 H6         -1.9435   -0.1821    0.9097 H         1 <0>         0.0725
     40 H7         -1.9605   -0.1726   -0.8702 H         1 <0>         0.0829
     41 H8         -1.3878   -4.6467   -2.1550 H         1 <0>         0.1422
     42 H9         -1.3613   -5.9050   -0.0608 H         1 <0>         0.1371
     43 H10        -2.5650   -6.7318    1.4619 H         1 <0>         0.1301
     44 H11        -2.5257   -9.0541    2.2726 H         1 <0>         0.1317
     45 H12        -1.2924   -9.6249    4.3233 H         1 <0>         0.1287
     46 H13        -0.0926   -7.8785    5.5737 H         1 <0>         0.1311
     47 H14        -0.1118   -5.5528    4.7720 H         1 <0>         0.1304
     48 H15        -0.5209   -3.4265   -3.6054 H         1 <0>         0.0794
     49 H16        -2.3007   -3.4513   -3.5968 H         1 <0>         0.0880
     50 H17        -1.5242   -2.4548   -5.6938 H         1 <0>         0.0859
     51 H18        -2.2893   -1.1932   -4.6982 H         1 <0>         0.0749
     52 H19        -1.9875   -0.6724   -6.7001 H         1 <0>         0.1217
     53 H20        -1.7232    0.9414   -8.5398 H         1 <0>         0.1239
     54 H21         2.1104    2.0452   -7.0308 H         1 <0>         0.1288
     55 H22         1.8489    0.4417   -5.1816 H         1 <0>         0.1258
     56 H23         1.4259    2.6814   -9.2693 H         1 <0>         0.0702
     57 H24        -0.1738    2.2205   -9.8992 H         1 <0>         0.0693
     58 H25        -1.2478    3.8325   -8.3511 H         1 <0>         0.0561
     59 H26         0.3519    4.2934   -7.7212 H         1 <0>         0.0570
@<TRIPOS>BOND
     1    1    2 1
     2    1   34 1
     3    1   35 1
     4    1   36 1
     5    2    3 1
     6    2   37 1
     7    2   38 1
     8    3    4 1
     9    3   39 1
    10    3   40 1
    11    4    9 ar
    12    4    5 ar
    13    5    6 ar
    14    5   19 1
    15    6    7 ar
    16    6   41 1
    17    7    8 ar
    18    7   42 1
    19    8   12 1
    20    8    9 ar
    21    9   10 1
    22   10   11 1
    23   11   12 2
    24   12   13 1
    25   13   18 ar
    26   13   14 ar
    27   14   15 ar
    28   14   43 1
    29   15   16 ar
    30   15   44 1
    31   16   17 ar
    32   16   45 1
    33   17   18 ar
    34   17   46 1
    35   18   47 1
    36   19   20 1
    37   20   21 1
    38   20   48 1
    39   20   49 1
    40   21   22 1
    41   21   50 1
    42   21   51 1
    43   22   23 1
    44   23   28 ar
    45   23   24 ar
    46   24   25 ar
    47   24   52 1
    48   25   26 ar
    49   25   53 1
    50   26   27 ar
    51   26   29 1
    52   27   28 ar
    53   27   54 1
    54   28   55 1
    55   29   30 1
    56   29   56 1
    57   29   57 1
    58   30   31 1
    59   30   58 1
    60   30   59 1
    61   31   32 2
    62   31   33 1
@<TRIPOS>MOLECULE
CHEMBL375370
   53    56     0     0     0
SMALL
USER_CHARGES

@<TRIPOS>ATOM
      1 C1         -0.0184    1.5028    0.0103 C.3       1 <0>        -0.0754
      2 C2          0.0021   -0.0041    0.0020 C.2       1 <0>        -0.0221
      3 C3         -1.0704   -0.8163    0.0025 C.2       1 <0>        -0.0079
      4 N1         -0.6270   -2.0826   -0.0069 N.2       1 <0>        -0.4532
      5 C4          0.6852   -2.0676   -0.0131 C.2       1 <0>         0.2204
      6 O1          1.0982   -0.7883   -0.0131 O.3       1 <0>        -0.1918
      7 C5          1.5619   -3.2576   -0.0233 C.ar      1 <0>        -0.0069
      8 C6          1.0056   -4.5377   -0.0330 C.ar      1 <0>        -0.0589
      9 C7          1.8288   -5.6444   -0.0424 C.ar      1 <0>        -0.1100
     10 C8          3.2046   -5.4873   -0.0419 C.ar      1 <0>        -0.0205
     11 C9          3.7624   -4.2198   -0.0324 C.ar      1 <0>        -0.1103
     12 C10         2.9494   -3.1056   -0.0291 C.ar      1 <0>        -0.0782
     13 Cl1         4.2343   -6.8849   -0.0527 Cl        1 <0>        -0.0633
     14 C11        -2.5132   -0.3812    0.0123 C.3       1 <0>        -0.0326
     15 C12        -3.0086   -0.2253   -1.4269 C.3       1 <0>         0.0644
     16 O2         -4.3768    0.1872   -1.4176 O.3       1 <0>        -0.3128
     17 C13        -4.9735    0.3727   -2.6245 C.ar      1 <0>         0.0589
     18 C14        -6.3019    0.7797   -2.6997 C.ar      1 <0>        -0.1099
     19 C15        -6.8667    0.9554   -3.9524 C.ar      1 <0>        -0.1244
     20 C16        -6.0983    0.7225   -5.0779 C.ar      1 <0>         0.1206
     21 N2         -4.8418    0.3375   -4.9718 N.ar      1 <0>        -0.4082
     22 C17        -4.2653    0.1644   -3.7988 C.ar      1 <0>         0.0252
     23 C18        -6.7052    0.9108   -6.4444 C.3       1 <0>        -0.0558
     24 C19        -5.8474    1.8857   -7.2535 C.3       1 <0>         0.0469
     25 C20        -6.5221    2.1740   -8.6118 C.3       1 <0>        -0.1327
     26 C21        -5.3087    2.2161   -9.5802 C.3       1 <0>        -0.1537
     27 C22        -4.3830    1.1522   -8.9382 C.3       1 <0>         0.0484
     28 O3         -4.5679    1.3000   -7.5214 O.3       1 <0>        -0.3291
     29 C23        -5.6709    3.1701   -6.4853 C.2       1 <0>         0.5021
     30 O4         -4.5543    3.5405   -6.1653 O.co2     1 <0>        -0.6746
     31 O5         -6.6448    3.8389   -6.1839 O.co2     1 <0>        -0.7004
     32 H1          1.0042    1.8801    0.0026 H         1 <0>         0.0816
     33 H2         -0.5455    1.8639   -0.8728 H         1 <0>         0.0968
     34 H3         -0.5286    1.8543    0.9071 H         1 <0>         0.0943
     35 H4         -0.0673   -4.6614   -0.0326 H         1 <0>         0.1494
     36 H5          1.3994   -6.6354   -0.0499 H         1 <0>         0.1438
     37 H6          4.8362   -4.1036   -0.0317 H         1 <0>         0.1421
     38 H7          3.3856   -2.1176   -0.0266 H         1 <0>         0.1412
     39 H8         -3.1154   -1.1315    0.5246 H         1 <0>         0.0941
     40 H9         -2.6015    0.5726    0.5323 H         1 <0>         0.0937
     41 H10        -2.4064    0.5250   -1.9392 H         1 <0>         0.0642
     42 H11        -2.9203   -1.1792   -1.9469 H         1 <0>         0.0658
     43 H12        -6.8787    0.9540   -1.8034 H         1 <0>         0.1361
     44 H13        -7.8953    1.2702   -4.0487 H         1 <0>         0.1376
     45 H14        -3.2322   -0.1469   -3.7518 H         1 <0>         0.1472
     46 H15        -6.7473   -0.0493   -6.9587 H         1 <0>         0.0697
     47 H16        -7.7133    1.3127   -6.3420 H         1 <0>         0.0860
     48 H17        -7.2071    1.3707   -8.8830 H         1 <0>         0.0633
     49 H18        -7.0369    3.1346   -8.5931 H         1 <0>         0.0829
     50 H19        -5.6010    1.9250  -10.5892 H         1 <0>         0.0694
     51 H20        -4.8380    3.1992   -9.5778 H         1 <0>         0.0736
     52 H21        -4.6784    0.1523   -9.2561 H         1 <0>         0.0430
     53 H22        -3.3439    1.3437   -9.2061 H         1 <0>         0.0701
@<TRIPOS>BOND
     1    1    2 1
     2    1   32 1
     3    1   33 1
     4    1   34 1
     5    2    6 1
     6    2    3 2
     7    3    4 1
     8    3   14 1
     9    4    5 2
    10    5    6 1
    11    5    7 1
    12    7   12 ar
    13    7    8 ar
    14    8    9 ar
    15    8   35 1
    16    9   10 ar
    17    9   36 1
    18   10   11 ar
    19   10   13 1
    20   11   12 ar
    21   11   37 1
    22   12   38 1
    23   14   15 1
    24   14   39 1
    25   14   40 1
    26   15   16 1
    27   15   41 1
    28   15   42 1
    29   16   17 1
    30   17   22 ar
    31   17   18 ar
    32   18   19 ar
    33   18   43 1
    34   19   20 ar
    35   19   44 1
    36   20   21 ar
    37   20   23 1
    38   21   22 ar
    39   22   45 1
    40   23   24 1
    41   23   46 1
    42   23   47 1
    43   24   28 1
    44   24   25 1
    45   24   29 1
    46   25   26 1
    47   25   48 1
    48   25   49 1
    49   26   27 1
    50   26   50 1
    51   26   51 1
    52   27   28 1
    53   27   52 1
    54   27   53 1
    55   29   30 2
    56   29   31 1
@<TRIPOS>MOLECULE
CHEMBL375370__1
   53    56     0     0     0
SMALL
USER_CHARGES

@<TRIPOS>ATOM
      1 C1         -0.0184    1.5028    0.0103 C.3       1 <0>        -0.0745
      2 C2          0.0021   -0.0041    0.0020 C.2       1 <0>        -0.0231
      3 C3         -1.0704   -0.8163    0.0025 C.2       1 <0>        -0.0079
      4 N1         -0.6270   -2.0826   -0.0069 N.2       1 <0>        -0.4532
      5 C4          0.6852   -2.0676   -0.0131 C.2       1 <0>         0.2220
      6 O1          1.0982   -0.7883   -0.0131 O.3       1 <0>        -0.1916
      7 C5          1.5619   -3.2576   -0.0233 C.ar      1 <0>        -0.0072
      8 C6          1.0056   -4.5377   -0.0330 C.ar      1 <0>        -0.0585
      9 C7          1.8288   -5.6444   -0.0424 C.ar      1 <0>        -0.1099
     10 C8          3.2046   -5.4873   -0.0419 C.ar      1 <0>        -0.0203
     11 C9          3.7624   -4.2198   -0.0324 C.ar      1 <0>        -0.1104
     12 C10         2.9494   -3.1056   -0.0291 C.ar      1 <0>        -0.0779
     13 Cl1         4.2343   -6.8849   -0.0527 Cl        1 <0>        -0.0635
     14 C11        -2.5132   -0.3812    0.0123 C.3       1 <0>        -0.0313
     15 C12        -3.0086   -0.2253   -1.4269 C.3       1 <0>         0.0630
     16 O2         -4.3768    0.1872   -1.4176 O.3       1 <0>        -0.3136
     17 C13        -4.9735    0.3727   -2.6245 C.ar      1 <0>         0.0555
     18 C14        -6.3019    0.7797   -2.6997 C.ar      1 <0>        -0.1121
     19 C15        -6.8667    0.9554   -3.9524 C.ar      1 <0>        -0.1377
     20 C16        -6.0983    0.7225   -5.0779 C.ar      1 <0>         0.1207
     21 N2         -4.8418    0.3375   -4.9718 N.ar      1 <0>        -0.3947
     22 C17        -4.2653    0.1644   -3.7988 C.ar      1 <0>         0.0364
     23 C18        -6.7052    0.9108   -6.4444 C.3       1 <0>        -0.0546
     24 C19        -5.8474    1.8857   -7.2535 C.3       1 <0>         0.0417
     25 C20        -6.4676    2.0927   -8.6520 C.3       1 <0>        -0.1252
     26 C21        -7.2490    3.4228   -8.4724 C.3       1 <0>        -0.1583
     27 C22        -6.3256    4.1748   -7.4811 C.3       1 <0>         0.0506
     28 O3         -5.8146    3.1606   -6.6015 O.3       1 <0>        -0.3545
     29 C23        -4.4475    1.3441   -7.3881 C.2       1 <0>         0.5206
     30 O4         -4.2579    0.2764   -7.9453 O.co2     1 <0>        -0.6959
     31 O5         -3.5046    1.9738   -6.9399 O.co2     1 <0>        -0.6804
     32 H1          1.0042    1.8801    0.0026 H         1 <0>         0.0815
     33 H2         -0.5455    1.8639   -0.8728 H         1 <0>         0.0963
     34 H3         -0.5286    1.8543    0.9071 H         1 <0>         0.0934
     35 H4         -0.0673   -4.6614   -0.0326 H         1 <0>         0.1495
     36 H5          1.3994   -6.6354   -0.0499 H         1 <0>         0.1438
     37 H6          4.8362   -4.1036   -0.0317 H         1 <0>         0.1420
     38 H7          3.3856   -2.1176   -0.0266 H         1 <0>         0.1411
     39 H8         -3.1154   -1.1315    0.5246 H         1 <0>         0.0938
     40 H9         -2.6015    0.5726    0.5323 H         1 <0>         0.0927
     41 H10        -2.4064    0.5250   -1.9392 H         1 <0>         0.0651
     42 H11        -2.9203   -1.1792   -1.9469 H         1 <0>         0.0674
     43 H12        -6.8787    0.9540   -1.8034 H         1 <0>         0.1345
     44 H13        -7.8953    1.2702   -4.0487 H         1 <0>         0.1336
     45 H14        -3.2322   -0.1469   -3.7518 H         1 <0>         0.1479
     46 H15        -6.7473   -0.0493   -6.9587 H         1 <0>         0.0905
     47 H16        -7.7133    1.3127   -6.3420 H         1 <0>         0.0652
     48 H17        -5.6907    2.1984   -9.4092 H         1 <0>         0.0726
     49 H18        -7.1447    1.2756   -8.9009 H         1 <0>         0.0734
     50 H19        -7.3319    3.9604   -9.4170 H         1 <0>         0.0721
     51 H20        -8.2319    3.2452   -8.0361 H         1 <0>         0.0696
     52 H21        -5.5084    4.6575   -8.0171 H         1 <0>         0.0504
     53 H22        -6.8968    4.9121   -6.9170 H         1 <0>         0.0696
@<TRIPOS>BOND
     1    1    2 1
     2    1   32 1
     3    1   33 1
     4    1   34 1
     5    2    6 1
     6    2    3 2
     7    3    4 1
     8    3   14 1
     9    4    5 2
    10    5    6 1
    11    5    7 1
    12    7   12 ar
    13    7    8 ar
    14    8    9 ar
    15    8   35 1
    16    9   10 ar
    17    9   36 1
    18   10   11 ar
    19   10   13 1
    20   11   12 ar
    21   11   37 1
    22   12   38 1
    23   14   15 1
    24   14   39 1
    25   14   40 1
    26   15   16 1
    27   15   41 1
    28   15   42 1
    29   16   17 1
    30   17   22 ar
    31   17   18 ar
    32   18   19 ar
    33   18   43 1
    34   19   20 ar
    35   19   44 1
    36   20   21 ar
    37   20   23 1
    38   21   22 ar
    39   22   45 1
    40   23   24 1
    41   23   46 1
    42   23   47 1
    43   24   28 1
    44   24   25 1
    45   24   29 1
    46   25   26 1
    47   25   48 1
    48   25   49 1
    49   26   27 1
    50   26   50 1
    51   26   51 1
    52   27   28 1
    53   27   52 1
    54   27   53 1
    55   29   30 2
    56   29   31 1
