@<TRIPOS>MOLECULE
2P54-735
 53 55 0 0 0
SMALL
SF_CHARGES


@<TRIPOS>ATOM
1    C        11.3340   38.5270   30.6240  C.3        1 SUBUNIT     -0.0672
2    C        12.7960   38.3530   30.2760  C.2        1 SUBUNIT      0.2540
3    N        13.7580   38.9120   31.2150  N.2        1 SUBUNIT     -0.4969
4    C        15.0540   38.8430   30.8690  C.2        1 SUBUNIT      0.2669
5    S        15.1700   38.1210   29.2670  S.3        1 SUBUNIT     -0.0178
6    C        13.4500   37.9350   29.1690  C.2        1 SUBUNIT     -0.0596
7    C        12.8710   37.3880   27.9350  C.2        1 SUBUNIT      0.6742
8    O        13.6940   37.2080   27.0350  O.2        1 SUBUNIT     -0.5411
9    N        11.5570   37.1190   27.8330  N.am       1 SUBUNIT     -0.5744
10   C        10.9270   36.7910   26.5800  C.3        1 SUBUNIT      0.1886
11   C        10.6850   37.9790   25.6820  C.2        1 SUBUNIT     -0.0399
12   C        10.4630   39.2930   26.1770  C.2        1 SUBUNIT     -0.1037
13   C        10.2460   40.3530   25.2760  C.2        1 SUBUNIT     -0.1139
14   C        10.2480   40.1170   23.8920  C.2        1 SUBUNIT      0.1564
15   O        10.0410   41.1880   23.0170  O.3        1 SUBUNIT     -0.3975
16   C        11.1340   41.6070   22.1970  C.3        1 SUBUNIT      0.2627
17   C        10.7040   42.9690   21.6290  C.3        1 SUBUNIT     -0.1161
18   C        12.4890   41.7080   22.9210  C.3        1 SUBUNIT     -0.1161
19   C        11.2580   40.6940   20.9760  C.2        1 SUBUNIT      0.7519
20   O        12.3430   40.2150   20.6370  O.co2      1 SUBUNIT     -0.8749
21   O        10.2410   40.4190   20.3400  O.co2      1 SUBUNIT     -0.8749
22   C        10.4600   38.8120   23.3960  C.2        1 SUBUNIT     -0.1139
23   C        10.6780   37.7500   24.2950  C.2        1 SUBUNIT     -0.1037
24   C        16.1600   39.2560   31.7170  C.2        1 SUBUNIT     -0.0358
25   C        17.4610   38.7740   31.4610  C.2        1 SUBUNIT     -0.1151
26   C        18.5280   39.1460   32.2820  C.2        1 SUBUNIT     -0.1132
27   C        18.3200   40.0100   33.3770  C.2        1 SUBUNIT     -0.0840
28   C        17.0260   40.4990   33.6260  C.2        1 SUBUNIT     -0.1132
29   C        15.9470   40.1280   32.8040  C.2        1 SUBUNIT     -0.1151
30   C        19.4870   40.3810   34.2720  C.3        1 SUBUNIT      0.7799
31   F        19.2790   41.5360   34.8480  F          1 SUBUNIT     -0.2796
32   F        20.6060   40.3670   33.5900  F          1 SUBUNIT     -0.2796
33   F        19.5540   39.4490   35.1910  F          1 SUBUNIT     -0.2796
34   H        11.1000   38.0539   31.5834  H          1 SUBUNIT      0.0421
35   H        10.6924   38.0750   29.8604  H          1 SUBUNIT      0.0421
36   H        11.0720   39.5875   30.6990  H          1 SUBUNIT      0.0421
37   H        11.0207   37.1570   28.6856  H          1 SUBUNIT      0.3193
38   H        11.5748   36.0784   26.0589  H          1 SUBUNIT      0.0256
39   H         9.9669   36.3151   26.8054  H          1 SUBUNIT      0.0256
40   H        10.4599   39.4820   27.2363  H          1 SUBUNIT      0.1082
41   H        10.0778   41.3485   25.6482  H          1 SUBUNIT      0.1082
42   H         9.7849   42.8765   21.0410  H          1 SUBUNIT      0.0515
43   H        11.4797   43.3852   20.9778  H          1 SUBUNIT      0.0515
44   H        10.5181   43.6885   22.4332  H          1 SUBUNIT      0.0515
45   H        12.4413   42.4285   23.7442  H          1 SUBUNIT      0.0515
46   H        13.2775   42.0331   22.2343  H          1 SUBUNIT      0.0515
47   H        12.7842   40.7395   23.3381  H          1 SUBUNIT      0.0515
48   H        10.4553   38.6283   22.3358  H          1 SUBUNIT      0.1082
49   H        10.8405   36.7553   23.9182  H          1 SUBUNIT      0.1082
50   H        17.6378   38.1151   30.6289  H          1 SUBUNIT      0.1132
51   H        19.5136   38.7681   32.0734  H          1 SUBUNIT      0.1134
52   H        16.8594   41.1646   34.4549  H          1 SUBUNIT      0.1134
53   H        14.9613   40.5096   33.0054  H          1 SUBUNIT      0.1132
@<TRIPOS>BOND
     1    1    2 1
     2    2    3 1
     3    2    6 2
     4    3    4 2
     5    4    5 1
     6    4   24 1
     7    5    6 1
     8    6    7 1
     9    7    8 2
    10    7    9 1
    11    9   10 1
    12   10   11 1
    13   11   12 2
    14   11   23 1
    15   12   13 1
    16   13   14 2
    17   14   15 1
    18   14   22 1
    19   15   16 1
    20   16   17 1
    21   16   18 1
    22   16   19 1
    23   19   20 2
    24   19   21 1
    25   22   23 2
    26   24   25 2
    27   24   29 1
    28   25   26 1
    29   26   27 2
    30   27   28 1
    31   27   30 1
    32   28   29 2
    33   30   31 1
    34   30   32 1
    35   30   33 1
    36    1   34 1
    37    1   35 1
    38    1   36 1
    39    9   37 1
    40   10   38 1
    41   10   39 1
    42   12   40 1
    43   13   41 1
    44   17   42 1
    45   17   43 1
    46   17   44 1
    47   18   45 1
    48   18   46 1
    49   18   47 1
    50   22   48 1
    51   23   49 1
    52   25   50 1
    53   26   51 1
    54   28   52 1
    55   29   53 1
