@<TRIPOS>MOLECULE
CHEMBL417870
   61    61     0     0     0
SMALL
USER_CHARGES

@<TRIPOS>ATOM
      1 C1         -0.5986    2.0910    0.8139 C.3       1 <0>        -0.1546
      2 C2         -0.4414    0.5739    0.6943 C.3       1 <0>        -0.1238
      3 C3         -1.8230   -0.0758    0.5942 C.3       1 <0>        -0.1205
      4 C4         -1.6657   -1.5930    0.4747 C.3       1 <0>        -0.1124
      5 C5         -3.0473   -2.2426    0.3745 C.3       1 <0>        -0.1372
      6 C6         -2.8901   -3.7598    0.2550 C.3       1 <0>         0.1626
      7 H1         -2.2951   -4.1303    1.0897 H         1 <0>         0.1130
      8 C7         -4.2497   -4.4093    0.2799 C.2       1 <0>         0.5001
      9 O1         -4.7737   -4.7592   -0.7564 O.2       1 <0>        -0.4924
     10 N1         -4.8834   -4.6013    1.4538 N.am      1 <0>        -0.7147
     11 C8         -6.2051   -5.2326    1.4781 C.3       1 <0>         0.1413
     12 C9         -7.2814   -4.1720    1.2384 C.3       1 <0>        -0.0983
     13 C10        -7.1112   -3.0353    2.2482 C.3       1 <0>        -0.1465
     14 C11        -7.1442   -3.6179   -0.1812 C.3       1 <0>        -0.1375
     15 C12        -6.4280   -5.8800    2.8206 C.2       1 <0>         0.5342
     16 O2         -5.8383   -5.4690    3.7974 O.2       1 <0>        -0.5368
     17 N2         -7.2827   -6.9157    2.9357 N.am      1 <0>        -0.6027
     18 C13        -7.9859   -7.5773    1.8216 C.3       1 <0>         0.0963
     19 C14        -9.2399   -8.2169    2.4682 C.3       1 <0>        -0.1318
     20 C15        -8.6807   -8.6823    3.8386 C.3       1 <0>        -0.1271
     21 C16        -7.6632   -7.5771    4.1924 C.3       1 <0>         0.1391
     22 H2         -8.1230   -6.8548    4.8670 H         1 <0>         0.0891
     23 C17        -6.4277   -8.1947    4.8503 C.3       1 <0>         0.0612
     24 O3         -5.9169   -9.2386    4.0187 O.3       1 <0>        -0.5679
     25 N3         -2.2175   -4.0832   -1.0057 N.am      1 <0>        -0.7256
     26 C18        -2.7733   -3.7200   -2.1785 C.2       1 <0>         0.7274
     27 O4         -3.8330   -3.1240   -2.1903 O.2       1 <0>        -0.5376
     28 N4         -2.1546   -4.0176   -3.3383 N.am      1 <0>        -0.6156
     29 O5         -2.7386   -3.6360   -4.5705 O.3       1 <0>        -0.2996
     30 H3          0.3856    2.5539    0.8852 H         1 <0>         0.0532
     31 H4         -1.1169    2.4730   -0.0657 H         1 <0>         0.0536
     32 H5         -1.1767    2.3271    1.7073 H         1 <0>         0.0538
     33 H6          0.1367    0.3378   -0.1991 H         1 <0>         0.0591
     34 H7          0.0768    0.1919    1.5739 H         1 <0>         0.0604
     35 H8         -2.4011    0.1603    1.4876 H         1 <0>         0.0624
     36 H9         -2.3412    0.3062   -0.2853 H         1 <0>         0.0623
     37 H10        -1.0876   -1.8290   -0.4187 H         1 <0>         0.0623
     38 H11        -1.1475   -1.9750    1.3542 H         1 <0>         0.0619
     39 H12        -3.6254   -2.0065    1.2679 H         1 <0>         0.0760
     40 H13        -3.5656   -1.8606   -0.5050 H         1 <0>         0.0980
     41 H14        -4.4643   -4.3214    2.2827 H         1 <0>         0.4072
     42 H15        -6.2605   -5.9898    0.6959 H         1 <0>         0.1057
     43 H16        -8.2673   -4.6209    1.3594 H         1 <0>         0.0768
     44 H17        -6.1253   -2.5863    2.1271 H         1 <0>         0.0588
     45 H18        -7.8780   -2.2796    2.0774 H         1 <0>         0.0577
     46 H19        -7.2089   -3.4300    3.2595 H         1 <0>         0.0562
     47 H20        -6.1584   -3.1690   -0.3023 H         1 <0>         0.0691
     48 H21        -7.2655   -4.4278   -0.9006 H         1 <0>         0.0587
     49 H22        -7.9110   -2.8623   -0.3520 H         1 <0>         0.0495
     50 H23        -8.2788   -6.8447    1.0695 H         1 <0>         0.0790
     51 H24        -7.3540   -8.3464    1.3774 H         1 <0>         0.0759
     52 H25       -10.0313   -7.4790    2.5994 H         1 <0>         0.0770
     53 H26        -9.5923   -9.0653    1.8815 H         1 <0>         0.0874
     54 H27        -9.4754   -8.7308    4.5831 H         1 <0>         0.0816
     55 H28        -8.1803   -9.6460    3.7438 H         1 <0>         0.0906
     56 H29        -5.6641   -7.4279    4.9811 H         1 <0>         0.0636
     57 H30        -6.7006   -8.6052    5.8224 H         1 <0>         0.0537
     58 H31        -5.1313   -9.6760    4.3745 H         1 <0>         0.3791
     59 H32        -1.3721   -4.5587   -0.9962 H         1 <0>         0.4006
     60 H33        -1.3091   -4.4930   -3.3289 H         1 <0>         0.4007
     61 H34        -2.2221   -3.8926   -5.3467 H         1 <0>         0.3867
@<TRIPOS>BOND
     1    1    2 1
     2    1   30 1
     3    1   31 1
     4    1   32 1
     5    2    3 1
     6    2   33 1
     7    2   34 1
     8    3    4 1
     9    3   35 1
    10    3   36 1
    11    4    5 1
    12    4   37 1
    13    4   38 1
    14    5    6 1
    15    5   39 1
    16    5   40 1
    17    6    7 1
    18    6    8 1
    19    6   25 1
    20    8    9 2
    21    8   10 am
    22   10   11 1
    23   10   41 1
    24   11   12 1
    25   11   15 1
    26   11   42 1
    27   12   13 1
    28   12   14 1
    29   12   43 1
    30   13   44 1
    31   13   45 1
    32   13   46 1
    33   14   47 1
    34   14   48 1
    35   14   49 1
    36   15   16 2
    37   15   17 am
    38   17   21 1
    39   17   18 1
    40   18   19 1
    41   18   50 1
    42   18   51 1
    43   19   20 1
    44   19   52 1
    45   19   53 1
    46   20   21 1
    47   20   54 1
    48   20   55 1
    49   21   22 1
    50   21   23 1
    51   23   24 1
    52   23   56 1
    53   23   57 1
    54   24   58 1
    55   25   26 am
    56   25   59 1
    57   26   27 2
    58   26   28 am
    59   28   29 1
    60   28   60 1
    61   29   61 1
@<TRIPOS>MOLECULE
CHEMBL417870__1
   61    61     0     0     0
SMALL
USER_CHARGES

@<TRIPOS>ATOM
      1 C1          2.2013   -1.3431    0.5421 C.3       1 <0>        -0.1546
      2 C2          1.6477   -2.7694    0.5436 C.3       1 <0>        -0.1237
      3 C3          0.1278   -2.7268    0.3736 C.3       1 <0>        -0.1209
      4 C4         -0.4258   -4.1531    0.3751 C.3       1 <0>        -0.1121
      5 C5         -1.9458   -4.1104    0.2052 C.3       1 <0>        -0.1377
      6 C6         -2.4994   -5.5368    0.2067 C.3       1 <0>         0.1633
      7 H1         -2.1776   -6.0504    1.1126 H         1 <0>         0.1147
      8 C7         -4.0050   -5.4912    0.1629 C.2       1 <0>         0.5010
      9 O1         -4.5868   -5.6679   -0.8865 O.2       1 <0>        -0.4981
     10 N1         -4.7052   -5.2543    1.2899 N.am      1 <0>        -0.7177
     11 C8         -6.1689   -5.2101    1.2473 C.3       1 <0>         0.1390
     12 C9         -6.7259   -6.6294    1.3744 C.3       1 <0>        -0.0958
     13 C10        -6.3216   -7.2166    2.7282 C.3       1 <0>        -0.1459
     14 C11        -8.2519   -6.5895    1.2711 C.3       1 <0>        -0.1584
     15 C12        -6.6793   -4.3661    2.3867 C.2       1 <0>         0.5370
     16 O2         -6.0627   -4.3190    3.4300 O.2       1 <0>        -0.5374
     17 N2         -7.8210   -3.6638    2.2464 N.am      1 <0>        -0.6001
     18 C13        -8.6111   -3.5470    1.0072 C.3       1 <0>         0.0914
     19 C14        -9.4000   -2.2230    1.1633 C.3       1 <0>        -0.1327
     20 C15        -9.7370   -2.2379    2.6778 C.3       1 <0>        -0.1263
     21 C16        -8.4883   -2.8926    3.3054 C.3       1 <0>         0.1388
     22 H2         -7.8166   -2.1208    3.6812 H         1 <0>         0.0891
     23 C17        -8.9036   -3.8250    4.4452 C.3       1 <0>         0.0633
     24 O3         -9.8914   -4.7435    3.9732 O.3       1 <0>        -0.5658
     25 N3         -1.9982   -6.2564   -0.9669 N.am      1 <0>        -0.7253
     26 C18        -2.2743   -5.8013   -2.2051 C.2       1 <0>         0.7274
     27 O4         -2.9393   -4.7935   -2.3481 O.2       1 <0>        -0.5395
     28 N4         -1.8132   -6.4633   -3.2847 N.am      1 <0>        -0.6151
     29 O5         -2.1033   -5.9851   -4.5856 O.3       1 <0>        -0.2996
     30 H3          3.2841   -1.3735    0.6632 H         1 <0>         0.0533
     31 H4          1.9548   -0.8587   -0.4028 H         1 <0>         0.0536
     32 H5          1.7593   -0.7809    1.3647 H         1 <0>         0.0537
     33 H6          2.0896   -3.3316   -0.2791 H         1 <0>         0.0593
     34 H7          1.8942   -3.2538    1.4884 H         1 <0>         0.0606
     35 H8         -0.3142   -2.1646    1.1963 H         1 <0>         0.0623
     36 H9         -0.1187   -2.2424   -0.5712 H         1 <0>         0.0623
     37 H10         0.0161   -4.7152   -0.4475 H         1 <0>         0.0626
     38 H11        -0.1794   -4.6375    1.3200 H         1 <0>         0.0624
     39 H12        -2.3877   -3.5483    1.0278 H         1 <0>         0.0761
     40 H13        -2.1922   -3.6260   -0.7397 H         1 <0>         0.0972
     41 H14        -4.2399   -5.1130    2.1292 H         1 <0>         0.4073
     42 H15        -6.4919   -4.7764    0.3009 H         1 <0>         0.1053
     43 H16        -6.3237   -7.2506    0.5742 H         1 <0>         0.0850
     44 H17        -6.7238   -6.5954    3.5284 H         1 <0>         0.0596
     45 H18        -6.7184   -8.2277    2.8187 H         1 <0>         0.0562
     46 H19        -5.2344   -7.2450    2.8018 H         1 <0>         0.0558
     47 H20        -8.6587   -6.0319    2.1147 H         1 <0>         0.0726
     48 H21        -8.5404   -6.1016    0.3401 H         1 <0>         0.0582
     49 H22        -8.6437   -7.6065    1.2849 H         1 <0>         0.0608
     50 H23        -7.9520   -3.4959    0.1405 H         1 <0>         0.0774
     51 H24        -9.2972   -4.3887    0.9140 H         1 <0>         0.0826
     52 H25        -8.7773   -1.3649    0.9100 H         1 <0>         0.0760
     53 H26       -10.3082   -2.2360    0.5608 H         1 <0>         0.0874
     54 H27        -9.8730   -1.2234    3.0526 H         1 <0>         0.0809
     55 H28       -10.6230   -2.8431    2.8698 H         1 <0>         0.0913
     56 H29        -8.0328   -4.3776    4.7982 H         1 <0>         0.0588
     57 H30        -9.3168   -3.2362    5.2641 H         1 <0>         0.0549
     58 H31       -10.2017   -5.3666    4.6445 H         1 <0>         0.3791
     59 H32        -1.4677   -7.0603   -0.8527 H         1 <0>         0.4011
     60 H33        -1.2827   -7.2673   -3.1706 H         1 <0>         0.4011
     61 H34        -1.7304   -6.5256   -5.2955 H         1 <0>         0.3870
@<TRIPOS>BOND
     1    1    2 1
     2    1   30 1
     3    1   31 1
     4    1   32 1
     5    2    3 1
     6    2   33 1
     7    2   34 1
     8    3    4 1
     9    3   35 1
    10    3   36 1
    11    4    5 1
    12    4   37 1
    13    4   38 1
    14    5    6 1
    15    5   39 1
    16    5   40 1
    17    6    7 1
    18    6    8 1
    19    6   25 1
    20    8    9 2
    21    8   10 am
    22   10   11 1
    23   10   41 1
    24   11   12 1
    25   11   15 1
    26   11   42 1
    27   12   13 1
    28   12   14 1
    29   12   43 1
    30   13   44 1
    31   13   45 1
    32   13   46 1
    33   14   47 1
    34   14   48 1
    35   14   49 1
    36   15   16 2
    37   15   17 am
    38   17   21 1
    39   17   18 1
    40   18   19 1
    41   18   50 1
    42   18   51 1
    43   19   20 1
    44   19   52 1
    45   19   53 1
    46   20   21 1
    47   20   54 1
    48   20   55 1
    49   21   22 1
    50   21   23 1
    51   23   24 1
    52   23   56 1
    53   23   57 1
    54   24   58 1
    55   25   26 am
    56   25   59 1
    57   26   27 2
    58   26   28 am
    59   28   29 1
    60   28   60 1
    61   29   61 1
@<TRIPOS>MOLECULE
CHEMBL91903
   59    59     0     0     0
SMALL
USER_CHARGES

@<TRIPOS>ATOM
      1 C1          0.5791   -0.3165    0.9845 C.3       1 <0>        -0.1524
      2 C2         -0.1068   -0.3679   -0.3822 C.3       1 <0>        -0.1217
      3 C3          0.6984   -1.2661   -1.3234 C.3       1 <0>        -0.1253
      4 C4          0.0125   -1.3175   -2.6901 C.3       1 <0>        -0.0958
      5 C5          0.8733   -2.1264   -3.6626 C.3       1 <0>        -0.1311
      6 H1          1.8797   -1.7087   -3.6908 H         1 <0>         0.1039
      7 C6          0.2565   -2.0656   -5.0615 C.3       1 <0>         0.1430
      8 N1          0.2398   -0.6769   -5.5279 N.am      1 <0>        -0.4747
      9 C7          1.3754   -0.1006   -5.9691 C.2       1 <0>         0.4789
     10 O1          1.3616    1.0491   -6.3553 O.2       1 <0>        -0.5463
     11 O2         -0.9694    0.0597   -5.5151 O.3       1 <0>        -0.3311
     12 C8          0.9372   -3.5604   -3.2037 C.2       1 <0>         0.5259
     13 O3          0.3519   -3.9018   -2.1978 O.2       1 <0>        -0.5122
     14 N2          1.6448   -4.4634   -3.9110 N.am      1 <0>        -0.7147
     15 C9          1.7069   -5.8574   -3.4648 C.3       1 <0>         0.1366
     16 H2          1.7114   -5.8904   -2.3753 H         1 <0>         0.1102
     17 C10         2.9650   -6.4980   -3.9919 C.2       1 <0>         0.5214
     18 O4          3.3712   -6.2156   -5.0993 O.2       1 <0>        -0.5281
     19 N3          3.6388   -7.3847   -3.2328 N.am      1 <0>        -0.6100
     20 C11         3.1102   -7.8236   -1.9315 C.3       1 <0>         0.0600
     21 C12         3.1327   -9.3559   -1.8926 C.3       1 <0>         0.0441
     22 O5          4.4424   -9.8163   -2.2339 O.3       1 <0>        -0.3754
     23 C13         4.8585   -9.4693   -3.5568 C.3       1 <0>         0.0469
     24 C14         4.9218   -7.9470   -3.6835 C.3       1 <0>         0.0752
     25 C15         0.4881   -6.6168   -3.9930 C.3       1 <0>        -0.0711
     26 C16         0.4667   -6.5470   -5.5213 C.3       1 <0>        -0.1444
     27 C17         0.5672   -8.0792   -3.5503 C.3       1 <0>        -0.1552
     28 C18        -0.7882   -5.9835   -3.4356 C.3       1 <0>        -0.1317
     29 H3          0.6347   -1.3222    1.4011 H         1 <0>         0.0537
     30 H4          1.5856    0.0860    0.8709 H         1 <0>         0.0514
     31 H5          0.0054    0.3234    1.6550 H         1 <0>         0.0528
     32 H6         -1.1134   -0.7704   -0.2687 H         1 <0>         0.0613
     33 H7         -0.1625    0.6377   -0.7989 H         1 <0>         0.0571
     34 H8          1.7050   -0.8636   -1.4370 H         1 <0>         0.0527
     35 H9          0.7541   -2.2718   -0.9068 H         1 <0>         0.0814
     36 H10        -0.9640   -1.7911   -2.5890 H         1 <0>         0.0738
     37 H11        -0.1128   -0.3044   -3.0721 H         1 <0>         0.0739
     38 H12         0.8492   -2.6719   -5.7465 H         1 <0>         0.0967
     39 H13        -0.7631   -2.4492   -5.0260 H         1 <0>         0.1045
     40 H14         2.2977   -0.6624   -5.9789 H         1 <0>         0.1531
     41 H15        -0.8814    0.9659   -5.8409 H         1 <0>         0.3983
     42 H16         2.1129   -4.1903   -4.7155 H         1 <0>         0.4080
     43 H17         3.7329   -7.4269   -1.1296 H         1 <0>         0.0836
     44 H18         2.0867   -7.4683   -1.8123 H         1 <0>         0.1026
     45 H19         2.8761   -9.6985   -0.8902 H         1 <0>         0.1106
     46 H20         2.4106   -9.7489   -2.6084 H         1 <0>         0.0618
     47 H21         5.8436   -9.8933   -3.7516 H         1 <0>         0.1102
     48 H22         4.1428   -9.8626   -4.2786 H         1 <0>         0.0572
     49 H23         5.0973   -7.6734   -4.7239 H         1 <0>         0.1045
     50 H24         5.7299   -7.5629   -3.0610 H         1 <0>         0.0799
     51 H25         1.3760   -6.9981   -5.9184 H         1 <0>         0.0633
     52 H26        -0.4015   -7.0879   -5.8976 H         1 <0>         0.0590
     53 H27         0.4104   -5.5051   -5.8366 H         1 <0>         0.0571
     54 H28         0.5040   -8.1337   -2.4635 H         1 <0>         0.0632
     55 H29        -0.2590   -8.6373   -3.9908 H         1 <0>         0.0689
     56 H30         1.5129   -8.5084   -3.8813 H         1 <0>         0.0573
     57 H31        -0.8446   -4.9416   -3.7510 H         1 <0>         0.0568
     58 H32        -1.6565   -6.5244   -3.8119 H         1 <0>         0.0547
     59 H33        -0.7730   -6.0332   -2.3469 H         1 <0>         0.0657
@<TRIPOS>BOND
     1    1    2 1
     2    1   29 1
     3    1   30 1
     4    1   31 1
     5    2    3 1
     6    2   32 1
     7    2   33 1
     8    3    4 1
     9    3   34 1
    10    3   35 1
    11    4    5 1
    12    4   36 1
    13    4   37 1
    14    5    6 1
    15    5    7 1
    16    5   12 1
    17    7    8 1
    18    7   38 1
    19    7   39 1
    20    8    9 am
    21    8   11 1
    22    9   10 2
    23    9   40 1
    24   11   41 1
    25   12   13 2
    26   12   14 am
    27   14   15 1
    28   14   42 1
    29   15   16 1
    30   15   17 1
    31   15   25 1
    32   17   18 2
    33   17   19 am
    34   19   24 1
    35   19   20 1
    36   20   21 1
    37   20   43 1
    38   20   44 1
    39   21   22 1
    40   21   45 1
    41   21   46 1
    42   22   23 1
    43   23   24 1
    44   23   47 1
    45   23   48 1
    46   24   49 1
    47   24   50 1
    48   25   26 1
    49   25   27 1
    50   25   28 1
    51   26   51 1
    52   26   52 1
    53   26   53 1
    54   27   54 1
    55   27   55 1
    56   27   56 1
    57   28   57 1
    58   28   58 1
    59   28   59 1
@<TRIPOS>MOLECULE
CHEMBL364979
   79    79     0     0     0
SMALL
USER_CHARGES

@<TRIPOS>ATOM
      1 C1          0.4140    0.9637   -0.1291 C.3       1 <0>        -0.1221
      2 C2          1.8597    1.4643   -0.1166 C.3       1 <0>        -0.1225
      3 C3          1.9217    2.8266    0.5770 C.3       1 <0>        -0.1197
      4 C4          3.3327    3.0578    1.1217 C.3       1 <0>        -0.1227
      5 C5          3.2788    4.0775    2.2612 C.3       1 <0>        -0.1232
      6 C6          3.9841    3.5045    3.4921 C.3       1 <0>        -0.1178
      7 C7          3.0354    3.5517    4.6915 C.3       1 <0>        -0.1324
      8 C8          3.8163    3.2490    5.9719 C.3       1 <0>         0.1081
      9 N1          2.8683    2.7511    6.9963 N.am      1 <0>        -0.7396
     10 C9          2.6676    1.3986    6.9906 C.2       1 <0>         0.5026
     11 O1          3.2429    0.6915    6.1907 O.2       1 <0>        -0.5114
     12 C10         1.7178    0.8036    7.9981 C.3       1 <0>         0.1239
     13 H1          0.7798    1.3588    7.9881 H         1 <0>         0.1167
     14 N2          1.4628   -0.6058    7.6372 N.am      1 <0>        -0.7220
     15 C11         0.5270   -0.8243    6.6724 C.2       1 <0>         0.5314
     16 O2         -0.0519    0.1075    6.1551 O.2       1 <0>        -0.5081
     17 C12         0.2209   -2.2399    6.2560 C.3       1 <0>        -0.1343
     18 H2          1.0646   -2.6447    5.6971 H         1 <0>         0.1113
     19 C13        -1.0288   -2.2528    5.3733 C.3       1 <0>        -0.1169
     20 C14        -0.6795   -2.8367    4.0029 C.3       1 <0>        -0.1151
     21 C15        -1.4171   -2.0564    2.9129 C.3       1 <0>        -0.1197
     22 C16        -0.6764   -2.2136    1.5834 C.3       1 <0>        -0.1221
     23 C17        -0.9152   -0.9752    0.7171 C.3       1 <0>        -0.1227
     24 C18         0.3985   -0.5551    0.0549 C.3       1 <0>        -0.1206
     25 C19        -0.0246   -3.0957    7.5002 C.3       1 <0>         0.1486
     26 N3         -0.1972   -4.4955    7.1038 N.am      1 <0>        -0.4775
     27 C20         0.8742   -5.2328    6.7505 C.2       1 <0>         0.4779
     28 O3          0.7446   -6.4146    6.5104 O.2       1 <0>        -0.5389
     29 O4         -1.4897   -5.0737    7.0918 O.3       1 <0>        -0.3319
     30 C21         2.3406    0.8740    9.3938 C.3       1 <0>        -0.1228
     31 C22         1.3260    0.3865   10.4301 C.3       1 <0>        -0.1181
     32 C23         1.9024    0.5731   11.8351 C.3       1 <0>        -0.1536
     33 C24         0.8878    0.0856   12.8714 C.3       1 <0>        -0.0106
     34 N4          1.4412    0.2647   14.2204 N.4       1 <0>        -0.6390
     35 H3         -0.1404    1.4338    0.6832 H         1 <0>         0.0627
     36 H4         -0.0507    1.2191   -1.0815 H         1 <0>         0.0593
     37 H5          2.4857    0.7533    0.4225 H         1 <0>         0.0624
     38 H6          2.2195    1.5614   -1.1409 H         1 <0>         0.0595
     39 H7          1.6758    3.6106   -0.1393 H         1 <0>         0.0594
     40 H8          1.2067    2.8485    1.3994 H         1 <0>         0.0617
     41 H9          3.7367    2.1168    1.4950 H         1 <0>         0.0642
     42 H10         3.9722    3.4371    0.3247 H         1 <0>         0.0598
     43 H11         3.7777    4.9956    1.9510 H         1 <0>         0.0610
     44 H12         2.2390    4.2940    2.5061 H         1 <0>         0.0643
     45 H13         4.2727    2.4716    3.2975 H         1 <0>         0.0670
     46 H14         4.8738    4.0956    3.7090 H         1 <0>         0.0602
     47 H15         2.5901    4.5440    4.7636 H         1 <0>         0.0624
     48 H16         2.2484    2.8089    4.5617 H         1 <0>         0.0669
     49 H17         4.5698    2.4877    5.7697 H         1 <0>         0.0870
     50 H18         4.2982    4.1586    6.3304 H         1 <0>         0.0778
     51 H19         2.4233    3.3411    7.6247 H         1 <0>         0.4061
     52 H20         1.9362   -1.3365    8.0648 H         1 <0>         0.4077
     53 H21        -1.7991   -2.8644    5.8431 H         1 <0>         0.0759
     54 H22        -1.3978   -1.2345    5.2510 H         1 <0>         0.0915
     55 H23         0.3956   -2.7614    3.8393 H         1 <0>         0.0599
     56 H24        -0.9800   -3.8838    3.9668 H         1 <0>         0.0598
     57 H25        -2.4310   -2.4435    2.8120 H         1 <0>         0.0597
     58 H26        -1.4563   -1.0015    3.1846 H         1 <0>         0.0666
     59 H27         0.3912   -2.3239    1.7731 H         1 <0>         0.0624
     60 H28        -1.0464   -3.0974    1.0637 H         1 <0>         0.0590
     61 H29        -1.6521   -1.2065   -0.0520 H         1 <0>         0.0593
     62 H30        -1.2843   -0.1611    1.3409 H         1 <0>         0.0641
     63 H31         0.4866   -1.0398   -0.9174 H         1 <0>         0.0594
     64 H32         1.2354   -0.8531    0.6865 H         1 <0>         0.0625
     65 H33         0.8285   -3.0113    8.1734 H         1 <0>         0.0870
     66 H34        -0.9242   -2.7485    8.0084 H         1 <0>         0.1024
     67 H35         1.8482   -4.7714    6.6811 H         1 <0>         0.1516
     68 H36        -1.5033   -6.0007    6.8168 H         1 <0>         0.4009
     69 H37         3.2276    0.2415    9.4282 H         1 <0>         0.0823
     70 H38         2.6200    1.9040    9.6155 H         1 <0>         0.0892
     71 H39         0.4052    0.9621   10.3358 H         1 <0>         0.0815
     72 H40         1.1135   -0.6692   10.2618 H         1 <0>         0.0794
     73 H41         2.8232   -0.0025   11.9294 H         1 <0>         0.0900
     74 H42         2.1149    1.6288   12.0034 H         1 <0>         0.0904
     75 H43        -0.0330    0.6611   12.7771 H         1 <0>         0.1348
     76 H44         0.6753   -0.9702   12.7031 H         1 <0>         0.1344
     77 H45         0.7721   -0.0568   14.9038 H         1 <0>         0.4396
     78 H46         2.2936   -0.2681   14.3077 H         1 <0>         0.4357
     79 H47         1.6379    1.2420   14.3762 H         1 <0>         0.4358
@<TRIPOS>BOND
     1    1   24 1
     2    1    2 1
     3    1   35 1
     4    1   36 1
     5    2    3 1
     6    2   37 1
     7    2   38 1
     8    3    4 1
     9    3   39 1
    10    3   40 1
    11    4    5 1
    12    4   41 1
    13    4   42 1
    14    5    6 1
    15    5   43 1
    16    5   44 1
    17    6    7 1
    18    6   45 1
    19    6   46 1
    20    7    8 1
    21    7   47 1
    22    7   48 1
    23    8    9 1
    24    8   49 1
    25    8   50 1
    26    9   10 am
    27    9   51 1
    28   10   11 2
    29   10   12 1
    30   12   13 1
    31   12   14 1
    32   12   30 1
    33   14   15 am
    34   14   52 1
    35   15   16 2
    36   15   17 1
    37   17   18 1
    38   17   19 1
    39   17   25 1
    40   19   20 1
    41   19   53 1
    42   19   54 1
    43   20   21 1
    44   20   55 1
    45   20   56 1
    46   21   22 1
    47   21   57 1
    48   21   58 1
    49   22   23 1
    50   22   59 1
    51   22   60 1
    52   23   24 1
    53   23   61 1
    54   23   62 1
    55   24   63 1
    56   24   64 1
    57   25   26 1
    58   25   65 1
    59   25   66 1
    60   26   27 am
    61   26   29 1
    62   27   28 2
    63   27   67 1
    64   29   68 1
    65   30   31 1
    66   30   69 1
    67   30   70 1
    68   31   32 1
    69   31   71 1
    70   31   72 1
    71   32   33 1
    72   32   73 1
    73   32   74 1
    74   33   34 1
    75   33   75 1
    76   33   76 1
    77   34   77 1
    78   34   78 1
    79   34   79 1
@<TRIPOS>MOLECULE
CHEMBL330263
   58    57     0     0     0
SMALL
USER_CHARGES

@<TRIPOS>ATOM
      1 C1          1.6430   -2.0420    2.5144 C.3       1 <0>        -0.1523
      2 C2          1.0335   -1.6148    1.1776 C.3       1 <0>        -0.1210
      3 C3          1.7334   -2.3572    0.0375 C.3       1 <0>        -0.1244
      4 C4          1.1239   -1.9300   -1.2992 C.3       1 <0>        -0.0952
      5 C5          1.9085   -2.5711   -2.4456 C.3       1 <0>        -0.1288
      6 H1          2.9684   -2.3428   -2.3328 H         1 <0>         0.1020
      7 C6          1.4065   -2.0163   -3.7802 C.3       1 <0>         0.1465
      8 N1          1.6647   -0.5754   -3.8381 N.am      1 <0>        -0.4734
      9 C7          2.9169   -0.1230   -4.0473 C.2       1 <0>         0.4785
     10 O1          3.1307    1.0699   -4.0952 O.2       1 <0>        -0.5491
     11 O2          0.5986    0.3421   -3.6742 O.3       1 <0>        -0.3328
     12 C8          1.7105   -4.0648   -2.4163 C.2       1 <0>         0.5380
     13 O3          1.0108   -4.5671   -1.5625 O.2       1 <0>        -0.5242
     14 N2          2.3111   -4.8424   -3.3388 N.am      1 <0>        -0.6929
     15 C9          2.1187   -6.2944   -3.3102 C.3       1 <0>         0.1283
     16 H2          1.1045   -6.5201   -2.9805 H         1 <0>         0.1234
     17 C10         2.3381   -6.8657   -4.7125 C.3       1 <0>        -0.1166
     18 C11         1.2320   -6.3675   -5.6449 C.3       1 <0>        -0.0249
     19 C12         1.3797   -7.0350   -7.0137 C.3       1 <0>        -0.1449
     20 C13        -0.1331   -6.7195   -5.0505 C.3       1 <0>        -0.1537
     21 S1          1.3640   -4.5680   -5.8323 S.3       1 <0>        -0.2537
     22 C14         0.0011   -4.1421   -6.9511 C.3       1 <0>        -0.1297
     23 C15         3.1067   -6.9135   -2.3554 C.2       1 <0>         0.5020
     24 O4          3.8941   -6.2109   -1.7577 O.2       1 <0>        -0.5223
     25 N3          3.1153   -8.2478   -2.1658 N.am      1 <0>        -0.6206
     26 C16         4.0758   -8.8496   -1.2376 C.3       1 <0>         0.0839
     27 C17         2.1642   -9.0964   -2.8879 C.3       1 <0>         0.0695
     28 H3          1.5129   -3.1161    2.6463 H         1 <0>         0.0533
     29 H4          2.7060   -1.8011    2.5225 H         1 <0>         0.0518
     30 H5          1.1443   -1.5131    3.3266 H         1 <0>         0.0520
     31 H6         -0.0295   -1.8558    1.1695 H         1 <0>         0.0602
     32 H7          1.1636   -0.5407    1.0457 H         1 <0>         0.0569
     33 H8          2.7964   -2.1163    0.0456 H         1 <0>         0.0536
     34 H9          1.6033   -3.4313    0.1695 H         1 <0>         0.0799
     35 H10         0.0842   -2.2542   -1.3446 H         1 <0>         0.0723
     36 H11         1.1703   -0.8448   -1.3895 H         1 <0>         0.0723
     37 H12         1.9280   -2.5120   -4.5990 H         1 <0>         0.1011
     38 H13         0.3354   -2.1973   -3.8691 H         1 <0>         0.1036
     39 H14         3.7300   -0.8227   -4.1722 H         1 <0>         0.1515
     40 H15         0.8663    1.2697   -3.7280 H         1 <0>         0.3969
     41 H16         2.8708   -4.4407   -4.0216 H         1 <0>         0.4044
     42 H17         3.3067   -6.5386   -5.0906 H         1 <0>         0.0876
     43 H18         2.3137   -7.9545   -4.6692 H         1 <0>         0.1102
     44 H19         1.2171   -8.1082   -6.9140 H         1 <0>         0.0682
     45 H20         0.6446   -6.6185   -7.7023 H         1 <0>         0.0614
     46 H21         2.3828   -6.8538   -7.3999 H         1 <0>         0.0702
     47 H22        -0.2384   -6.2440   -4.0754 H         1 <0>         0.0732
     48 H23        -0.9211   -6.3646   -5.7148 H         1 <0>         0.0629
     49 H24        -0.2125   -7.8008   -4.9379 H         1 <0>         0.0691
     50 H25        -0.0023   -3.0663   -7.1265 H         1 <0>         0.1007
     51 H26         0.1322   -4.6644   -7.8988 H         1 <0>         0.0765
     52 H27        -0.9456   -4.4397   -6.5002 H         1 <0>         0.0780
     53 H28         3.6383   -8.8941   -0.2403 H         1 <0>         0.0562
     54 H29         4.3216   -9.8575   -1.5719 H         1 <0>         0.0716
     55 H30         4.9822   -8.2448   -1.2100 H         1 <0>         0.0772
     56 H31         2.6041   -9.4115   -3.8341 H         1 <0>         0.0637
     57 H32         1.9306   -9.9743   -2.2855 H         1 <0>         0.0775
     58 H33         1.2503   -8.5348   -3.0812 H         1 <0>         0.0743
@<TRIPOS>BOND
     1    1    2 1
     2    1   28 1
     3    1   29 1
     4    1   30 1
     5    2    3 1
     6    2   31 1
     7    2   32 1
     8    3    4 1
     9    3   33 1
    10    3   34 1
    11    4    5 1
    12    4   35 1
    13    4   36 1
    14    5    6 1
    15    5    7 1
    16    5   12 1
    17    7    8 1
    18    7   37 1
    19    7   38 1
    20    8    9 am
    21    8   11 1
    22    9   10 2
    23    9   39 1
    24   11   40 1
    25   12   13 2
    26   12   14 am
    27   14   15 1
    28   14   41 1
    29   15   16 1
    30   15   17 1
    31   15   23 1
    32   17   18 1
    33   17   42 1
    34   17   43 1
    35   18   19 1
    36   18   20 1
    37   18   21 1
    38   19   44 1
    39   19   45 1
    40   19   46 1
    41   20   47 1
    42   20   48 1
    43   20   49 1
    44   21   22 1
    45   22   50 1
    46   22   51 1
    47   22   52 1
    48   23   24 2
    49   23   25 am
    50   25   26 1
    51   25   27 1
    52   26   53 1
    53   26   54 1
    54   26   55 1
    55   27   56 1
    56   27   57 1
    57   27   58 1
@<TRIPOS>MOLECULE
CHEMBL298588
   27    28     0     0     0
SMALL
USER_CHARGES

@<TRIPOS>ATOM
      1 C1         -0.0167    1.3782    0.0096 C.ar      1 <0>        -0.0723
      2 C2          1.1660    2.0926    0.0022 C.ar      1 <0>        -0.1410
      3 C3          2.3801    1.4195   -0.0130 C.ar      1 <0>         0.1793
      4 C4          2.3904    0.0286   -0.0205 C.ar      1 <0>        -0.1135
      5 C5          1.2113   -0.6813   -0.0135 C.ar      1 <0>        -0.0457
      6 C6          0.0021   -0.0041    0.0020 C.ar      1 <0>        -0.1140
      7 Br1         1.2410   -2.5720   -0.0245 Br        1 <0>        -0.0322
      8 C7          3.7292   -0.6720   -0.0370 C.3       1 <0>         0.1476
      9 N1          4.9285    0.1830   -0.0439 N.am      1 <0>        -0.5975
     10 C8          4.7806    1.5201   -0.0353 C.2       1 <0>         0.7164
     11 O1          5.7792    2.2137   -0.0412 O.2       1 <0>        -0.5689
     12 N2          3.5849    2.1230   -0.0212 N.am      1 <0>        -0.6584
     13 C9          6.2657   -0.4152   -0.0594 C.3       1 <0>         0.1362
     14 C10         6.7110   -0.6131   -1.4854 C.2       1 <0>         0.5041
     15 O2          5.9830   -0.2867   -2.3989 O.2       1 <0>        -0.5067
     16 N3          7.9182   -1.1529   -1.7457 N.am      1 <0>        -0.5952
     17 O3          8.3366   -1.3389   -3.0856 O.3       1 <0>        -0.3168
     18 H1         -0.9608    1.9025    0.0260 H         1 <0>         0.1421
     19 H2          1.1460    3.1724    0.0078 H         1 <0>         0.1395
     20 H3         -0.9259   -0.5565    0.0079 H         1 <0>         0.1414
     21 H4          3.7817   -1.3177    0.8396 H         1 <0>         0.0877
     22 H5          3.7649   -1.3083   -0.9214 H         1 <0>         0.0880
     23 H6          3.5551    3.0925   -0.0157 H         1 <0>         0.4283
     24 H7          6.9656    0.2463    0.4513 H         1 <0>         0.1302
     25 H8          6.2388   -1.3785    0.4499 H         1 <0>         0.1233
     26 H9          8.5005   -1.4140   -1.0151 H         1 <0>         0.4092
     27 H10         9.2158   -1.7321   -3.1722 H         1 <0>         0.3887
@<TRIPOS>BOND
     1    1    6 ar
     2    1    2 ar
     3    1   18 1
     4    2    3 ar
     5    2   19 1
     6    3   12 1
     7    3    4 ar
     8    4    5 ar
     9    4    8 1
    10    5    6 ar
    11    5    7 1
    12    6   20 1
    13    8    9 1
    14    8   21 1
    15    8   22 1
    16    9   10 am
    17    9   13 1
    18   10   11 2
    19   10   12 am
    20   12   23 1
    21   13   14 1
    22   13   24 1
    23   13   25 1
    24   14   15 2
    25   14   16 am
    26   16   17 1
    27   16   26 1
    28   17   27 1
@<TRIPOS>MOLECULE
CHEMBL157687
   93    96     0     0     0
SMALL
USER_CHARGES

@<TRIPOS>ATOM
      1 C1         -0.6063    1.7732   -1.0109 C.3       1 <0>        -0.1547
      2 C2         -0.5757    0.2903   -0.6354 C.3       1 <0>        -0.0681
      3 C3         -0.2857    0.1488    0.8602 C.3       1 <0>        -0.1508
      4 C4         -1.9306   -0.3447   -0.9545 C.3       1 <0>        -0.1345
      5 C5          0.5199   -0.4160   -1.4364 C.3       1 <0>         0.1184
      6 H1          0.2548   -0.4154   -2.4937 H         1 <0>         0.1161
      7 C6          1.8276    0.3083   -1.2461 C.2       1 <0>         0.3900
      8 O1          1.9501    1.1127   -0.3463 O.2       1 <0>        -0.4093
      9 C7          2.9529    0.0407   -2.1492 C.ar      1 <0>        -0.1420
     10 C8          2.7796   -0.7978   -3.2578 C.ar      1 <0>        -0.0715
     11 C9          3.8269   -1.0466   -4.0978 C.ar      1 <0>        -0.1090
     12 C10         5.0710   -0.4696   -3.8575 C.ar      1 <0>         0.1681
     13 C11         5.2552    0.3671   -2.7567 C.ar      1 <0>         0.0842
     14 C12         4.2023    0.6279   -1.9082 C.ar      1 <0>        -0.0877
     15 F1          6.4636    0.9254   -2.5263 F         1 <0>        -0.1268
     16 N1          6.1328   -0.7284   -4.7169 N.pl3     1 <0>        -0.6767
     17 C13         7.0319   -1.8688   -4.4838 C.3       1 <0>         0.1469
     18 C14         7.1359   -2.6796   -5.7800 C.3       1 <0>         0.0433
     19 N2          7.5329   -1.7902   -6.8796 N.3       1 <0>        -0.5277
     20 C15         6.5161   -0.7586   -7.1243 C.3       1 <0>         0.0334
     21 C16         6.3831    0.1273   -5.8867 C.3       1 <0>         0.1468
     22 C17         7.8107   -2.5561   -8.1020 C.3       1 <0>         0.0294
     23 C18         8.4552   -1.6387   -9.1432 C.3       1 <0>        -0.0059
     24 N3          8.7329   -2.4046  -10.3656 N.4       1 <0>        -0.3930
     25 C19         7.4610   -2.7831  -11.0330 C.3       1 <0>        -0.0077
     26 C20         7.8936   -3.0462  -12.4973 C.3       1 <0>        -0.1454
     27 C21         8.9668   -1.9604  -12.7411 C.3       1 <0>        -0.1454
     28 C22         9.4643   -1.5645  -11.3386 C.3       1 <0>        -0.0066
     29 N4          0.6541   -1.7975   -0.9675 N.am      1 <0>        -0.7176
     30 C23        -0.1492   -2.7588   -1.4644 C.2       1 <0>         0.5257
     31 O2         -0.9832   -2.4803   -2.2998 O.2       1 <0>        -0.5087
     32 C24        -0.0112   -4.1798   -0.9820 C.3       1 <0>        -0.1311
     33 H2          0.9948   -4.5403   -1.1968 H         1 <0>         0.1047
     34 C25        -1.0336   -5.0635   -1.6995 C.3       1 <0>        -0.0876
     35 C26        -0.6854   -6.5356   -1.4700 C.3       1 <0>        -0.1140
     36 C27         0.6163   -6.8934   -2.2165 C.3       1 <0>        -0.1199
     37 C28         0.3759   -8.3349   -2.7298 C.3       1 <0>        -0.1245
     38 C29        -1.1188   -8.3085   -3.1351 C.3       1 <0>        -0.1253
     39 C30        -1.7886   -7.4354   -2.0541 C.3       1 <0>        -0.1175
     40 C31        -0.2607   -4.2329    0.5265 C.3       1 <0>         0.1427
     41 N5          0.0558   -5.5728    1.0271 N.am      1 <0>        -0.4705
     42 C32         1.3308   -6.0095    1.0242 C.2       1 <0>         0.4769
     43 O3          1.5928   -7.1188    1.4386 O.2       1 <0>        -0.5400
     44 O4         -0.9779   -6.4092    1.5139 O.3       1 <0>        -0.3260
     45 H3          0.3193    2.2492   -0.6871 H         1 <0>         0.0719
     46 H4         -0.7071    1.8724   -2.0916 H         1 <0>         0.0524
     47 H5         -1.4530    2.2545   -0.5213 H         1 <0>         0.0636
     48 H6         -1.1424    0.5056    1.4318 H         1 <0>         0.0575
     49 H7         -0.1018   -0.8992    1.0970 H         1 <0>         0.0492
     50 H8          0.5939    0.7391    1.1172 H         1 <0>         0.0764
     51 H9         -2.1372   -0.2439   -2.0200 H         1 <0>         0.0600
     52 H10        -1.9087   -1.4012   -0.6871 H         1 <0>         0.0580
     53 H11        -2.7111    0.1585   -0.3839 H         1 <0>         0.0535
     54 H12         1.8167   -1.2484   -3.4481 H         1 <0>         0.1389
     55 H13         3.6898   -1.6936   -4.9516 H         1 <0>         0.1345
     56 H14         4.3401    1.2791   -1.0576 H         1 <0>         0.1506
     57 H15         8.0192   -1.5046   -4.1996 H         1 <0>         0.0672
     58 H16         6.6280   -2.4973   -3.6902 H         1 <0>         0.0813
     59 H17         7.8826   -3.4644   -5.6592 H         1 <0>         0.0892
     60 H18         6.1690   -3.1288   -6.0065 H         1 <0>         0.0457
     61 H19         6.8134   -0.1503   -7.9785 H         1 <0>         0.0810
     62 H20         5.5578   -1.2346   -7.3321 H         1 <0>         0.0460
     63 H21         5.5503    0.8178   -6.0201 H         1 <0>         0.0799
     64 H22         7.3067    0.6871   -5.7399 H         1 <0>         0.0658
     65 H23         8.4900   -3.3764   -7.8704 H         1 <0>         0.0968
     66 H24         6.8783   -2.9575   -8.4990 H         1 <0>         0.0555
     67 H25         7.7758   -0.8184   -9.3749 H         1 <0>         0.1280
     68 H26         9.3876   -1.2373   -8.7463 H         1 <0>         0.1396
     69 H27         7.0461   -3.6865  -10.5861 H         1 <0>         0.1335
     70 H28         6.7431   -1.9643  -10.9852 H         1 <0>         0.1320
     71 H29         8.3231   -4.0428  -12.5994 H         1 <0>         0.0986
     72 H30         7.0519   -2.9163  -13.1774 H         1 <0>         0.1165
     73 H31         9.7873   -2.3657  -13.3332 H         1 <0>         0.1059
     74 H32         8.5262   -1.0992  -13.2433 H         1 <0>         0.1039
     75 H33         9.2527   -0.5115  -11.1531 H         1 <0>         0.1307
     76 H34        10.5354   -1.7505  -11.2584 H         1 <0>         0.1334
     77 H35         1.3211   -2.0202   -0.2994 H         1 <0>         0.4029
     78 H36        -2.0294   -4.8601   -1.3058 H         1 <0>         0.0722
     79 H37        -1.0141   -4.8478   -2.7677 H         1 <0>         0.0764
     80 H38        -0.5707   -6.7300   -0.4036 H         1 <0>         0.0992
     81 H39         0.7761   -6.2124   -3.0525 H         1 <0>         0.0627
     82 H40         1.4664   -6.8680   -1.5347 H         1 <0>         0.0553
     83 H41         1.0066   -8.5477   -3.5930 H         1 <0>         0.0619
     84 H42         0.5481   -9.0614   -1.9357 H         1 <0>         0.0663
     85 H43        -1.2392   -7.8561   -4.1195 H         1 <0>         0.0627
     86 H44        -1.5349   -9.3159   -3.1237 H         1 <0>         0.0635
     87 H45        -2.2086   -8.0671   -1.2713 H         1 <0>         0.0625
     88 H46        -2.5720   -6.8233   -2.5010 H         1 <0>         0.0635
     89 H47         0.3728   -3.4996    1.0256 H         1 <0>         0.0904
     90 H48        -1.3075   -4.0069    0.7298 H         1 <0>         0.1086
     91 H49         2.1192   -5.3716    0.6529 H         1 <0>         0.1476
     92 H50        -0.6724   -7.2733    1.8223 H         1 <0>         0.3993
     93 H51         9.2702   -3.2297  -10.1452 H         1 <0>         0.4272
@<TRIPOS>BOND
     1    1    2 1
     2    1   45 1
     3    1   46 1
     4    1   47 1
     5    2    3 1
     6    2    4 1
     7    2    5 1
     8    3   48 1
     9    3   49 1
    10    3   50 1
    11    4   51 1
    12    4   52 1
    13    4   53 1
    14    5    6 1
    15    5    7 1
    16    5   29 1
    17    7    8 2
    18    7    9 1
    19    9   14 ar
    20    9   10 ar
    21   10   11 ar
    22   10   54 1
    23   11   12 ar
    24   11   55 1
    25   12   13 ar
    26   12   16 1
    27   13   14 ar
    28   13   15 1
    29   14   56 1
    30   16   21 1
    31   16   17 1
    32   17   18 1
    33   17   57 1
    34   17   58 1
    35   18   19 1
    36   18   59 1
    37   18   60 1
    38   19   20 1
    39   19   22 1
    40   20   21 1
    41   20   61 1
    42   20   62 1
    43   21   63 1
    44   21   64 1
    45   22   23 1
    46   22   65 1
    47   22   66 1
    48   23   24 1
    49   23   67 1
    50   23   68 1
    51   24   28 1
    52   24   25 1
    53   24   93 1
    54   25   26 1
    55   25   69 1
    56   25   70 1
    57   26   27 1
    58   26   71 1
    59   26   72 1
    60   27   28 1
    61   27   73 1
    62   27   74 1
    63   28   75 1
    64   28   76 1
    65   29   30 am
    66   29   77 1
    67   30   31 2
    68   30   32 1
    69   32   33 1
    70   32   34 1
    71   32   40 1
    72   34   35 1
    73   34   78 1
    74   34   79 1
    75   35   39 1
    76   35   36 1
    77   35   80 1
    78   36   37 1
    79   36   81 1
    80   36   82 1
    81   37   38 1
    82   37   83 1
    83   37   84 1
    84   38   39 1
    85   38   85 1
    86   38   86 1
    87   39   87 1
    88   39   88 1
    89   40   41 1
    90   40   89 1
    91   40   90 1
    92   41   42 am
    93   41   44 1
    94   42   43 2
    95   42   91 1
    96   44   92 1
@<TRIPOS>MOLECULE
CHEMBL157091
   64    65     0     0     0
SMALL
USER_CHARGES

@<TRIPOS>ATOM
      1 C1         -0.6066    1.7734   -1.0109 C.3       1 <0>        -0.1539
      2 C2         -0.5759    0.2905   -0.6355 C.3       1 <0>        -0.0674
      3 C3         -0.2861    0.1490    0.8601 C.3       1 <0>        -0.1491
      4 C4         -1.9307   -0.3446   -0.9548 C.3       1 <0>        -0.1342
      5 C5          0.5199   -0.4157   -1.4364 C.3       1 <0>         0.1157
      6 H1          0.2548   -0.4151   -2.4937 H         1 <0>         0.1145
      7 C6          1.8275    0.3087   -1.2458 C.2       1 <0>         0.3969
      8 O1          1.9498    1.1129   -0.3460 O.2       1 <0>        -0.4275
      9 C7          2.9537    0.0410   -2.1495 C.ar      1 <0>        -0.2165
     10 C8          2.7812   -0.7971   -3.2580 C.ar      1 <0>        -0.0261
     11 C9          3.8359   -1.0434   -4.0989 C.ar      1 <0>        -0.1651
     12 C10         5.0754   -0.4629   -3.8522 C.ar      1 <0>         0.1679
     13 C11         5.2522    0.3699   -2.7525 C.ar      1 <0>        -0.2240
     14 C12         4.2024    0.6277   -1.9089 C.ar      1 <0>        -0.0133
     15 O2          6.1158   -0.7102   -4.6870 O.3       1 <0>        -0.3104
     16 C13         7.3610   -0.0820   -4.3755 C.3       1 <0>         0.0228
     17 N1          0.6541   -1.7971   -0.9675 N.am      1 <0>        -0.7158
     18 C14        -0.1491   -2.7585   -1.4645 C.2       1 <0>         0.5251
     19 O3         -0.9830   -2.4801   -2.3000 O.2       1 <0>        -0.5101
     20 C15        -0.0111   -4.1796   -0.9821 C.3       1 <0>        -0.1322
     21 H2          0.9950   -4.5400   -1.1967 H         1 <0>         0.1059
     22 C16        -1.0333   -5.0633   -1.6997 C.3       1 <0>        -0.0877
     23 C17        -0.6851   -6.5354   -1.4702 C.3       1 <0>        -0.1135
     24 C18         0.6167   -6.8930   -2.2166 C.3       1 <0>        -0.1215
     25 C19         0.3765   -8.3345   -2.7300 C.3       1 <0>        -0.1245
     26 C20        -1.1181   -8.3083   -3.1355 C.3       1 <0>        -0.1254
     27 C21        -1.7881   -7.4352   -2.0545 C.3       1 <0>        -0.1167
     28 C22        -0.2609   -4.2326    0.5264 C.3       1 <0>         0.1437
     29 N2          0.0556   -5.5726    1.0270 N.am      1 <0>        -0.4703
     30 C23         1.3307   -6.0092    1.0243 C.2       1 <0>         0.4776
     31 O4          1.5927   -7.1185    1.4387 O.2       1 <0>        -0.5418
     32 O5         -0.9781   -6.4090    1.5136 O.3       1 <0>        -0.3274
     33 H3          0.3189    2.2495   -0.6870 H         1 <0>         0.0731
     34 H4         -0.7073    1.8726   -2.0917 H         1 <0>         0.0522
     35 H5         -1.4534    2.2547   -0.5215 H         1 <0>         0.0606
     36 H6         -1.1430    0.5057    1.4316 H         1 <0>         0.0544
     37 H7         -0.1022   -0.8990    1.0970 H         1 <0>         0.0482
     38 H8          0.5933    0.7393    1.1173 H         1 <0>         0.0770
     39 H9         -2.1372   -0.2437   -2.0203 H         1 <0>         0.0599
     40 H10        -1.9089   -1.4010   -0.6874 H         1 <0>         0.0576
     41 H11        -2.7114    0.1586   -0.3843 H         1 <0>         0.0510
     42 H12         1.8193   -1.2490   -3.4500 H         1 <0>         0.1369
     43 H13         3.7039   -1.6897   -4.9541 H         1 <0>         0.1389
     44 H14         6.2169    0.8177   -2.5649 H         1 <0>         0.1364
     45 H15         4.3394    1.2784   -1.0579 H         1 <0>         0.1377
     46 H16         7.2330    1.0004   -4.3797 H         1 <0>         0.0604
     47 H17         7.6939   -0.4047   -3.3891 H         1 <0>         0.0603
     48 H18         8.1058   -0.3627   -5.1202 H         1 <0>         0.1055
     49 H19         1.3210   -2.0199   -0.2993 H         1 <0>         0.4023
     50 H20        -2.0292   -4.8599   -1.3062 H         1 <0>         0.0708
     51 H21        -1.0137   -4.8476   -2.7680 H         1 <0>         0.0777
     52 H22        -0.5704   -6.7298   -0.4039 H         1 <0>         0.0980
     53 H23         0.7766   -6.2121   -3.0526 H         1 <0>         0.0653
     54 H24         1.4667   -6.8676   -1.5347 H         1 <0>         0.0557
     55 H25         1.0073   -8.5473   -3.5931 H         1 <0>         0.0637
     56 H26         0.5486   -9.0611   -1.9359 H         1 <0>         0.0650
     57 H27        -1.2384   -7.8559   -4.1198 H         1 <0>         0.0638
     58 H28        -1.5342   -9.3157   -3.1242 H         1 <0>         0.0622
     59 H29        -2.2082   -8.0670   -1.2718 H         1 <0>         0.0609
     60 H30        -2.5715   -6.8232   -2.5015 H         1 <0>         0.0630
     61 H31         0.3725   -3.4993    1.0256 H         1 <0>         0.0905
     62 H32        -1.3077   -4.0068    0.7295 H         1 <0>         0.1075
     63 H33         2.1192   -5.3712    0.6531 H         1 <0>         0.1493
     64 H34        -0.6725   -7.2731    1.8220 H         1 <0>         0.3983
@<TRIPOS>BOND
     1    1    2 1
     2    1   33 1
     3    1   34 1
     4    1   35 1
     5    2    3 1
     6    2    4 1
     7    2    5 1
     8    3   36 1
     9    3   37 1
    10    3   38 1
    11    4   39 1
    12    4   40 1
    13    4   41 1
    14    5    6 1
    15    5    7 1
    16    5   17 1
    17    7    8 2
    18    7    9 1
    19    9   14 ar
    20    9   10 ar
    21   10   11 ar
    22   10   42 1
    23   11   12 ar
    24   11   43 1
    25   12   13 ar
    26   12   15 1
    27   13   14 ar
    28   13   44 1
    29   14   45 1
    30   15   16 1
    31   16   46 1
    32   16   47 1
    33   16   48 1
    34   17   18 am
    35   17   49 1
    36   18   19 2
    37   18   20 1
    38   20   21 1
    39   20   22 1
    40   20   28 1
    41   22   23 1
    42   22   50 1
    43   22   51 1
    44   23   27 1
    45   23   24 1
    46   23   52 1
    47   24   25 1
    48   24   53 1
    49   24   54 1
    50   25   26 1
    51   25   55 1
    52   25   56 1
    53   26   27 1
    54   26   57 1
    55   26   58 1
    56   27   59 1
    57   27   60 1
    58   28   29 1
    59   28   61 1
    60   28   62 1
    61   29   30 am
    62   29   32 1
    63   30   31 2
    64   30   63 1
    65   32   64 1
@<TRIPOS>MOLECULE
CHEMBL328803
   74    75     0     0     0
SMALL
USER_CHARGES

@<TRIPOS>ATOM
      1 C1         -3.1593   -3.1164   -0.3895 C.3       1 <0>        -0.1524
      2 C2         -1.8191   -2.4191   -0.1477 C.3       1 <0>        -0.1218
      3 C3         -1.1657   -2.9926    1.1113 C.3       1 <0>        -0.1243
      4 C4          0.1745   -2.2953    1.3531 C.3       1 <0>        -0.0963
      5 C5          0.7668   -2.7746    2.6799 C.3       1 <0>        -0.1309
      6 H1          0.0347   -2.6366    3.4756 H         1 <0>         0.1035
      7 C6          2.0253   -1.9651    2.9987 C.3       1 <0>         0.1429
      8 N1          1.6615   -0.5632    3.2186 N.am      1 <0>        -0.4748
      9 C7          1.0749   -0.1925    4.3740 C.2       1 <0>         0.4789
     10 O1          0.7737    0.9682    4.5560 O.2       1 <0>        -0.5465
     11 O2          1.9262    0.4024    2.2173 O.3       1 <0>        -0.3314
     12 C8          1.1227   -4.2351    2.5726 C.2       1 <0>         0.5259
     13 O3          0.9223   -4.8336    1.5370 O.2       1 <0>        -0.5139
     14 N2          1.6636   -4.8761    3.6276 N.am      1 <0>        -0.7144
     15 C9          2.0095   -6.2959    3.5233 C.3       1 <0>         0.1363
     16 H2          1.2806   -6.8019    2.8902 H         1 <0>         0.1110
     17 C10         1.9999   -6.9174    4.8961 C.2       1 <0>         0.5197
     18 O4          2.2687   -6.2442    5.8685 O.2       1 <0>        -0.5338
     19 N3          1.6926   -8.2214    5.0433 N.am      1 <0>        -0.6042
     20 C11         1.4759   -9.0767    3.8685 C.3       1 <0>         0.0959
     21 C12         0.1146   -9.7659    4.0048 C.3       1 <0>        -0.1339
     22 C13         0.0545  -10.5077    5.3420 C.3       1 <0>        -0.0805
     23 C14         0.2062   -9.5069    6.4898 C.3       1 <0>        -0.1309
     24 C15         1.5741   -8.8161    6.3816 C.3       1 <0>         0.1112
     25 C16        -1.2908  -11.2259    5.4665 C.3       1 <0>        -0.0771
     26 C17        -1.3030  -12.0551    6.7248 C.ar      1 <0>        -0.0802
     27 C18        -0.8624  -13.3650    6.6936 C.ar      1 <0>        -0.1182
     28 C19        -0.8736  -14.1257    7.8479 C.ar      1 <0>        -0.1175
     29 C20        -1.3250  -13.5762    9.0333 C.ar      1 <0>        -0.1245
     30 C21        -1.7646  -12.2661    9.0647 C.ar      1 <0>        -0.1181
     31 C22        -1.7494  -11.5041    7.9114 C.ar      1 <0>        -0.1176
     32 C23         3.4037   -6.4373    2.9092 C.3       1 <0>        -0.0710
     33 C24         4.4343   -5.7746    3.8255 C.3       1 <0>        -0.1435
     34 C25         3.7426   -7.9207    2.7495 C.3       1 <0>        -0.1574
     35 C26         3.4285   -5.7580    1.5385 C.3       1 <0>        -0.1318
     36 H3         -3.8139   -2.9524    0.4665 H         1 <0>         0.0514
     37 H4         -3.6248   -2.7079   -1.2864 H         1 <0>         0.0527
     38 H5         -2.9940   -4.1858   -0.5208 H         1 <0>         0.0536
     39 H6         -1.1645   -2.5832   -1.0037 H         1 <0>         0.0613
     40 H7         -1.9844   -1.3497   -0.0164 H         1 <0>         0.0572
     41 H8         -1.8203   -2.8285    1.9673 H         1 <0>         0.0528
     42 H9         -1.0004   -4.0619    0.9800 H         1 <0>         0.0804
     43 H10         0.8608   -2.5354    0.5410 H         1 <0>         0.0741
     44 H11         0.0211   -1.2168    1.3923 H         1 <0>         0.0738
     45 H12         2.4957   -2.3637    3.8976 H         1 <0>         0.0961
     46 H13         2.7223   -2.0329    2.1633 H         1 <0>         0.1048
     47 H14         0.8730   -0.9289    5.1377 H         1 <0>         0.1531
     48 H15         1.6511    1.2990    2.4530 H         1 <0>         0.3982
     49 H16         1.8238   -4.3975    4.4559 H         1 <0>         0.4081
     50 H17         1.4878   -8.4667    2.9653 H         1 <0>         0.0944
     51 H18         2.2626   -9.8292    3.8142 H         1 <0>         0.0780
     52 H19        -0.6773   -9.0178    3.9679 H         1 <0>         0.0696
     53 H20        -0.0170  -10.4761    3.1885 H         1 <0>         0.0803
     54 H21         0.8618  -11.2387    5.3884 H         1 <0>         0.0757
     55 H22        -0.5865   -8.7612    6.4295 H         1 <0>         0.0671
     56 H23         0.1399  -10.0329    7.4423 H         1 <0>         0.0814
     57 H24         2.3687   -9.5477    6.5281 H         1 <0>         0.0694
     58 H25         1.6508   -8.0341    7.1371 H         1 <0>         0.0937
     59 H26        -2.0932  -10.4895    5.5089 H         1 <0>         0.0726
     60 H27        -1.4378  -11.8743    4.6027 H         1 <0>         0.0748
     61 H28        -0.5098  -13.7943    5.7675 H         1 <0>         0.1202
     62 H29        -0.5301  -15.1493    7.8234 H         1 <0>         0.1211
     63 H30        -1.3344  -14.1707    9.9349 H         1 <0>         0.1206
     64 H31        -2.1176  -11.8369    9.9908 H         1 <0>         0.1211
     65 H32        -2.0894  -10.4793    7.9366 H         1 <0>         0.1201
     66 H33         4.4166   -6.2585    4.8020 H         1 <0>         0.0599
     67 H34         5.4275   -5.8753    3.3880 H         1 <0>         0.0591
     68 H35         4.1928   -4.7177    3.9393 H         1 <0>         0.0570
     69 H36         3.0518   -8.3769    2.0403 H         1 <0>         0.0642
     70 H37         4.7628   -8.0226    2.3796 H         1 <0>         0.0657
     71 H38         3.6544   -8.4195    3.7146 H         1 <0>         0.0625
     72 H39         3.1871   -4.7012    1.6522 H         1 <0>         0.0541
     73 H40         4.4218   -5.8588    1.1010 H         1 <0>         0.0538
     74 H41         2.6944   -6.2302    0.8856 H         1 <0>         0.0676
@<TRIPOS>BOND
     1    1    2 1
     2    1   36 1
     3    1   37 1
     4    1   38 1
     5    2    3 1
     6    2   39 1
     7    2   40 1
     8    3    4 1
     9    3   41 1
    10    3   42 1
    11    4    5 1
    12    4   43 1
    13    4   44 1
    14    5    6 1
    15    5    7 1
    16    5   12 1
    17    7    8 1
    18    7   45 1
    19    7   46 1
    20    8    9 am
    21    8   11 1
    22    9   10 2
    23    9   47 1
    24   11   48 1
    25   12   13 2
    26   12   14 am
    27   14   15 1
    28   14   49 1
    29   15   16 1
    30   15   17 1
    31   15   32 1
    32   17   18 2
    33   17   19 am
    34   19   24 1
    35   19   20 1
    36   20   21 1
    37   20   50 1
    38   20   51 1
    39   21   22 1
    40   21   52 1
    41   21   53 1
    42   22   23 1
    43   22   25 1
    44   22   54 1
    45   23   24 1
    46   23   55 1
    47   23   56 1
    48   24   57 1
    49   24   58 1
    50   25   26 1
    51   25   59 1
    52   25   60 1
    53   26   31 ar
    54   26   27 ar
    55   27   28 ar
    56   27   61 1
    57   28   29 ar
    58   28   62 1
    59   29   30 ar
    60   29   63 1
    61   30   31 ar
    62   30   64 1
    63   31   65 1
    64   32   33 1
    65   32   34 1
    66   32   35 1
    67   33   66 1
    68   33   67 1
    69   33   68 1
    70   34   69 1
    71   34   70 1
    72   34   71 1
    73   35   72 1
    74   35   73 1
    75   35   74 1
@<TRIPOS>MOLECULE
CHEMBL365910
   76    76     0     0     0
SMALL
USER_CHARGES

@<TRIPOS>ATOM
      1 C1         -0.5393    0.6503   -0.3462 C.3       1 <0>        -0.2302
      2 C2          0.2703   -0.6371   -0.1786 C.3       1 <0>        -0.0482
      3 C3          1.3293   -0.4359    0.9072 C.3       1 <0>        -0.2082
      4 C4         -0.6647   -1.7785    0.2262 C.3       1 <0>        -0.1483
      5 C5          0.9559   -0.9843   -1.5016 C.3       1 <0>         0.1284
      6 H1          1.0374   -2.0670   -1.5977 H         1 <0>         0.1126
      7 C6          0.1478   -0.4348   -2.6488 C.2       1 <0>         0.5151
      8 O1          0.6940    0.1067   -3.5865 O.2       1 <0>        -0.5229
      9 N1         -1.2135   -0.5592   -2.6118 N.am      1 <0>        -0.7360
     10 C7         -1.9275    0.0095   -3.7792 C.3       1 <0>         0.0970
     11 C8         -2.5878    1.3227   -3.3544 C.3       1 <0>        -0.1385
     12 C9         -2.4585    2.3472   -4.4833 C.3       1 <0>        -0.1170
     13 C10        -3.1814    3.6362   -4.0873 C.3       1 <0>        -0.1222
     14 C11        -2.4192    4.8402   -4.6445 C.3       1 <0>        -0.1225
     15 C12        -2.2354    5.8831   -3.5402 C.3       1 <0>        -0.1209
     16 C13        -0.9399    6.6600   -3.7828 C.3       1 <0>        -0.1223
     17 C14        -0.3430    7.0882   -2.4408 C.3       1 <0>        -0.1215
     18 C15         1.1833    7.1097   -2.5450 C.3       1 <0>        -0.1202
     19 C16         1.7924    6.8766   -1.1610 C.3       1 <0>        -0.1232
     20 C17         3.1225    6.1348   -1.3075 C.3       1 <0>        -0.1166
     21 C18         3.2522    5.0953   -0.1923 C.3       1 <0>        -0.1203
     22 C19         4.1512    3.9506   -0.6642 C.3       1 <0>        -0.1355
     23 C20         3.7753    2.6673    0.0792 C.3       1 <0>        -0.1190
     24 C21         3.7943    1.4886   -0.8961 C.3       1 <0>        -0.1362
     25 H2          4.5568    0.7736   -0.5871 H         1 <0>         0.0995
     26 C22         2.4459    0.8159   -0.8972 C.2       1 <0>         0.5043
     27 O2          1.5011    1.3314   -0.3381 O.2       1 <0>        -0.4591
     28 N2          2.3040   -0.3816   -1.5337 N.am      1 <0>        -0.7076
     29 C23         4.1121    1.9965   -2.3039 C.3       1 <0>         0.1421
     30 N3          5.4984    2.4676   -2.3518 N.am      1 <0>        -0.4730
     31 C24         6.5113    1.5791   -2.3858 C.2       1 <0>         0.4794
     32 O3          7.6595    1.9662   -2.3337 O.2       1 <0>        -0.5477
     33 O4          5.7743    3.8565   -2.3622 O.3       1 <0>        -0.3207
     34 H3          0.1326    1.5081   -0.3196 H         1 <0>         0.1486
     35 H4         -1.0629    0.6284   -1.3020 H         1 <0>         0.0791
     36 H5         -1.2645    0.7315    0.4635 H         1 <0>         0.0381
     37 H6          0.8408   -0.1886    1.8497 H         1 <0>         0.0479
     38 H7          1.9061   -1.3531    1.0266 H         1 <0>         0.0331
     39 H8          1.9954    0.3773    0.6188 H         1 <0>         0.1347
     40 H9         -1.3630   -1.9815   -0.5858 H         1 <0>         0.0486
     41 H10        -0.0775   -2.6734    0.4326 H         1 <0>         0.0578
     42 H11        -1.2197   -1.4939    1.1201 H         1 <0>         0.0655
     43 H12        -1.6775   -0.9882   -1.8759 H         1 <0>         0.4114
     44 H13        -1.2182    0.2003   -4.5846 H         1 <0>         0.0970
     45 H14        -2.6907   -0.6910   -4.1182 H         1 <0>         0.0713
     46 H15        -3.6424    1.1470   -3.1421 H         1 <0>         0.0632
     47 H16        -2.0957    1.7039   -2.4596 H         1 <0>         0.0734
     48 H17        -1.4046    2.5614   -4.6607 H         1 <0>         0.0667
     49 H18        -2.9054    1.9446   -5.3923 H         1 <0>         0.0600
     50 H19        -4.1922    3.6259   -4.4949 H         1 <0>         0.0588
     51 H20        -3.2285    3.7073   -3.0007 H         1 <0>         0.0640
     52 H21        -1.4426    4.5169   -5.0050 H         1 <0>         0.0651
     53 H22        -2.9836    5.2783   -5.4677 H         1 <0>         0.0581
     54 H23        -3.0795    6.5727   -3.5476 H         1 <0>         0.0579
     55 H24        -2.1834    5.3829   -2.5731 H         1 <0>         0.0640
     56 H25        -0.2287    6.0247   -4.3107 H         1 <0>         0.0636
     57 H26        -1.1535    7.5438   -4.3840 H         1 <0>         0.0577
     58 H27        -0.7036    8.0843   -2.1839 H         1 <0>         0.0575
     59 H28        -0.6444    6.3820   -1.6671 H         1 <0>         0.0637
     60 H29         1.5122    6.3228   -3.2239 H         1 <0>         0.0631
     61 H30         1.5079    8.0778   -2.9265 H         1 <0>         0.0572
     62 H31         1.9633    7.8361   -0.6730 H         1 <0>         0.0563
     63 H32         1.1078    6.2795   -0.5586 H         1 <0>         0.0638
     64 H33         3.1551    5.6350   -2.2756 H         1 <0>         0.0627
     65 H34         3.9450    6.8466   -1.2381 H         1 <0>         0.0557
     66 H35         3.6908    5.5617    0.6899 H         1 <0>         0.0528
     67 H36         2.2657    4.7038    0.0561 H         1 <0>         0.0627
     68 H37         4.0179    3.8021   -1.7358 H         1 <0>         0.0962
     69 H38         5.1926    4.1980   -0.4584 H         1 <0>         0.0682
     70 H39         4.4928    2.4879    0.8800 H         1 <0>         0.0630
     71 H40         2.7766    2.7721    0.5030 H         1 <0>         0.0922
     72 H41         3.0460   -0.8128   -1.9858 H         1 <0>         0.4132
     73 H42         3.9786    1.1867   -3.0211 H         1 <0>         0.0948
     74 H43         3.4404    2.8178   -2.5540 H         1 <0>         0.1151
     75 H44         6.3004    0.5225   -2.4595 H         1 <0>         0.1501
     76 H45         6.7169    4.0700   -2.3947 H         1 <0>         0.3855
@<TRIPOS>BOND
     1    1    2 1
     2    1   34 1
     3    1   35 1
     4    1   36 1
     5    2    3 1
     6    2    4 1
     7    2    5 1
     8    3   37 1
     9    3   38 1
    10    3   39 1
    11    4   40 1
    12    4   41 1
    13    4   42 1
    14    5    6 1
    15    5   28 1
    16    5    7 1
    17    7    8 2
    18    7    9 am
    19    9   10 1
    20    9   43 1
    21   10   11 1
    22   10   44 1
    23   10   45 1
    24   11   12 1
    25   11   46 1
    26   11   47 1
    27   12   13 1
    28   12   48 1
    29   12   49 1
    30   13   14 1
    31   13   50 1
    32   13   51 1
    33   14   15 1
    34   14   52 1
    35   14   53 1
    36   15   16 1
    37   15   54 1
    38   15   55 1
    39   16   17 1
    40   16   56 1
    41   16   57 1
    42   17   18 1
    43   17   58 1
    44   17   59 1
    45   18   19 1
    46   18   60 1
    47   18   61 1
    48   19   20 1
    49   19   62 1
    50   19   63 1
    51   20   21 1
    52   20   64 1
    53   20   65 1
    54   21   22 1
    55   21   66 1
    56   21   67 1
    57   22   23 1
    58   22   68 1
    59   22   69 1
    60   23   24 1
    61   23   70 1
    62   23   71 1
    63   24   25 1
    64   24   26 1
    65   24   29 1
    66   26   27 2
    67   26   28 am
    68   28   72 1
    69   29   30 1
    70   29   73 1
    71   29   74 1
    72   30   31 am
    73   30   33 1
    74   31   32 2
    75   31   75 1
    76   33   76 1
@<TRIPOS>MOLECULE
CHEMBL36140
   41    42     0     0     0
SMALL
USER_CHARGES

@<TRIPOS>ATOM
      1 C1         -0.0187    1.5258    0.0104 C.3       1 <0>        -0.1473
      2 C2          0.0021   -0.0041    0.0020 C.3       1 <0>        -0.0938
      3 C3          0.7421   -0.5109    1.2415 C.3       1 <0>        -0.1539
      4 C4         -1.4333   -0.5336    0.0129 C.3       1 <0>        -0.1313
      5 C5         -1.4157   -2.0577   -0.1212 C.3       1 <0>         0.0888
      6 N1         -2.7901   -2.5647   -0.1108 N.am      1 <0>        -0.5391
      7 C6         -3.3289   -2.8842    1.1319 C.ar      1 <0>         0.1604
      8 C7         -2.7140   -2.4006    2.2829 C.ar      1 <0>        -0.1446
      9 C8         -3.2346   -2.6960    3.5271 C.ar      1 <0>        -0.0831
     10 C9         -4.3719   -3.4742    3.6446 C.ar      1 <0>        -0.1264
     11 C10        -4.9916   -3.9641    2.5097 C.ar      1 <0>        -0.0567
     12 C11        -4.4708   -3.6744    1.2594 C.ar      1 <0>        -0.1451
     13 S1         -5.2438   -4.3149   -0.1934 S.3       1 <0>        -0.0423
     14 C12        -4.8456   -3.0513   -1.4400 C.3       1 <0>        -0.0829
     15 C13        -3.3970   -2.6678   -1.2886 C.2       1 <0>         0.5260
     16 O1         -2.7515   -2.4469   -2.2915 O.2       1 <0>        -0.5013
     17 C14        -5.7243   -1.8181   -1.2211 C.3       1 <0>        -0.1190
     18 C15        -7.1666   -2.1786   -1.4683 C.2       1 <0>         0.5311
     19 O2         -7.4625   -3.3105   -1.7881 O.2       1 <0>        -0.4972
     20 N2         -8.1276   -1.2433   -1.3340 N.am      1 <0>        -0.5962
     21 O3         -9.4827   -1.5820   -1.5662 O.3       1 <0>        -0.3132
     22 H1          1.0039    1.9031    0.0027 H         1 <0>         0.0578
     23 H2         -0.5459    1.8868   -0.8726 H         1 <0>         0.0548
     24 H3         -0.5289    1.8773    0.9072 H         1 <0>         0.0547
     25 H4          0.5123   -0.3556   -0.8948 H         1 <0>         0.0747
     26 H5          0.7568   -1.6008    1.2356 H         1 <0>         0.0559
     27 H6          1.7647   -0.1336    1.2338 H         1 <0>         0.0588
     28 H7          0.2319   -0.1594    2.1383 H         1 <0>         0.0562
     29 H8         -1.9156   -0.2570    0.9504 H         1 <0>         0.0698
     30 H9         -1.9862   -0.1019   -0.8214 H         1 <0>         0.0691
     31 H10        -0.9334   -2.3344   -1.0587 H         1 <0>         0.1013
     32 H11        -0.8628   -2.4894    0.7131 H         1 <0>         0.0923
     33 H12        -1.8255   -1.7919    2.2025 H         1 <0>         0.1369
     34 H13        -2.7501   -2.3171    4.4148 H         1 <0>         0.1327
     35 H14        -4.7750   -3.6990    4.6210 H         1 <0>         0.1338
     36 H15        -5.8798   -4.5722    2.5981 H         1 <0>         0.1369
     37 H16        -5.0171   -3.4545   -2.4381 H         1 <0>         0.1609
     38 H17        -5.6083   -1.4666   -0.1959 H         1 <0>         0.1060
     39 H18        -5.4233   -1.0302   -1.9116 H         1 <0>         0.1173
     40 H19        -7.8909   -0.3380   -1.0782 H         1 <0>         0.4081
     41 H20       -10.0983   -0.8462   -1.4454 H         1 <0>         0.3891
@<TRIPOS>BOND
     1    1    2 1
     2    1   22 1
     3    1   23 1
     4    1   24 1
     5    2    3 1
     6    2    4 1
     7    2   25 1
     8    3   26 1
     9    3   27 1
    10    3   28 1
    11    4    5 1
    12    4   29 1
    13    4   30 1
    14    5    6 1
    15    5   31 1
    16    5   32 1
    17    6   15 am
    18    6    7 1
    19    7   12 ar
    20    7    8 ar
    21    8    9 ar
    22    8   33 1
    23    9   10 ar
    24    9   34 1
    25   10   11 ar
    26   10   35 1
    27   11   12 ar
    28   11   36 1
    29   12   13 1
    30   13   14 1
    31   14   15 1
    32   14   17 1
    33   14   37 1
    34   15   16 2
    35   17   18 1
    36   17   38 1
    37   17   39 1
    38   18   19 2
    39   18   20 am
    40   20   21 1
    41   20   40 1
    42   21   41 1
@<TRIPOS>MOLECULE
CHEMBL36140__1
   41    42     0     0     0
SMALL
USER_CHARGES

@<TRIPOS>ATOM
      1 C1          1.9506   -3.8267   -0.7115 C.3       1 <0>        -0.1475
      2 C2          0.9804   -2.6658   -0.4834 C.3       1 <0>        -0.0922
      3 C3          1.1375   -1.6413   -1.6088 C.3       1 <0>        -0.1517
      4 C4         -0.4549   -3.1954   -0.4726 C.3       1 <0>        -0.1307
      5 C5         -1.4157   -2.0577   -0.1212 C.3       1 <0>         0.0891
      6 N1         -2.7901   -2.5647   -0.1108 N.am      1 <0>        -0.5393
      7 C6         -3.2918   -2.9850    1.1174 C.ar      1 <0>         0.1604
      8 C7         -2.4073   -3.2348    2.1623 C.ar      1 <0>        -0.1439
      9 C8         -2.8796   -3.6623    3.3872 C.ar      1 <0>        -0.0828
     10 C9         -4.2349   -3.8479    3.5903 C.ar      1 <0>        -0.1268
     11 C10        -5.1258   -3.5997    2.5623 C.ar      1 <0>        -0.0565
     12 C11        -4.6575   -3.1663    1.3329 C.ar      1 <0>        -0.1454
     13 S1         -5.7908   -2.8271    0.0217 S.3       1 <0>        -0.0431
     14 C12        -4.7967   -3.1846   -1.4592 C.3       1 <0>        -0.0831
     15 C13        -3.4324   -2.5716   -1.2742 C.2       1 <0>         0.5261
     16 O1         -2.8924   -2.0637   -2.2343 O.2       1 <0>        -0.4999
     17 C14        -4.6654   -4.6985   -1.6374 C.3       1 <0>        -0.1184
     18 C15        -6.0224   -5.2908   -1.9181 C.2       1 <0>         0.5311
     19 O2         -6.9984   -4.5727   -1.9705 O.2       1 <0>        -0.4972
     20 N2         -6.1514   -6.6184   -2.1109 N.am      1 <0>        -0.5962
     21 O3         -7.4265   -7.1749   -2.3746 O.3       1 <0>        -0.3132
     22 H1          2.9732   -3.4494   -0.7192 H         1 <0>         0.0578
     23 H2          1.8387   -4.5566    0.0903 H         1 <0>         0.0544
     24 H3          1.7311   -4.3011   -1.6680 H         1 <0>         0.0549
     25 H4          1.1999   -2.1914    0.4730 H         1 <0>         0.0723
     26 H5          0.4464   -0.8142   -1.4464 H         1 <0>         0.0567
     27 H6          2.1601   -1.2640   -1.6166 H         1 <0>         0.0562
     28 H7          0.9181   -2.1157   -2.5653 H         1 <0>         0.0569
     29 H8         -0.7040   -3.5901   -1.4576 H         1 <0>         0.0701
     30 H9         -0.5440   -3.9885    0.2698 H         1 <0>         0.0683
     31 H10        -1.1666   -1.6629    0.8638 H         1 <0>         0.0909
     32 H11        -1.3266   -1.2646   -0.8636 H         1 <0>         0.1021
     33 H12        -1.3468   -3.0939    2.0143 H         1 <0>         0.1360
     34 H13        -2.1856   -3.8534    4.1924 H         1 <0>         0.1328
     35 H14        -4.5968   -4.1863    4.5499 H         1 <0>         0.1338
     36 H15        -6.1848   -3.7442    2.7174 H         1 <0>         0.1369
     37 H16        -5.2763   -2.7497   -2.3361 H         1 <0>         0.1605
     38 H17        -3.9971   -4.9095   -2.4723 H         1 <0>         0.1172
     39 H18        -4.2586   -5.1376   -0.7265 H         1 <0>         0.1060
     40 H19        -5.3708   -7.1927   -2.0690 H         1 <0>         0.4081
     41 H20        -7.4190   -8.1339   -2.4988 H         1 <0>         0.3891
@<TRIPOS>BOND
     1    1    2 1
     2    1   22 1
     3    1   23 1
     4    1   24 1
     5    2    3 1
     6    2    4 1
     7    2   25 1
     8    3   26 1
     9    3   27 1
    10    3   28 1
    11    4    5 1
    12    4   29 1
    13    4   30 1
    14    5    6 1
    15    5   31 1
    16    5   32 1
    17    6   15 am
    18    6    7 1
    19    7   12 ar
    20    7    8 ar
    21    8    9 ar
    22    8   33 1
    23    9   10 ar
    24    9   34 1
    25   10   11 ar
    26   10   35 1
    27   11   12 ar
    28   11   36 1
    29   12   13 1
    30   13   14 1
    31   14   15 1
    32   14   17 1
    33   14   37 1
    34   15   16 2
    35   17   18 1
    36   17   38 1
    37   17   39 1
    38   18   19 2
    39   18   20 am
    40   20   21 1
    41   20   40 1
    42   21   41 1
@<TRIPOS>MOLECULE
CHEMBL154703
   56    56     0     0     0
SMALL
USER_CHARGES

@<TRIPOS>ATOM
      1 C1          1.2804   -1.3326   -2.1842 C.3       1 <0>        -0.1524
      2 C2         -0.0174   -0.9902   -1.4498 C.3       1 <0>        -0.1222
      3 C3         -1.0429   -2.1019   -1.6810 C.3       1 <0>        -0.1240
      4 C4         -2.3407   -1.7595   -0.9466 C.3       1 <0>        -0.0970
      5 C5         -3.4075   -2.8034   -1.2828 C.3       1 <0>        -0.1310
      6 H1         -3.5078   -2.8850   -2.3651 H         1 <0>         0.1043
      7 C6         -4.7465   -2.3774   -0.6772 C.3       1 <0>         0.1428
      8 N1         -5.1867   -1.1253   -1.2975 N.am      1 <0>        -0.4747
      9 C7         -5.6888   -1.1330   -2.5482 C.2       1 <0>         0.4786
     10 O1         -6.0532   -0.0964   -3.0617 O.2       1 <0>        -0.5458
     11 O2         -5.0845    0.0929   -0.5830 O.3       1 <0>        -0.3308
     12 C8         -3.0010   -4.1384   -0.7139 C.2       1 <0>         0.5252
     13 O3         -1.9604   -4.2444   -0.1000 O.2       1 <0>        -0.5064
     14 N2         -3.7938   -5.2144   -0.8872 N.am      1 <0>        -0.7161
     15 C9         -3.3985   -6.5122   -0.3342 C.3       1 <0>         0.1164
     16 H2         -2.3149   -6.6160   -0.3898 H         1 <0>         0.1148
     17 C10        -4.0502   -7.6156   -1.1271 C.2       1 <0>         0.3932
     18 O4         -5.0017   -8.2112   -0.6685 O.2       1 <0>        -0.4213
     19 C11        -3.5319   -7.9703   -2.4580 C.ar      1 <0>        -0.1748
     20 C12        -2.3675   -7.3661   -2.9428 C.ar      1 <0>        -0.0679
     21 C13        -1.8880   -7.7041   -4.1906 C.ar      1 <0>        -0.1319
     22 C14        -2.5558   -8.6386   -4.9628 C.ar      1 <0>        -0.0825
     23 C15        -3.7090   -9.2406   -4.4903 C.ar      1 <0>        -0.1323
     24 C16        -4.1980   -8.9176   -3.2422 C.ar      1 <0>        -0.0586
     25 C17        -3.8451   -6.6014    1.1265 C.3       1 <0>        -0.0678
     26 C18        -5.3449   -6.3134    1.2197 C.3       1 <0>        -0.1507
     27 C19        -3.5615   -8.0065    1.6616 C.3       1 <0>        -0.1535
     28 C20        -3.0757   -5.5738    1.9588 C.3       1 <0>        -0.1335
     29 H3          2.0109   -0.5406   -2.0195 H         1 <0>         0.0527
     30 H4          1.6747   -2.2753   -1.8048 H         1 <0>         0.0539
     31 H5          1.0801   -1.4260   -3.2516 H         1 <0>         0.0514
     32 H6          0.1828   -0.8969   -0.3825 H         1 <0>         0.0613
     33 H7         -0.4118   -0.0475   -1.8293 H         1 <0>         0.0571
     34 H8         -1.2431   -2.1953   -2.7484 H         1 <0>         0.0532
     35 H9         -0.6485   -3.0446   -1.3016 H         1 <0>         0.0807
     36 H10        -2.1602   -1.7575    0.1283 H         1 <0>         0.0742
     37 H11        -2.6857   -0.7738   -1.2590 H         1 <0>         0.0738
     38 H12        -5.4903   -3.1535   -0.8579 H         1 <0>         0.0946
     39 H13        -4.6291   -2.2294    0.3963 H         1 <0>         0.1054
     40 H14        -5.7667   -2.0622   -3.0932 H         1 <0>         0.1522
     41 H15        -5.3994    0.8643   -1.0738 H         1 <0>         0.3985
     42 H16        -4.6260   -5.1296   -1.3782 H         1 <0>         0.4019
     43 H17        -1.8455   -6.6365   -2.3415 H         1 <0>         0.1300
     44 H18        -0.9891   -7.2382   -4.5665 H         1 <0>         0.1301
     45 H19        -2.1752   -8.8992   -5.9393 H         1 <0>         0.1291
     46 H20        -4.2247   -9.9687   -5.0989 H         1 <0>         0.1308
     47 H21        -5.0955   -9.3915   -2.8730 H         1 <0>         0.1343
     48 H22        -5.9002   -7.1198    0.7409 H         1 <0>         0.0784
     49 H23        -5.6369   -6.2433    2.2675 H         1 <0>         0.0547
     50 H24        -5.5659   -5.3717    0.7172 H         1 <0>         0.0482
     51 H25        -2.4858   -8.1822    1.6687 H         1 <0>         0.0536
     52 H26        -3.9508   -8.0944    2.6759 H         1 <0>         0.0620
     53 H27        -4.0458   -8.7437    1.0213 H         1 <0>         0.0690
     54 H28        -3.2778   -4.5728    1.5776 H         1 <0>         0.0573
     55 H29        -3.3939   -5.6374    2.9994 H         1 <0>         0.0511
     56 H30        -2.0073   -5.7790    1.8923 H         1 <0>         0.0605
@<TRIPOS>BOND
     1    1    2 1
     2    1   29 1
     3    1   30 1
     4    1   31 1
     5    2    3 1
     6    2   32 1
     7    2   33 1
     8    3    4 1
     9    3   34 1
    10    3   35 1
    11    4    5 1
    12    4   36 1
    13    4   37 1
    14    5    6 1
    15    5    7 1
    16    5   12 1
    17    7    8 1
    18    7   38 1
    19    7   39 1
    20    8    9 am
    21    8   11 1
    22    9   10 2
    23    9   40 1
    24   11   41 1
    25   12   13 2
    26   12   14 am
    27   14   15 1
    28   14   42 1
    29   15   16 1
    30   15   17 1
    31   15   25 1
    32   17   18 2
    33   17   19 1
    34   19   24 ar
    35   19   20 ar
    36   20   21 ar
    37   20   43 1
    38   21   22 ar
    39   21   44 1
    40   22   23 ar
    41   22   45 1
    42   23   24 ar
    43   23   46 1
    44   24   47 1
    45   25   26 1
    46   25   27 1
    47   25   28 1
    48   26   48 1
    49   26   49 1
    50   26   50 1
    51   27   51 1
    52   27   52 1
    53   27   53 1
    54   28   54 1
    55   28   55 1
    56   28   56 1
@<TRIPOS>MOLECULE
CHEMBL78332
   33    34     0     0     0
SMALL
USER_CHARGES

@<TRIPOS>ATOM
      1 C1         -0.0167    1.3781    0.0096 C.ar      1 <0>        -0.0628
      2 C2          1.1709    2.0855    0.0021 C.ar      1 <0>        -0.1402
      3 C3          2.3773    1.4107   -0.0130 C.ar      1 <0>        -0.0213
      4 C4          2.3960    0.0285   -0.0201 C.ar      1 <0>        -0.6567
      5 C5          1.2084   -0.6789   -0.0117 C.ar      1 <0>        -0.0172
      6 C6          0.0021   -0.0041    0.0020 C.ar      1 <0>        -0.1400
      7 S1          3.9337   -0.8316   -0.0405 S.o2      1 <0>         2.4896
      8 O1          3.6411   -2.0831   -0.6466 O.2       1 <0>        -0.9243
      9 O2          4.8465    0.0719   -0.6485 O.2       1 <0>        -0.8880
     10 C7          4.3589   -1.0679    1.7070 C.3       1 <0>        -0.4705
     11 C8          5.6911   -1.8130    1.8115 C.3       1 <0>        -0.1191
     12 C9          6.7927   -0.9542    1.2458 C.2       1 <0>         0.4933
     13 O3          6.5374    0.1455    0.8027 O.2       1 <0>        -0.4720
     14 N1          8.0616   -1.4083    1.2323 N.am      1 <0>        -0.5935
     15 O4          9.0967   -0.6014    0.7007 O.3       1 <0>        -0.3103
     16 C10         3.2787   -1.8730    2.3824 C.2       1 <0>        -0.0298
     17 C11         2.5278   -1.4662    3.4217 C.2       1 <0>        -0.1643
     18 C12         1.6481   -2.5286    3.7320 C.2       1 <0>        -0.2162
     19 C13         1.9140   -3.5210    2.8639 C.2       1 <0>        -0.0183
     20 O5          2.8986   -3.1162    2.0451 O.3       1 <0>        -0.1608
     21 H1         -0.9591    1.9053    0.0259 H         1 <0>         0.1318
     22 H2          1.1563    3.1654    0.0076 H         1 <0>         0.1346
     23 H3          3.3051    1.9634   -0.0196 H         1 <0>         0.1445
     24 H4          1.2231   -1.7588   -0.0176 H         1 <0>         0.1374
     25 H5         -0.9258   -0.5567    0.0082 H         1 <0>         0.1329
     26 H6          4.4466   -0.0968    2.1942 H         1 <0>         0.1723
     27 H7          5.9031   -2.0333    2.8578 H         1 <0>         0.1313
     28 H8          5.6315   -2.7447    1.2489 H         1 <0>         0.1194
     29 H9          8.2658   -2.2878    1.5867 H         1 <0>         0.4101
     30 H10         9.9718   -1.0115    0.7343 H         1 <0>         0.3897
     31 H11         2.5862   -0.5115    3.9232 H         1 <0>         0.1535
     32 H12         0.9053   -2.5410    4.5160 H         1 <0>         0.1545
     33 H13         1.4172   -4.4794    2.8286 H         1 <0>         0.2103
@<TRIPOS>BOND
     1    1    6 ar
     2    1    2 ar
     3    1   21 1
     4    2    3 ar
     5    2   22 1
     6    3    4 ar
     7    3   23 1
     8    4    5 ar
     9    4    7 1
    10    5    6 ar
    11    5   24 1
    12    6   25 1
    13    7    8 2
    14    7    9 2
    15    7   10 1
    16   10   11 1
    17   10   16 1
    18   10   26 1
    19   11   12 1
    20   11   27 1
    21   11   28 1
    22   12   13 2
    23   12   14 am
    24   14   15 1
    25   14   29 1
    26   15   30 1
    27   16   20 1
    28   16   17 2
    29   17   18 1
    30   17   31 1
    31   18   19 2
    32   18   32 1
    33   19   20 1
    34   19   33 1
@<TRIPOS>MOLECULE
CHEMBL78332__1
   33    34     0     0     0
SMALL
USER_CHARGES

@<TRIPOS>ATOM
      1 C1         -0.0167    1.3781    0.0096 C.ar      1 <0>        -0.0627
      2 C2          1.1709    2.0855    0.0021 C.ar      1 <0>        -0.1398
      3 C3          2.3773    1.4107   -0.0130 C.ar      1 <0>        -0.0170
      4 C4          2.3960    0.0285   -0.0201 C.ar      1 <0>        -0.6565
      5 C5          1.2084   -0.6789   -0.0117 C.ar      1 <0>        -0.0216
      6 C6          0.0021   -0.0041    0.0020 C.ar      1 <0>        -0.1400
      7 S1          3.9337   -0.8316   -0.0405 S.o2      1 <0>         2.4907
      8 O1          3.6411   -2.0831   -0.6466 O.2       1 <0>        -0.8886
      9 O2          4.8465    0.0719   -0.6485 O.2       1 <0>        -0.9249
     10 C7          4.3589   -1.0679    1.7070 C.3       1 <0>        -0.4705
     11 C8          5.7479   -1.7007    1.8129 C.3       1 <0>        -0.1196
     12 C9          5.7155   -3.0857    1.2197 C.2       1 <0>         0.4931
     13 O3          4.6831   -3.5235    0.7577 O.2       1 <0>        -0.4749
     14 N1          6.8338   -3.8377    1.2025 N.am      1 <0>        -0.5927
     15 O4          6.8033   -5.1391    0.6451 O.3       1 <0>        -0.3102
     16 C10         4.3597    0.2658    2.4086 C.2       1 <0>        -0.0293
     17 C11         3.5841    0.6053    3.4539 C.2       1 <0>        -0.1637
     18 C12         3.9113    1.9388    3.7907 C.2       1 <0>        -0.2152
     19 C13         4.8673    2.3345    2.9311 C.2       1 <0>        -0.0189
     20 O5          5.1390    1.3152    2.1000 O.3       1 <0>        -0.1625
     21 H1         -0.9591    1.9053    0.0259 H         1 <0>         0.1317
     22 H2          1.1563    3.1654    0.0076 H         1 <0>         0.1328
     23 H3          3.3051    1.9634   -0.0196 H         1 <0>         0.1375
     24 H4          1.2231   -1.7588   -0.0176 H         1 <0>         0.1439
     25 H5         -0.9258   -0.5567    0.0082 H         1 <0>         0.1345
     26 H6          3.6243   -1.7238    2.1742 H         1 <0>         0.1728
     27 H7          6.4681   -1.0893    1.2692 H         1 <0>         0.1211
     28 H8          6.0407   -1.7612    2.8611 H         1 <0>         0.1315
     29 H9          7.6594   -3.4876    1.5720 H         1 <0>         0.4106
     30 H10         7.6522   -5.6010    0.6781 H         1 <0>         0.3900
     31 H11         2.8515   -0.0206    3.9418 H         1 <0>         0.1535
     32 H12         3.4768    2.5271    4.5854 H         1 <0>         0.1544
     33 H13         5.3392    3.3058    2.9147 H         1 <0>         0.2103
@<TRIPOS>BOND
     1    1    6 ar
     2    1    2 ar
     3    1   21 1
     4    2    3 ar
     5    2   22 1
     6    3    4 ar
     7    3   23 1
     8    4    5 ar
     9    4    7 1
    10    5    6 ar
    11    5   24 1
    12    6   25 1
    13    7    8 2
    14    7    9 2
    15    7   10 1
    16   10   11 1
    17   10   16 1
    18   10   26 1
    19   11   12 1
    20   11   27 1
    21   11   28 1
    22   12   13 2
    23   12   14 am
    24   14   15 1
    25   14   29 1
    26   15   30 1
    27   16   20 1
    28   16   17 2
    29   17   18 1
    30   17   31 1
    31   18   19 2
    32   18   32 1
    33   19   20 1
    34   19   33 1
@<TRIPOS>MOLECULE
CHEMBL77577
   43    44     0     0     0
SMALL
USER_CHARGES

@<TRIPOS>ATOM
      1 C1          0.4486   -1.7645    3.5025 C.3       1 <0>        -0.1531
      2 C2          0.0748   -1.6274    2.0251 C.3       1 <0>        -0.1274
      3 C3         -1.2931   -2.2688    1.7835 C.3       1 <0>        -0.1166
      4 C4         -1.6668   -2.1318    0.3062 C.3       1 <0>        -0.1129
      5 C5         -3.0874   -2.6566    0.0887 C.3       1 <0>        -0.4049
      6 C6         -3.1250   -4.1595    0.3729 C.3       1 <0>        -0.1092
      7 C7         -4.5457   -4.6532    0.2786 C.2       1 <0>         0.5189
      8 O1         -5.4401   -3.8792    0.0105 O.2       1 <0>        -0.5114
      9 N1         -4.8223   -5.9549    0.4922 N.am      1 <0>        -0.5955
     10 O2         -6.1573   -6.4188    0.4035 O.3       1 <0>        -0.3153
     11 S1         -3.5879   -2.3532   -1.6283 S.o       1 <0>         1.3469
     12 O3         -2.6200   -2.9074   -2.5087 O.2       1 <0>        -0.8515
     13 C8         -3.3975   -0.6128   -1.8266 C.ar      1 <0>        -0.4567
     14 C9         -4.4277    0.2397   -1.4334 C.ar      1 <0>        -0.0532
     15 C10        -4.3129    1.5886   -1.5732 C.ar      1 <0>        -0.1186
     16 C11        -3.1392    2.1334   -2.1215 C.ar      1 <0>        -0.0258
     17 C12        -2.9839    3.5211   -2.2810 C.ar      1 <0>        -0.1154
     18 C13        -1.8329    4.0128   -2.8154 C.ar      1 <0>        -0.1032
     19 C14        -0.8026    3.1604   -3.2082 C.ar      1 <0>        -0.1217
     20 C15        -0.9176    1.8115   -3.0688 C.ar      1 <0>        -0.0969
     21 C16        -2.0915    1.2667   -2.5209 C.ar      1 <0>        -0.0708
     22 C17        -2.2445   -0.1207   -2.3562 C.ar      1 <0>        -0.0237
     23 H1          1.4231   -1.3076    3.6746 H         1 <0>         0.0539
     24 H2         -0.3010   -1.2633    4.1149 H         1 <0>         0.0542
     25 H3          0.4899   -2.8202    3.7704 H         1 <0>         0.0535
     26 H4          0.0336   -0.5717    1.7572 H         1 <0>         0.0605
     27 H5          0.8244   -2.1287    1.4127 H         1 <0>         0.0605
     28 H6         -1.2518   -3.3245    2.0514 H         1 <0>         0.0635
     29 H7         -2.0426   -1.7676    2.3959 H         1 <0>         0.0660
     30 H8         -1.6186   -1.0825    0.0150 H         1 <0>         0.0712
     31 H9         -0.9692   -2.7095   -0.3001 H         1 <0>         0.0700
     32 H10        -3.7720   -2.1421    0.7631 H         1 <0>         0.1343
     33 H11        -2.5091   -4.6830   -0.3583 H         1 <0>         0.1041
     34 H12        -2.7401   -4.3495    1.3748 H         1 <0>         0.1132
     35 H13        -4.1070   -6.5739    0.7066 H         1 <0>         0.4098
     36 H14        -6.2566   -7.3657    0.5725 H         1 <0>         0.3897
     37 H15        -5.3307   -0.1764   -1.0118 H         1 <0>         0.1381
     38 H16        -5.1198    2.2369   -1.2648 H         1 <0>         0.1333
     39 H17        -3.7740    4.1937   -1.9813 H         1 <0>         0.1305
     40 H18        -1.7163    5.0796   -2.9372 H         1 <0>         0.1259
     41 H19         0.1004    3.5765   -3.6299 H         1 <0>         0.1255
     42 H20        -0.1112    1.1631   -3.3780 H         1 <0>         0.1277
     43 H21        -1.4528   -0.7930   -2.6521 H         1 <0>         0.1327
@<TRIPOS>BOND
     1    1    2 1
     2    1   23 1
     3    1   24 1
     4    1   25 1
     5    2    3 1
     6    2   26 1
     7    2   27 1
     8    3    4 1
     9    3   28 1
    10    3   29 1
    11    4    5 1
    12    4   30 1
    13    4   31 1
    14    5    6 1
    15    5   11 1
    16    5   32 1
    17    6    7 1
    18    6   33 1
    19    6   34 1
    20    7    8 2
    21    7    9 am
    22    9   10 1
    23    9   35 1
    24   10   36 1
    25   11   12 2
    26   11   13 1
    27   13   22 ar
    28   13   14 ar
    29   14   15 ar
    30   14   37 1
    31   15   16 ar
    32   15   38 1
    33   16   21 ar
    34   16   17 ar
    35   17   18 ar
    36   17   39 1
    37   18   19 ar
    38   18   40 1
    39   19   20 ar
    40   19   41 1
    41   20   21 ar
    42   20   42 1
    43   21   22 ar
    44   22   43 1
@<TRIPOS>MOLECULE
CHEMBL77577__1
   43    44     0     0     0
SMALL
USER_CHARGES

@<TRIPOS>ATOM
      1 C1          0.3507   -1.6547    3.5645 C.3       1 <0>        -0.1549
      2 C2         -0.0090   -1.5155    2.0839 C.3       1 <0>        -0.1256
      3 C3         -1.3448   -2.2117    1.8159 C.3       1 <0>        -0.1196
      4 C4         -1.7044   -2.0725    0.3353 C.3       1 <0>        -0.0954
      5 C5         -3.0982   -2.6550    0.0921 C.3       1 <0>        -0.4126
      6 C6         -3.0750   -4.1614    0.3590 C.3       1 <0>        -0.1023
      7 C7         -4.4718   -4.7143    0.2392 C.2       1 <0>         0.4897
      8 O1         -5.3949   -3.9762   -0.0328 O.2       1 <0>        -0.4728
      9 N1         -4.6952   -6.0290    0.4344 N.am      1 <0>        -0.6008
     10 O2         -6.0076   -6.5485    0.3219 O.3       1 <0>        -0.3177
     11 S1         -3.5879   -2.3532   -1.6283 S.o       1 <0>         1.3192
     12 O3         -4.9864   -2.5640   -1.7666 O.2       1 <0>        -0.8010
     13 C8         -3.3975   -0.6128   -1.8266 C.ar      1 <0>        -0.4531
     14 C9         -4.4277    0.2397   -1.4334 C.ar      1 <0>        -0.0639
     15 C10        -4.3129    1.5886   -1.5732 C.ar      1 <0>        -0.1180
     16 C11        -3.1392    2.1334   -2.1215 C.ar      1 <0>        -0.0257
     17 C12        -2.9839    3.5211   -2.2810 C.ar      1 <0>        -0.1155
     18 C13        -1.8329    4.0128   -2.8154 C.ar      1 <0>        -0.1039
     19 C14        -0.8026    3.1604   -3.2082 C.ar      1 <0>        -0.1221
     20 C15        -0.9176    1.8115   -3.0688 C.ar      1 <0>        -0.0959
     21 C16        -2.0915    1.2667   -2.5209 C.ar      1 <0>        -0.0716
     22 C17        -2.2445   -0.1207   -2.3562 C.ar      1 <0>        -0.0166
     23 H1          1.3023   -1.1586    3.7554 H         1 <0>         0.0538
     24 H2         -0.4277   -1.1936    4.1724 H         1 <0>         0.0522
     25 H3          0.4337   -2.7109    3.8205 H         1 <0>         0.0535
     26 H4         -0.0920   -0.4592    1.8279 H         1 <0>         0.0609
     27 H5          0.7695   -1.9765    1.4760 H         1 <0>         0.0639
     28 H6         -1.2617   -3.2680    2.0719 H         1 <0>         0.0644
     29 H7         -2.1232   -1.7506    2.4238 H         1 <0>         0.0604
     30 H8         -1.6976   -1.0186    0.0573 H         1 <0>         0.0747
     31 H9         -0.9747   -2.6123   -0.2682 H         1 <0>         0.0793
     32 H10        -3.8133   -2.1782    0.7624 H         1 <0>         0.1031
     33 H11        -2.4273   -4.6495   -0.3693 H         1 <0>         0.1082
     34 H12        -2.6959   -4.3465    1.3640 H         1 <0>         0.1101
     35 H13        -3.9569   -6.6193    0.6520 H         1 <0>         0.4061
     36 H14        -6.0685   -7.5007    0.4789 H         1 <0>         0.3860
     37 H15        -5.3307   -0.1764   -1.0118 H         1 <0>         0.1250
     38 H16        -5.1198    2.2369   -1.2648 H         1 <0>         0.1271
     39 H17        -3.7740    4.1937   -1.9813 H         1 <0>         0.1278
     40 H18        -1.7163    5.0796   -2.9372 H         1 <0>         0.1249
     41 H19         0.1004    3.5765   -3.6299 H         1 <0>         0.1257
     42 H20        -0.1112    1.1631   -3.3780 H         1 <0>         0.1319
     43 H21        -1.4528   -0.7930   -2.6521 H         1 <0>         0.1408
@<TRIPOS>BOND
     1    1    2 1
     2    1   23 1
     3    1   24 1
     4    1   25 1
     5    2    3 1
     6    2   26 1
     7    2   27 1
     8    3    4 1
     9    3   28 1
    10    3   29 1
    11    4    5 1
    12    4   30 1
    13    4   31 1
    14    5    6 1
    15    5   11 1
    16    5   32 1
    17    6    7 1
    18    6   33 1
    19    6   34 1
    20    7    8 2
    21    7    9 am
    22    9   10 1
    23    9   35 1
    24   10   36 1
    25   11   12 2
    26   11   13 1
    27   13   22 ar
    28   13   14 ar
    29   14   15 ar
    30   14   37 1
    31   15   16 ar
    32   15   38 1
    33   16   21 ar
    34   16   17 ar
    35   17   18 ar
    36   17   39 1
    37   18   19 ar
    38   18   40 1
    39   19   20 ar
    40   19   41 1
    41   20   21 ar
    42   20   42 1
    43   21   22 ar
    44   22   43 1
@<TRIPOS>MOLECULE
CHEMBL77577__2
   43    44     0     0     0
SMALL
USER_CHARGES

@<TRIPOS>ATOM
      1 C1          1.2224   -2.1961   -2.8345 C.3       1 <0>        -0.1549
      2 C2          0.5636   -1.7441   -1.5297 C.3       1 <0>        -0.1256
      3 C3         -0.8181   -2.3894   -1.4058 C.3       1 <0>        -0.1202
      4 C4         -1.4770   -1.9374   -0.1010 C.3       1 <0>        -0.0942
      5 C5         -2.9070   -2.4776   -0.0379 C.3       1 <0>        -0.4126
      6 C6         -2.8745   -4.0073   -0.0317 C.3       1 <0>        -0.1028
      7 C7         -4.2829   -4.5399   -0.0935 C.2       1 <0>         0.4900
      8 O1         -5.2203   -3.7717   -0.1382 O.2       1 <0>        -0.4734
      9 N1         -4.5007   -5.8699   -0.0992 N.am      1 <0>        -0.6008
     10 O2         -5.8241   -6.3704   -0.1573 O.3       1 <0>        -0.3178
     11 S1         -3.7116   -1.8838    1.4756 S.o       1 <0>         1.3206
     12 O3         -5.1157   -2.0762    1.3724 O.2       1 <0>        -0.8037
     13 C8         -3.5147   -0.1342    1.4046 C.ar      1 <0>        -0.4582
     14 C9         -2.4480    0.4642    2.0729 C.ar      1 <0>        -0.0547
     15 C10        -2.2675    1.8127    2.0387 C.ar      1 <0>        -0.1197
     16 C11        -3.1681    2.6167    1.3192 C.ar      1 <0>        -0.0267
     17 C12        -3.0141    4.0124    1.2604 C.ar      1 <0>        -0.1163
     18 C13        -3.9057    4.7591    0.5535 C.ar      1 <0>        -0.1031
     19 C14        -4.9721    4.1606   -0.1150 C.ar      1 <0>        -0.1220
     20 C15        -5.1529    2.8121   -0.0804 C.ar      1 <0>        -0.0966
     21 C16        -4.2525    2.0082    0.6394 C.ar      1 <0>        -0.0702
     22 C17        -4.4034    0.6119    0.6935 C.ar      1 <0>        -0.0209
     23 H1          2.2068   -1.7364   -2.9228 H         1 <0>         0.0538
     24 H2          1.3271   -3.2811   -2.8318 H         1 <0>         0.0535
     25 H3          0.6028   -1.8930   -3.6785 H         1 <0>         0.0521
     26 H4          1.1832   -2.0472   -0.6858 H         1 <0>         0.0642
     27 H5          0.4589   -0.6591   -1.5324 H         1 <0>         0.0609
     28 H6         -1.4377   -2.0863   -2.2498 H         1 <0>         0.0602
     29 H7         -0.7134   -3.4744   -1.4031 H         1 <0>         0.0647
     30 H8         -0.9065   -2.3196    0.7455 H         1 <0>         0.0795
     31 H9         -1.4980   -0.8482   -0.0629 H         1 <0>         0.0751
     32 H10        -3.4656   -2.1296   -0.9069 H         1 <0>         0.1018
     33 H11        -2.3135   -4.3623   -0.8962 H         1 <0>         0.1104
     34 H12        -2.3937   -4.3568    0.8819 H         1 <0>         0.1084
     35 H13        -3.7510   -6.4843   -0.0635 H         1 <0>         0.4061
     36 H14        -5.8798   -7.3358   -0.1568 H         1 <0>         0.3860
     37 H15        -1.7545   -0.1514    2.6265 H         1 <0>         0.1355
     38 H16        -1.4368    2.2626    2.5620 H         1 <0>         0.1324
     39 H17        -2.1926    4.4900    1.7738 H         1 <0>         0.1302
     40 H18        -3.7852    5.8314    0.5102 H         1 <0>         0.1258
     41 H19        -5.6657    4.7761   -0.6686 H         1 <0>         0.1254
     42 H20        -5.9841    2.3623   -0.6030 H         1 <0>         0.1277
     43 H21        -5.2225    0.1340    0.1767 H         1 <0>         0.1301
@<TRIPOS>BOND
     1    1    2 1
     2    1   23 1
     3    1   24 1
     4    1   25 1
     5    2    3 1
     6    2   26 1
     7    2   27 1
     8    3    4 1
     9    3   28 1
    10    3   29 1
    11    4    5 1
    12    4   30 1
    13    4   31 1
    14    5    6 1
    15    5   11 1
    16    5   32 1
    17    6    7 1
    18    6   33 1
    19    6   34 1
    20    7    8 2
    21    7    9 am
    22    9   10 1
    23    9   35 1
    24   10   36 1
    25   11   12 2
    26   11   13 1
    27   13   22 ar
    28   13   14 ar
    29   14   15 ar
    30   14   37 1
    31   15   16 ar
    32   15   38 1
    33   16   21 ar
    34   16   17 ar
    35   17   18 ar
    36   17   39 1
    37   18   19 ar
    38   18   40 1
    39   19   20 ar
    40   19   41 1
    41   20   21 ar
    42   20   42 1
    43   21   22 ar
    44   22   43 1
@<TRIPOS>MOLECULE
CHEMBL77577__3
   43    44     0     0     0
SMALL
USER_CHARGES

@<TRIPOS>ATOM
      1 C1          1.2701   -2.1514   -2.7755 C.3       1 <0>        -0.1532
      2 C2          0.6159   -1.7640   -1.4478 C.3       1 <0>        -0.1273
      3 C3         -0.7869   -2.3704   -1.3743 C.3       1 <0>        -0.1169
      4 C4         -1.4411   -1.9830   -0.0466 C.3       1 <0>        -0.1122
      5 C5         -2.8882   -2.4793   -0.0271 C.3       1 <0>        -0.4055
      6 C6         -2.9030   -4.0091   -0.0446 C.3       1 <0>        -0.1096
      7 C7         -4.3251   -4.4966   -0.1493 C.2       1 <0>         0.5191
      8 O1         -5.2371   -3.6990   -0.2045 O.2       1 <0>        -0.5122
      9 N1         -4.5836   -5.8190   -0.1816 N.am      1 <0>        -0.5953
     10 O2         -5.9198   -6.2770   -0.2800 O.3       1 <0>        -0.3154
     11 S1         -3.7116   -1.8838    1.4756 S.o       1 <0>         1.3461
     12 O3         -2.9545   -2.2690    2.6148 O.2       1 <0>        -0.8487
     13 C8         -3.5147   -0.1342    1.4046 C.ar      1 <0>        -0.4565
     14 C9         -2.4480    0.4642    2.0729 C.ar      1 <0>        -0.0655
     15 C10        -2.2675    1.8127    2.0387 C.ar      1 <0>        -0.1187
     16 C11        -3.1681    2.6167    1.3192 C.ar      1 <0>        -0.0249
     17 C12        -3.0141    4.0124    1.2604 C.ar      1 <0>        -0.1168
     18 C13        -3.9057    4.7591    0.5535 C.ar      1 <0>        -0.1024
     19 C14        -4.9721    4.1606   -0.1150 C.ar      1 <0>        -0.1226
     20 C15        -5.1529    2.8121   -0.0804 C.ar      1 <0>        -0.0942
     21 C16        -4.2525    2.0082    0.6394 C.ar      1 <0>        -0.0720
     22 C17        -4.4034    0.6119    0.6935 C.ar      1 <0>        -0.0106
     23 H1          2.2695   -1.7194   -2.8278 H         1 <0>         0.0539
     24 H2          1.3396   -3.2371   -2.8431 H         1 <0>         0.0534
     25 H3          0.6673   -1.7738   -3.6014 H         1 <0>         0.0540
     26 H4          1.2187   -2.1416   -0.6218 H         1 <0>         0.0606
     27 H5          0.5464   -0.6783   -1.3801 H         1 <0>         0.0607
     28 H6         -1.3897   -1.9928   -2.2002 H         1 <0>         0.0656
     29 H7         -0.7174   -3.4561   -1.4419 H         1 <0>         0.0632
     30 H8         -0.8899   -2.4379    0.7764 H         1 <0>         0.0702
     31 H9         -1.4274   -0.8985    0.0624 H         1 <0>         0.0724
     32 H10        -3.4139   -2.1009   -0.9038 H         1 <0>         0.1335
     33 H11        -2.3318   -4.3683   -0.9007 H         1 <0>         0.1132
     34 H12        -2.4561   -4.3873    0.8748 H         1 <0>         0.1043
     35 H13        -3.8542   -6.4569   -0.1374 H         1 <0>         0.4099
     36 H14        -6.0053   -7.2401   -0.2963 H         1 <0>         0.3897
     37 H15        -1.7545   -0.1514    2.6265 H         1 <0>         0.1272
     38 H16        -1.4368    2.2626    2.5620 H         1 <0>         0.1279
     39 H17        -2.1926    4.4900    1.7738 H         1 <0>         0.1281
     40 H18        -3.7852    5.8314    0.5102 H         1 <0>         0.1252
     41 H19        -5.6657    4.7761   -0.6686 H         1 <0>         0.1262
     42 H20        -5.9841    2.3623   -0.6030 H         1 <0>         0.1328
     43 H21        -5.2225    0.1340    0.1767 H         1 <0>         0.1432
@<TRIPOS>BOND
     1    1    2 1
     2    1   23 1
     3    1   24 1
     4    1   25 1
     5    2    3 1
     6    2   26 1
     7    2   27 1
     8    3    4 1
     9    3   28 1
    10    3   29 1
    11    4    5 1
    12    4   30 1
    13    4   31 1
    14    5    6 1
    15    5   11 1
    16    5   32 1
    17    6    7 1
    18    6   33 1
    19    6   34 1
    20    7    8 2
    21    7    9 am
    22    9   10 1
    23    9   35 1
    24   10   36 1
    25   11   12 2
    26   11   13 1
    27   13   22 ar
    28   13   14 ar
    29   14   15 ar
    30   14   37 1
    31   15   16 ar
    32   15   38 1
    33   16   21 ar
    34   16   17 ar
    35   17   18 ar
    36   17   39 1
    37   18   19 ar
    38   18   40 1
    39   19   20 ar
    40   19   41 1
    41   20   21 ar
    42   20   42 1
    43   21   22 ar
    44   22   43 1
@<TRIPOS>MOLECULE
CHEMBL285024
   43    45     0     0     0
SMALL
USER_CHARGES

@<TRIPOS>ATOM
      1 C1         -0.0166    1.3765    0.0096 C.ar      1 <0>        -0.0811
      2 C2          1.1657    2.0938    0.0022 C.ar      1 <0>        -0.1250
      3 C3          2.3766    1.4260   -0.0083 C.ar      1 <0>        -0.0554
      4 C4          2.4008    0.0412   -0.0145 C.ar      1 <0>        -0.1419
      5 C5          1.2131   -0.6895   -0.0146 C.ar      1 <0>         0.1653
      6 C6          0.0021   -0.0041    0.0020 C.ar      1 <0>        -0.1370
      7 N1          1.2051   -2.0808   -0.0439 N.am      1 <0>        -0.5228
      8 C7          2.2206   -2.8734   -0.3704 C.2       1 <0>         0.5353
      9 O1          2.0829   -4.0713   -0.2383 O.2       1 <0>        -0.5029
     10 C8          3.5343   -2.3571   -0.8971 C.3       1 <0>        -0.0790
     11 S1          3.9432   -0.8187   -0.0170 S.3       1 <0>        -0.0413
     12 C9          3.4123   -2.0752   -2.3959 C.3       1 <0>        -0.1175
     13 C10         4.7586   -1.6767   -2.9433 C.2       1 <0>         0.5327
     14 O2          5.7210   -1.6233   -2.2071 O.2       1 <0>        -0.5002
     15 N2          4.8933   -1.3795   -4.2510 N.am      1 <0>        -0.5957
     16 O3          6.1583   -1.0051   -4.7653 O.3       1 <0>        -0.3137
     17 C11        -0.0512   -2.7391    0.3232 C.3       1 <0>         0.0765
     18 C12        -0.8953   -2.9338   -0.9099 C.2       1 <0>         0.5169
     19 O4         -0.4877   -2.5596   -1.9892 O.2       1 <0>        -0.5258
     20 N3         -2.1032   -3.5238   -0.8135 N.am      1 <0>        -0.6174
     21 C13        -2.7194   -4.0169    0.4270 C.3       1 <0>         0.0922
     22 C14        -4.0824   -4.6334    0.0480 C.3       1 <0>        -0.1318
     23 C15        -3.9084   -4.9617   -1.4585 C.3       1 <0>        -0.1349
     24 C16        -3.0282   -3.7759   -1.9334 C.3       1 <0>         0.1053
     25 H1         -0.9612    1.8998    0.0260 H         1 <0>         0.1327
     26 H2          1.1434    3.1736    0.0042 H         1 <0>         0.1349
     27 H3          3.3017    1.9833   -0.0113 H         1 <0>         0.1386
     28 H4         -0.9272   -0.5544    0.0094 H         1 <0>         0.1248
     29 H5          4.3152   -3.0973   -0.7228 H         1 <0>         0.1624
     30 H6          3.0634   -2.9724   -2.9071 H         1 <0>         0.1174
     31 H7          2.7006   -1.2654   -2.5566 H         1 <0>         0.1091
     32 H8          4.1237   -1.4222   -4.8398 H         1 <0>         0.4090
     33 H9          6.1560   -0.8110   -5.7127 H         1 <0>         0.3889
     34 H10         0.1644   -3.7084    0.7727 H         1 <0>         0.1311
     35 H11        -0.5909   -2.1187    1.0387 H         1 <0>         0.1201
     36 H12        -2.0825   -4.7761    0.8809 H         1 <0>         0.0741
     37 H13        -2.8669   -3.1900    1.1217 H         1 <0>         0.0729
     38 H14        -4.2678   -5.5415    0.6216 H         1 <0>         0.0865
     39 H15        -4.8862   -3.9121    0.1951 H         1 <0>         0.0799
     40 H16        -3.3942   -5.9132   -1.5941 H         1 <0>         0.0784
     41 H17        -4.8700   -4.9624   -1.9718 H         1 <0>         0.0878
     42 H18        -3.6431   -2.8961   -2.1230 H         1 <0>         0.0712
     43 H19        -2.4725   -4.0516   -2.8297 H         1 <0>         0.0794
@<TRIPOS>BOND
     1    1    6 ar
     2    1    2 ar
     3    1   25 1
     4    2    3 ar
     5    2   26 1
     6    3    4 ar
     7    3   27 1
     8    4   11 1
     9    4    5 ar
    10    5    6 ar
    11    5    7 1
    12    6   28 1
    13    7    8 am
    14    7   17 1
    15    8    9 2
    16    8   10 1
    17   10   11 1
    18   10   12 1
    19   10   29 1
    20   12   13 1
    21   12   30 1
    22   12   31 1
    23   13   14 2
    24   13   15 am
    25   15   16 1
    26   15   32 1
    27   16   33 1
    28   17   18 1
    29   17   34 1
    30   17   35 1
    31   18   19 2
    32   18   20 am
    33   20   24 1
    34   20   21 1
    35   21   22 1
    36   21   36 1
    37   21   37 1
    38   22   23 1
    39   22   38 1
    40   22   39 1
    41   23   24 1
    42   23   40 1
    43   23   41 1
    44   24   42 1
    45   24   43 1
@<TRIPOS>MOLECULE
CHEMBL285024__1
   43    45     0     0     0
SMALL
USER_CHARGES

@<TRIPOS>ATOM
      1 C1         -0.0539    1.3587    0.1772 C.ar      1 <0>        -0.0809
      2 C2          1.1202    2.0896    0.1744 C.ar      1 <0>        -0.1252
      3 C3          2.3374    1.4375    0.1018 C.ar      1 <0>        -0.0552
      4 C4          2.3766    0.0546    0.0354 C.ar      1 <0>        -0.1419
      5 C5          1.1976   -0.6901    0.0452 C.ar      1 <0>         0.1651
      6 C6         -0.0203   -0.0201    0.1125 C.ar      1 <0>        -0.1384
      7 N1          1.2055   -2.0811    0.0027 N.am      1 <0>        -0.5230
      8 C7          2.2418   -2.8764    0.2469 C.2       1 <0>         0.5356
      9 O1          2.1118   -4.0675    0.0578 O.2       1 <0>        -0.5024
     10 C8          3.5703   -2.3712    0.7465 C.3       1 <0>        -0.0790
     11 S1          3.9268   -0.7847   -0.0684 S.3       1 <0>        -0.0413
     12 C9          3.5064   -2.1681    2.2616 C.3       1 <0>        -0.1173
     13 C10         4.8695   -1.7812    2.7746 C.2       1 <0>         0.5327
     14 O2          5.8005   -1.6780    2.0042 O.2       1 <0>        -0.5003
     15 N2          5.0541   -1.5498    4.0894 N.am      1 <0>        -0.5957
     16 O3          6.3349   -1.1862    4.5714 O.3       1 <0>        -0.3137
     17 C11        -0.0576   -2.7355   -0.3473 C.3       1 <0>         0.0770
     18 C12        -0.8237   -3.0543    0.9107 C.2       1 <0>         0.5175
     19 O4         -0.3602   -2.7635    1.9931 O.2       1 <0>        -0.5261
     20 N3         -2.0238   -3.6626    0.8329 N.am      1 <0>        -0.6173
     21 C13        -2.6969   -4.0745   -0.4076 C.3       1 <0>         0.0924
     22 C14        -4.0493   -4.7017   -0.0085 C.3       1 <0>        -0.1322
     23 C15        -4.3125   -4.0960    1.3955 C.3       1 <0>        -0.1341
     24 C16        -2.8762   -4.0309    1.9780 C.3       1 <0>         0.1049
     25 H1         -1.0035    1.8697    0.2349 H         1 <0>         0.1328
     26 H2          1.0864    3.1677    0.2285 H         1 <0>         0.1349
     27 H3          3.2560    2.0056    0.0966 H         1 <0>         0.1386
     28 H4         -0.9431   -0.5811    0.1146 H         1 <0>         0.1255
     29 H5          4.3512   -3.0916    0.5031 H         1 <0>         0.1623
     30 H6          2.7932   -1.3767    2.4924 H         1 <0>         0.1089
     31 H7          3.1880   -3.0947    2.7393 H         1 <0>         0.1176
     32 H8          4.3095   -1.6323    4.7056 H         1 <0>         0.4090
     33 H9          6.3690   -1.0410    5.5268 H         1 <0>         0.3889
     34 H10        -0.6502   -2.0696   -0.9746 H         1 <0>         0.1208
     35 H11         0.1493   -3.6577   -0.8903 H         1 <0>         0.1297
     36 H12        -2.8646   -3.2059   -1.0443 H         1 <0>         0.0727
     37 H13        -2.0879   -4.8100   -0.9332 H         1 <0>         0.0741
     38 H14        -4.8320   -4.4081   -0.7081 H         1 <0>         0.0865
     39 H15        -3.9691   -5.7872    0.0486 H         1 <0>         0.0800
     40 H16        -4.7509   -3.1012    1.3159 H         1 <0>         0.0782
     41 H17        -4.9449   -4.7533    1.9922 H         1 <0>         0.0876
     42 H18        -2.5806   -5.0024    2.3740 H         1 <0>         0.0707
     43 H19        -2.8168   -3.2693    2.7556 H         1 <0>         0.0800
@<TRIPOS>BOND
     1    1    6 ar
     2    1    2 ar
     3    1   25 1
     4    2    3 ar
     5    2   26 1
     6    3    4 ar
     7    3   27 1
     8    4   11 1
     9    4    5 ar
    10    5    6 ar
    11    5    7 1
    12    6   28 1
    13    7    8 am
    14    7   17 1
    15    8    9 2
    16    8   10 1
    17   10   11 1
    18   10   12 1
    19   10   29 1
    20   12   13 1
    21   12   30 1
    22   12   31 1
    23   13   14 2
    24   13   15 am
    25   15   16 1
    26   15   32 1
    27   16   33 1
    28   17   18 1
    29   17   34 1
    30   17   35 1
    31   18   19 2
    32   18   20 am
    33   20   24 1
    34   20   21 1
    35   21   22 1
    36   21   36 1
    37   21   37 1
    38   22   23 1
    39   22   38 1
    40   22   39 1
    41   23   24 1
    42   23   40 1
    43   23   41 1
    44   24   42 1
    45   24   43 1
@<TRIPOS>MOLECULE
CHEMBL93973
   67    67     0     0     0
SMALL
USER_CHARGES

@<TRIPOS>ATOM
      1 C1         -1.4157   -0.9870   -0.1135 C.3       1 <0>        -0.1524
      2 C2         -1.8227   -1.3573   -1.5411 C.3       1 <0>        -0.1218
      3 C3         -0.6817   -2.1228   -2.2144 C.3       1 <0>        -0.1246
      4 C4         -1.0887   -2.4930   -3.6420 C.3       1 <0>        -0.0957
      5 C5          0.0957   -3.1469   -4.3566 C.3       1 <0>        -0.1312
      6 H1          0.9641   -2.4911   -4.2953 H         1 <0>         0.1034
      7 C6         -0.2621   -3.3835   -5.8252 C.3       1 <0>         0.1430
      8 N1         -0.5468   -2.0998   -6.4713 N.am      1 <0>        -0.4745
      9 C7          0.4661   -1.2845   -6.8258 C.2       1 <0>         0.4790
     10 O1          0.2304   -0.2218   -7.3607 O.2       1 <0>        -0.5468
     11 O2         -1.8862   -1.7157   -6.7234 O.3       1 <0>        -0.3312
     12 C8          0.4140   -4.4648   -3.6986 C.2       1 <0>         0.5255
     13 O3         -0.2418   -4.8437   -2.7514 O.2       1 <0>        -0.5135
     14 N2          1.4275   -5.2223   -4.1627 N.am      1 <0>        -0.7148
     15 C9          1.7370   -6.5034   -3.5230 C.3       1 <0>         0.1355
     16 H2          1.5575   -6.4269   -2.4506 H         1 <0>         0.1116
     17 C10         3.1832   -6.8502   -3.7667 C.2       1 <0>         0.5183
     18 O4          3.7110   -6.5472   -4.8158 O.2       1 <0>        -0.5323
     19 N3          3.8900   -7.4971   -2.8189 N.am      1 <0>        -0.6040
     20 C11         3.2265   -7.9571   -1.5964 C.3       1 <0>         0.0592
     21 C12         5.3219   -7.7402   -3.0110 C.3       1 <0>         0.1395
     22 C13         5.5910   -9.2462   -2.9887 C.3       1 <0>        -0.1260
     23 C14         7.0863   -9.5001   -3.1893 C.3       1 <0>        -0.1176
     24 C15         7.8737   -8.8246   -2.0648 C.3       1 <0>        -0.1223
     25 C16         7.6046   -7.3186   -2.0871 C.3       1 <0>        -0.1172
     26 C17         6.1093   -7.0647   -1.8864 C.3       1 <0>        -0.1275
     27 C18         0.8440   -7.5968   -4.1128 C.3       1 <0>        -0.0691
     28 C19         1.0774   -7.6869   -5.6223 C.3       1 <0>        -0.1440
     29 C20         1.1849   -8.9394   -3.4631 C.3       1 <0>        -0.1531
     30 C21        -0.6233   -7.2576   -3.8430 C.3       1 <0>        -0.1313
     31 H3         -1.2045   -1.8951    0.4512 H         1 <0>         0.0536
     32 H4         -0.5242   -0.3605   -0.1407 H         1 <0>         0.0514
     33 H5         -2.2286   -0.4417    0.3662 H         1 <0>         0.0527
     34 H6         -2.7142   -1.9839   -1.5139 H         1 <0>         0.0612
     35 H7         -2.0339   -0.4492   -2.1058 H         1 <0>         0.0571
     36 H8          0.2098   -1.4962   -2.2416 H         1 <0>         0.0526
     37 H9         -0.4705   -3.0308   -1.6497 H         1 <0>         0.0808
     38 H10        -1.9253   -3.1911   -3.6119 H         1 <0>         0.0737
     39 H11        -1.3858   -1.5929   -4.1802 H         1 <0>         0.0736
     40 H12         0.5746   -3.8665   -6.3298 H         1 <0>         0.0971
     41 H13        -1.1420   -4.0240   -5.8862 H         1 <0>         0.1040
     42 H14         1.4877   -1.5774   -6.6335 H         1 <0>         0.1531
     43 H15        -1.9741   -0.8536   -7.1525 H         1 <0>         0.3981
     44 H16         1.9521   -4.9192   -4.9203 H         1 <0>         0.4076
     45 H17         2.7992   -8.9456   -1.7649 H         1 <0>         0.0700
     46 H18         3.9534   -8.0088   -0.7859 H         1 <0>         0.0775
     47 H19         2.4331   -7.2591   -1.3290 H         1 <0>         0.0754
     48 H20         5.6345   -7.3294   -3.9710 H         1 <0>         0.1026
     49 H21         5.2783   -9.6570   -2.0287 H         1 <0>         0.0661
     50 H22         5.0300   -9.7274   -3.7898 H         1 <0>         0.0655
     51 H23         7.2781  -10.5730   -3.1734 H         1 <0>         0.0668
     52 H24         7.3990   -9.0893   -4.1493 H         1 <0>         0.0649
     53 H25         7.5611   -9.2354   -1.1048 H         1 <0>         0.0628
     54 H26         8.9391   -9.0055   -2.2077 H         1 <0>         0.0649
     55 H27         8.1656   -6.8374   -1.2859 H         1 <0>         0.0669
     56 H28         7.9173   -6.9078   -3.0471 H         1 <0>         0.0649
     57 H29         5.9176   -5.9918   -1.9023 H         1 <0>         0.0650
     58 H30         5.7966   -7.4755   -0.9264 H         1 <0>         0.0669
     59 H31         2.1227   -7.9285   -5.8145 H         1 <0>         0.0626
     60 H32         0.4412   -8.4658   -6.0425 H         1 <0>         0.0579
     61 H33         0.8345   -6.7304   -6.0851 H         1 <0>         0.0561
     62 H34         0.9483   -8.8990   -2.3999 H         1 <0>         0.0633
     63 H35         0.6018   -9.7301   -3.9353 H         1 <0>         0.0649
     64 H36         2.2475   -9.1457   -3.5912 H         1 <0>         0.0599
     65 H37        -0.8662   -6.3012   -4.3059 H         1 <0>         0.0557
     66 H38        -1.2595   -8.0366   -4.2632 H         1 <0>         0.0532
     67 H39        -0.7896   -7.1935   -2.7677 H         1 <0>         0.0652
@<TRIPOS>BOND
     1    1    2 1
     2    1   31 1
     3    1   32 1
     4    1   33 1
     5    2    3 1
     6    2   34 1
     7    2   35 1
     8    3    4 1
     9    3   36 1
    10    3   37 1
    11    4    5 1
    12    4   38 1
    13    4   39 1
    14    5    6 1
    15    5    7 1
    16    5   12 1
    17    7    8 1
    18    7   40 1
    19    7   41 1
    20    8    9 am
    21    8   11 1
    22    9   10 2
    23    9   42 1
    24   11   43 1
    25   12   13 2
    26   12   14 am
    27   14   15 1
    28   14   44 1
    29   15   16 1
    30   15   17 1
    31   15   27 1
    32   17   18 2
    33   17   19 am
    34   19   20 1
    35   19   21 1
    36   20   45 1
    37   20   46 1
    38   20   47 1
    39   21   26 1
    40   21   22 1
    41   21   48 1
    42   22   23 1
    43   22   49 1
    44   22   50 1
    45   23   24 1
    46   23   51 1
    47   23   52 1
    48   24   25 1
    49   24   53 1
    50   24   54 1
    51   25   26 1
    52   25   55 1
    53   25   56 1
    54   26   57 1
    55   26   58 1
    56   27   28 1
    57   27   29 1
    58   27   30 1
    59   28   59 1
    60   28   60 1
    61   28   61 1
    62   29   62 1
    63   29   63 1
    64   29   64 1
    65   30   65 1
    66   30   66 1
    67   30   67 1
@<TRIPOS>MOLECULE
CHEMBL519613
   50    53     0     0     0
SMALL
USER_CHARGES

@<TRIPOS>ATOM
      1 C1          0.2036    1.8769    0.0361 C.ar      1 <0>        -0.1007
      2 C2          1.4488    2.4893    0.0520 C.ar      1 <0>        -0.1276
      3 C3          2.5927    1.7431    0.0276 C.ar      1 <0>        -0.0641
      4 C4          2.5136    0.3485   -0.0133 C.ar      1 <0>         0.0510
      5 C5          1.2531   -0.2721   -0.0289 C.ar      1 <0>         0.0495
      6 C6          0.1013    0.5027   -0.0041 C.ar      1 <0>        -0.1123
      7 N1          1.4976   -1.6302   -0.0694 N.pl3     1 <0>        -0.5952
      8 H1          0.8304   -2.3341   -0.0890 H         1 <0>         0.4211
      9 C7          2.8475   -1.7983   -0.0773 C.2       1 <0>         0.2762
     10 N2          3.4423   -0.6415   -0.0445 N.2       1 <0>        -0.4661
     11 C8          3.5514   -3.1302   -0.1175 C.3       1 <0>         0.2186
     12 H2          2.9745   -3.8363   -0.7147 H         1 <0>         0.0970
     13 C9          3.7262   -3.6749    1.3157 C.3       1 <0>        -0.1246
     14 C10         5.1348   -4.3240    1.2714 C.3       1 <0>        -0.1302
     15 C11         5.8918   -3.3600    0.3241 C.3       1 <0>         0.0969
     16 N3          4.8945   -2.9687   -0.6934 N.am      1 <0>        -0.6029
     17 C12         5.1677   -2.5361   -1.9403 C.2       1 <0>         0.5529
     18 O1          4.2637   -2.3277   -2.7215 O.2       1 <0>        -0.5147
     19 C13         6.5964   -2.3114   -2.3637 C.3       1 <0>        -0.1196
     20 H3          7.2082   -2.1081   -1.4848 H         1 <0>         0.0955
     21 C14         6.6636   -1.1182   -3.3190 C.3       1 <0>        -0.0697
     22 C15         6.2712    0.1572   -2.5703 C.3       1 <0>        -0.1494
     23 C16         5.0153    0.8940   -3.0400 C.3       1 <0>        -0.1575
     24 C17         6.3986    1.4844   -3.3207 C.3       1 <0>        -0.1840
     25 C18         7.1211   -3.5620   -3.0721 C.3       1 <0>         0.1456
     26 N4          8.5435   -3.3896   -3.3776 N.am      1 <0>        -0.4744
     27 C19         9.4605   -3.4879   -2.3948 C.2       1 <0>         0.4794
     28 O2         10.6380   -3.3453   -2.6477 O.2       1 <0>        -0.5468
     29 O3          8.9548   -3.1198   -4.7054 O.3       1 <0>        -0.3308
     30 H4         -0.6915    2.4808    0.0600 H         1 <0>         0.1301
     31 H5          1.5141    3.5669    0.0836 H         1 <0>         0.1289
     32 H6          3.5566    2.2301    0.0395 H         1 <0>         0.1258
     33 H7         -0.8701    0.0311   -0.0159 H         1 <0>         0.1221
     34 H8          3.6983   -2.8634    2.0429 H         1 <0>         0.0852
     35 H9          2.9645   -4.4216    1.5401 H         1 <0>         0.0913
     36 H10         5.5905   -4.3366    2.2615 H         1 <0>         0.0928
     37 H11         5.0890   -5.3287    0.8513 H         1 <0>         0.0832
     38 H12         6.2396   -2.4845    0.8725 H         1 <0>         0.0786
     39 H13         6.7311   -3.8719   -0.1466 H         1 <0>         0.0795
     40 H14         7.6788   -1.0165   -3.7026 H         1 <0>         0.0787
     41 H15         5.9757   -1.2782   -4.1493 H         1 <0>         0.0777
     42 H16         6.4871    0.1604   -1.5019 H         1 <0>         0.1003
     43 H17         4.4686    0.4702   -3.8824 H         1 <0>         0.0893
     44 H18         4.4045    1.3821   -2.2805 H         1 <0>         0.0892
     45 H19         6.6979    2.3608   -2.7459 H         1 <0>         0.0908
     46 H20         6.7620    1.4490   -4.3478 H         1 <0>         0.0908
     47 H21         6.9911   -4.4284   -2.4236 H         1 <0>         0.0965
     48 H22         6.5665   -3.7147   -3.9980 H         1 <0>         0.1066
     49 H23         9.1468   -3.6938   -1.3821 H         1 <0>         0.1513
     50 H24         9.9113   -3.0220   -4.8086 H         1 <0>         0.3981
@<TRIPOS>BOND
     1    1    6 ar
     2    1    2 ar
     3    1   30 1
     4    2    3 ar
     5    2   31 1
     6    3    4 ar
     7    3   32 1
     8    4   10 1
     9    4    5 ar
    10    5    6 ar
    11    5    7 1
    12    6   33 1
    13    7    8 1
    14    7    9 1
    15    9   10 2
    16    9   11 1
    17   11   12 1
    18   11   16 1
    19   11   13 1
    20   13   14 1
    21   13   34 1
    22   13   35 1
    23   14   15 1
    24   14   36 1
    25   14   37 1
    26   15   16 1
    27   15   38 1
    28   15   39 1
    29   16   17 am
    30   17   18 2
    31   17   19 1
    32   19   20 1
    33   19   21 1
    34   19   25 1
    35   21   22 1
    36   21   40 1
    37   21   41 1
    38   22   24 1
    39   22   23 1
    40   22   42 1
    41   23   24 1
    42   23   43 1
    43   23   44 1
    44   24   45 1
    45   24   46 1
    46   25   26 1
    47   25   47 1
    48   25   48 1
    49   26   27 am
    50   26   29 1
    51   27   28 2
    52   27   49 1
    53   29   50 1
@<TRIPOS>MOLECULE
CHEMBL481391
   53    56     0     0     0
SMALL
USER_CHARGES

@<TRIPOS>ATOM
      1 C1         -0.0639    0.1119   -0.5379 C.ar      1 <0>        -0.1198
      2 C2          1.0646    0.7156   -1.0603 C.ar      1 <0>        -0.1165
      3 C3          2.3174    0.2107   -0.7664 C.ar      1 <0>        -0.0759
      4 C4          2.4418   -0.8977    0.0502 C.ar      1 <0>        -0.0887
      5 C5          1.3133   -1.5009    0.5733 C.ar      1 <0>        -0.1155
      6 C6          0.0605   -0.9968    0.2783 C.ar      1 <0>        -0.1217
      7 C7          3.8075   -1.4488    0.3697 C.3       1 <0>        -0.0582
      8 C8          4.2296   -0.9878    1.7662 C.3       1 <0>        -0.1177
      9 H1          3.4430   -1.2286    2.4815 H         1 <0>         0.1050
     10 C9          4.4634    0.5241    1.7552 C.3       1 <0>         0.1413
     11 N1          3.1973    1.2160    2.0092 N.am      1 <0>        -0.4688
     12 C10         2.5773    1.0722    3.1972 C.2       1 <0>         0.4756
     13 O1          1.5291    1.6450    3.4074 O.2       1 <0>        -0.5423
     14 O2          2.6249    2.0358    1.0065 O.3       1 <0>        -0.3202
     15 C11         5.5023   -1.6901    2.1638 C.2       1 <0>         0.5460
     16 O3          6.0772   -2.4006    1.3667 O.2       1 <0>        -0.5131
     17 N2          6.0015   -1.5286    3.4052 N.am      1 <0>        -0.6018
     18 C12         5.3649   -0.7665    4.4949 C.3       1 <0>         0.0880
     19 C13         6.5318   -0.3616    5.4299 C.3       1 <0>        -0.1305
     20 C14         7.4383   -1.6188    5.3592 C.3       1 <0>        -0.1246
     21 C15         7.2681   -2.0885    3.8989 C.3       1 <0>         0.2186
     22 H2          8.0969   -1.7204    3.2941 H         1 <0>         0.0992
     23 C16         7.2189   -3.5937    3.8443 C.2       1 <0>         0.2780
     24 N3          8.3065   -4.4064    3.7581 N.pl3     1 <0>        -0.5949
     25 H3          9.2338   -4.1240    3.7220 H         1 <0>         0.4216
     26 C17         7.8458   -5.7075    3.7321 C.ar      1 <0>         0.0506
     27 C18         8.4610   -6.9496    3.6537 C.ar      1 <0>        -0.1127
     28 C19         7.6917   -8.0935    3.6494 C.ar      1 <0>        -0.1000
     29 C20         6.3083   -8.0110    3.7224 C.ar      1 <0>        -0.1277
     30 C21         5.6858   -6.7976    3.8001 C.ar      1 <0>        -0.0635
     31 C22         6.4452   -5.6246    3.8065 C.ar      1 <0>         0.0483
     32 N4          6.1304   -4.3056    3.8783 N.2       1 <0>        -0.4719
     33 H4         -1.0424    0.5091   -0.7638 H         1 <0>         0.1168
     34 H5          0.9675    1.5816   -1.6983 H         1 <0>         0.1172
     35 H6          3.1991    0.6819   -1.1752 H         1 <0>         0.1155
     36 H7          1.4105   -2.3671    1.2110 H         1 <0>         0.1152
     37 H8         -0.8212   -1.4683    0.6867 H         1 <0>         0.1170
     38 H9          3.7757   -2.5380    0.3408 H         1 <0>         0.0848
     39 H10         4.5265   -1.0867   -0.3651 H         1 <0>         0.0814
     40 H11         5.1827    0.7862    2.5312 H         1 <0>         0.0922
     41 H12         4.8528    0.8245    0.7825 H         1 <0>         0.1080
     42 H13         3.0138    0.4469    3.9619 H         1 <0>         0.1427
     43 H14         1.8328    2.5113    1.2919 H         1 <0>         0.3927
     44 H15         4.8707    0.1206    4.0990 H         1 <0>         0.0781
     45 H16         4.6507   -1.3931    5.0291 H         1 <0>         0.0822
     46 H17         7.0517    0.5169    5.0478 H         1 <0>         0.0846
     47 H18         6.1771   -0.1923    6.4466 H         1 <0>         0.0948
     48 H19         8.4765   -1.3577    5.5643 H         1 <0>         0.0934
     49 H20         7.0886   -2.3857    6.0504 H         1 <0>         0.0861
     50 H21         9.5372   -7.0193    3.5960 H         1 <0>         0.1228
     51 H22         8.1688   -9.0605    3.5884 H         1 <0>         0.1308
     52 H23         5.7179   -8.9153    3.7174 H         1 <0>         0.1298
     53 H24         4.6085   -6.7449    3.8562 H         1 <0>         0.1275
@<TRIPOS>BOND
     1    1    6 ar
     2    1    2 ar
     3    1   33 1
     4    2    3 ar
     5    2   34 1
     6    3    4 ar
     7    3   35 1
     8    4    5 ar
     9    4    7 1
    10    5    6 ar
    11    5   36 1
    12    6   37 1
    13    7    8 1
    14    7   38 1
    15    7   39 1
    16    8    9 1
    17    8   10 1
    18    8   15 1
    19   10   11 1
    20   10   40 1
    21   10   41 1
    22   11   12 am
    23   11   14 1
    24   12   13 2
    25   12   42 1
    26   14   43 1
    27   15   16 2
    28   15   17 am
    29   17   21 1
    30   17   18 1
    31   18   19 1
    32   18   44 1
    33   18   45 1
    34   19   20 1
    35   19   46 1
    36   19   47 1
    37   20   21 1
    38   20   48 1
    39   20   49 1
    40   21   22 1
    41   21   23 1
    42   23   32 2
    43   23   24 1
    44   24   25 1
    45   24   26 1
    46   26   31 ar
    47   26   27 ar
    48   27   28 ar
    49   27   50 1
    50   28   29 ar
    51   28   51 1
    52   29   30 ar
    53   29   52 1
    54   30   31 ar
    55   30   53 1
    56   31   32 1
@<TRIPOS>MOLECULE
CHEMBL443904
   52    54     0     0     0
SMALL
USER_CHARGES

@<TRIPOS>ATOM
      1 C1         -0.7849    1.6442    1.4201 C.3       1 <0>        -0.1540
      2 C2         -0.6754    0.1562    1.0817 C.3       1 <0>        -0.1275
      3 C3          0.3935   -0.4905    1.9651 C.3       1 <0>        -0.1267
      4 C4          0.5030   -1.9785    1.6267 C.3       1 <0>        -0.1092
      5 C5          1.6371   -2.6046    2.4407 C.3       1 <0>        -0.1292
      6 H1          1.4627   -2.4285    3.5021 H         1 <0>         0.1165
      7 C6          2.9685   -1.9719    2.0308 C.3       1 <0>         0.1330
      8 N1          3.2727   -2.3299    0.6432 N.am      1 <0>        -0.4758
      9 C7          2.7386   -1.6181   -0.3690 C.2       1 <0>         0.4811
     10 O1          2.9904   -1.9145   -1.5178 O.2       1 <0>        -0.5479
     11 O2          4.1278   -3.4239    0.3654 O.3       1 <0>        -0.3312
     12 C8          1.6841   -4.0879    2.1786 C.2       1 <0>         0.5533
     13 O3          0.9520   -4.5801    1.3464 O.2       1 <0>        -0.5226
     14 N2          2.5397   -4.8674    2.8692 N.am      1 <0>        -0.5954
     15 C9          3.4154   -4.4192    3.9671 C.3       1 <0>         0.0944
     16 C10         4.5777   -5.4430    3.9905 C.3       1 <0>        -0.1288
     17 C11         3.8364   -6.7635    3.6525 C.3       1 <0>        -0.1239
     18 C12         2.7495   -6.3070    2.6565 C.3       1 <0>         0.2212
     19 H2          3.0864   -6.4856    1.6353 H         1 <0>         0.0949
     20 C13         1.4672   -7.0554    2.9144 C.2       1 <0>         0.2821
     21 N3          1.1507   -8.2662    2.3810 N.pl3     1 <0>        -0.5958
     22 H3          1.7011   -8.7906    1.7785 H         1 <0>         0.4211
     23 C14        -0.0988   -8.6104    2.8564 C.ar      1 <0>         0.0490
     24 C15        -0.9357   -9.7029    2.6733 C.ar      1 <0>        -0.1122
     25 C16        -2.1572   -9.7417    3.3113 C.ar      1 <0>        -0.1016
     26 C17        -2.5547   -8.6969    4.1336 C.ar      1 <0>        -0.1281
     27 C18        -1.7443   -7.6141    4.3255 C.ar      1 <0>        -0.0643
     28 C19        -0.5015   -7.5531    3.6895 C.ar      1 <0>         0.0487
     29 N4          0.5038   -6.6404    3.6841 N.2       1 <0>        -0.4732
     30 H4          0.1752    2.1288    1.2424 H         1 <0>         0.0540
     31 H5         -1.5464    2.1049    0.7908 H         1 <0>         0.0551
     32 H6         -1.0614    1.7591    2.4682 H         1 <0>         0.0549
     33 H7         -1.6355   -0.3284    1.2594 H         1 <0>         0.0651
     34 H8         -0.3989    0.0413    0.0337 H         1 <0>         0.0619
     35 H9          1.3535   -0.0059    1.7874 H         1 <0>         0.0627
     36 H10         0.1170   -0.3756    3.0131 H         1 <0>         0.0713
     37 H11        -0.4359   -2.4763    1.8691 H         1 <0>         0.0796
     38 H12         0.7118   -2.0949    0.5632 H         1 <0>         0.0682
     39 H13         2.8981   -0.8878    2.1192 H         1 <0>         0.1118
     40 H14         3.7612   -2.3388    2.6828 H         1 <0>         0.1046
     41 H15         2.0864   -0.7838   -0.1572 H         1 <0>         0.1503
     42 H16         4.2691   -3.5830   -0.5779 H         1 <0>         0.3962
     43 H17         3.7958   -3.4180    3.7643 H         1 <0>         0.0835
     44 H18         2.8757   -4.4363    4.9139 H         1 <0>         0.0761
     45 H19         5.3217   -5.2069    3.2297 H         1 <0>         0.0834
     46 H20         5.0343   -5.4933    4.9790 H         1 <0>         0.0904
     47 H21         4.5147   -7.4780    3.1860 H         1 <0>         0.0900
     48 H22         3.3808   -7.1897    4.5463 H         1 <0>         0.0835
     49 H23        -0.6315  -10.5182    2.0338 H         1 <0>         0.1223
     50 H24        -2.8093  -10.5909    3.1698 H         1 <0>         0.1305
     51 H25        -3.5146   -8.7402    4.6267 H         1 <0>         0.1295
     52 H26        -2.0638   -6.8064    4.9674 H         1 <0>         0.1271
@<TRIPOS>BOND
     1    1    2 1
     2    1   30 1
     3    1   31 1
     4    1   32 1
     5    2    3 1
     6    2   33 1
     7    2   34 1
     8    3    4 1
     9    3   35 1
    10    3   36 1
    11    4    5 1
    12    4   37 1
    13    4   38 1
    14    5    6 1
    15    5    7 1
    16    5   12 1
    17    7    8 1
    18    7   39 1
    19    7   40 1
    20    8    9 am
    21    8   11 1
    22    9   10 2
    23    9   41 1
    24   11   42 1
    25   12   13 2
    26   12   14 am
    27   14   18 1
    28   14   15 1
    29   15   16 1
    30   15   43 1
    31   15   44 1
    32   16   17 1
    33   16   45 1
    34   16   46 1
    35   17   18 1
    36   17   47 1
    37   17   48 1
    38   18   19 1
    39   18   20 1
    40   20   29 2
    41   20   21 1
    42   21   22 1
    43   21   23 1
    44   23   28 ar
    45   23   24 ar
    46   24   25 ar
    47   24   49 1
    48   25   26 ar
    49   25   50 1
    50   26   27 ar
    51   26   51 1
    52   27   28 ar
    53   27   52 1
    54   28   29 1
@<TRIPOS>MOLECULE
CHEMBL482180
   55    57     0     0     0
SMALL
USER_CHARGES

@<TRIPOS>ATOM
      1 C1          0.5981    0.7086    1.8369 C.3       1 <0>        -0.1557
      2 C2          0.4289   -0.7381    1.3685 C.3       1 <0>        -0.1246
      3 C3         -1.0553   -1.0287    1.1364 C.3       1 <0>        -0.1234
      4 C4         -1.2245   -2.4754    0.6680 C.3       1 <0>        -0.1266
      5 C5         -2.7086   -2.7660    0.4360 C.3       1 <0>        -0.1086
      6 C6         -2.8697   -4.1807   -0.1241 C.3       1 <0>        -0.1291
      7 H1         -2.4045   -4.8954    0.5547 H         1 <0>         0.1165
      8 C7         -2.1958   -4.2663   -1.4950 C.3       1 <0>         0.1331
      9 N1         -2.9123   -3.4122   -2.4455 N.am      1 <0>        -0.4757
     10 C8         -2.6387   -2.0939   -2.5058 C.2       1 <0>         0.4811
     11 O1         -3.2318   -1.3869   -3.2927 O.2       1 <0>        -0.5479
     12 O2         -3.8922   -3.9718   -3.3009 O.3       1 <0>        -0.3312
     13 C9         -4.3355   -4.5016   -0.2640 C.2       1 <0>         0.5532
     14 O3         -5.1674   -3.6488   -0.0368 O.2       1 <0>        -0.5225
     15 N2         -4.7220   -5.7364   -0.6415 N.am      1 <0>        -0.5953
     16 C10        -3.8273   -6.8878   -0.8589 C.3       1 <0>         0.0944
     17 C11        -4.6011   -7.8133   -1.8307 C.3       1 <0>        -0.1289
     18 C12        -6.0596   -7.6408   -1.3302 C.3       1 <0>        -0.1239
     19 C13        -6.1062   -6.1598   -0.8985 C.3       1 <0>         0.2213
     20 H2         -6.5363   -5.5561   -1.6977 H         1 <0>         0.0948
     21 C14        -6.9280   -6.0146    0.3563 C.2       1 <0>         0.2821
     22 N3         -8.2778   -5.8489    0.3891 N.pl3     1 <0>        -0.5957
     23 H3         -8.8704   -5.8046   -0.3776 H         1 <0>         0.4211
     24 C15        -8.6481   -5.7561    1.7158 C.ar      1 <0>         0.0489
     25 C16        -9.8596   -5.5849    2.3718 C.ar      1 <0>        -0.1122
     26 C17        -9.8888   -5.5318    3.7490 C.ar      1 <0>        -0.1016
     27 C18        -8.7163   -5.6478    4.4823 C.ar      1 <0>        -0.1281
     28 C19        -7.5153   -5.8168    3.8539 C.ar      1 <0>        -0.0643
     29 C20        -7.4614   -5.8740    2.4587 C.ar      1 <0>         0.0488
     30 N4         -6.4505   -6.0349    1.5665 N.2       1 <0>        -0.4732
     31 H4          1.6554    0.9156    2.0023 H         1 <0>         0.0540
     32 H5          0.2102    1.3848    1.0752 H         1 <0>         0.0540
     33 H6          0.0492    0.8559    2.7671 H         1 <0>         0.0539
     34 H7          0.9777   -0.8854    0.4384 H         1 <0>         0.0611
     35 H8          0.8167   -1.4144    2.1303 H         1 <0>         0.0619
     36 H9         -1.6041   -0.8814    2.0666 H         1 <0>         0.0655
     37 H10        -1.4431   -0.3525    0.3747 H         1 <0>         0.0622
     38 H11        -0.6756   -2.6227   -0.2621 H         1 <0>         0.0626
     39 H12        -0.8366   -3.1517    1.4298 H         1 <0>         0.0714
     40 H13        -3.2466   -2.6857    1.3805 H         1 <0>         0.0796
     41 H14        -3.1131   -2.0456   -0.2750 H         1 <0>         0.0681
     42 H15        -1.1619   -3.9311   -1.4132 H         1 <0>         0.1118
     43 H16        -2.2166   -5.2979   -1.8463 H         1 <0>         0.1045
     44 H17        -1.8913   -1.6671   -1.8534 H         1 <0>         0.1503
     45 H18        -4.3103   -3.3310   -3.8923 H         1 <0>         0.3962
     46 H19        -2.8911   -6.5606   -1.3113 H         1 <0>         0.0835
     47 H20        -3.6353   -7.4021    0.0827 H         1 <0>         0.0761
     48 H21        -4.4985   -7.4715   -2.8607 H         1 <0>         0.0834
     49 H22        -4.2730   -8.8478   -1.7295 H         1 <0>         0.0904
     50 H23        -6.7688   -7.8328   -2.1353 H         1 <0>         0.0900
     51 H24        -6.2548   -8.2932   -0.4790 H         1 <0>         0.0835
     52 H25       -10.7748   -5.4934    1.8058 H         1 <0>         0.1223
     53 H26       -10.8305   -5.3987    4.2607 H         1 <0>         0.1305
     54 H27        -8.7538   -5.6038    5.5608 H         1 <0>         0.1295
     55 H28        -6.6088   -5.9056    4.4344 H         1 <0>         0.1271
@<TRIPOS>BOND
     1    1    2 1
     2    1   31 1
     3    1   32 1
     4    1   33 1
     5    2    3 1
     6    2   34 1
     7    2   35 1
     8    3    4 1
     9    3   36 1
    10    3   37 1
    11    4    5 1
    12    4   38 1
    13    4   39 1
    14    5    6 1
    15    5   40 1
    16    5   41 1
    17    6    7 1
    18    6    8 1
    19    6   13 1
    20    8    9 1
    21    8   42 1
    22    8   43 1
    23    9   10 am
    24    9   12 1
    25   10   11 2
    26   10   44 1
    27   12   45 1
    28   13   14 2
    29   13   15 am
    30   15   19 1
    31   15   16 1
    32   16   17 1
    33   16   46 1
    34   16   47 1
    35   17   18 1
    36   17   48 1
    37   17   49 1
    38   18   19 1
    39   18   50 1
    40   18   51 1
    41   19   20 1
    42   19   21 1
    43   21   30 2
    44   21   22 1
    45   22   23 1
    46   22   24 1
    47   24   29 ar
    48   24   25 ar
    49   25   26 ar
    50   25   52 1
    51   26   27 ar
    52   26   53 1
    53   27   28 ar
    54   27   54 1
    55   28   29 ar
    56   28   55 1
    57   29   30 1
@<TRIPOS>MOLECULE
CHEMBL287247
   39    41     0     0     0
SMALL
USER_CHARGES

@<TRIPOS>ATOM
      1 C1         -0.0167    1.3781    0.0096 C.ar      1 <0>        -0.1064
      2 C2          1.1709    2.0855    0.0021 C.ar      1 <0>        -0.1226
      3 C3          2.3773    1.4107   -0.0130 C.ar      1 <0>        -0.0935
      4 C4          2.3960    0.0285   -0.0201 C.ar      1 <0>        -0.0960
      5 C5          1.2084   -0.6789   -0.0117 C.ar      1 <0>        -0.0931
      6 C6          0.0021   -0.0041    0.0020 C.ar      1 <0>        -0.1226
      7 C7          3.7112   -0.7071   -0.0376 C.3       1 <0>         0.0748
      8 O1          4.1410   -0.9464    1.3041 O.3       1 <0>        -0.1318
      9 N1          5.3740   -1.6360    1.3995 N.am      1 <0>        -0.6002
     10 C8          5.8926   -1.9250    2.6095 C.2       1 <0>         0.5311
     11 O2          5.3031   -1.5944    3.6166 O.2       1 <0>        -0.4964
     12 C9          7.2049   -2.6590    2.7111 C.3       1 <0>        -0.1203
     13 C10         7.5646   -2.8589    4.1847 C.3       1 <0>        -0.0839
     14 C11         8.9213   -3.5054    4.2915 C.2       1 <0>         0.5293
     15 O3          9.8824   -2.7974    4.5070 O.2       1 <0>        -0.5041
     16 N2          9.1163   -4.8136    4.1616 N.am      1 <0>        -0.6522
     17 C12         8.1341   -5.7906    4.0296 C.ar      1 <0>         0.1545
     18 C13         8.4901   -7.0520    3.5620 C.ar      1 <0>        -0.1399
     19 C14         7.5325   -8.0355    3.4137 C.ar      1 <0>        -0.0825
     20 C15         6.2099   -7.7793    3.7265 C.ar      1 <0>        -0.1252
     21 C16         5.8422   -6.5314    4.1952 C.ar      1 <0>        -0.0567
     22 C17         6.7998   -5.5428    4.3504 C.ar      1 <0>        -0.1446
     23 S1          6.3418   -3.9534    4.9695 S.3       1 <0>        -0.0396
     24 H1         -0.9591    1.9053    0.0259 H         1 <0>         0.1259
     25 H2          1.1563    3.1654    0.0076 H         1 <0>         0.1269
     26 H3          3.3051    1.9634   -0.0196 H         1 <0>         0.1249
     27 H4          1.2231   -1.7588   -0.0176 H         1 <0>         0.1251
     28 H5         -0.9258   -0.5567    0.0082 H         1 <0>         0.1270
     29 H6          3.5884   -1.6586   -0.5549 H         1 <0>         0.0718
     30 H7          4.4573   -0.1052   -0.5563 H         1 <0>         0.0717
     31 H8          5.8455   -1.9004    0.5941 H         1 <0>         0.4069
     32 H9          7.1168   -3.6299    2.2236 H         1 <0>         0.1066
     33 H10         7.9857   -2.0764    2.2222 H         1 <0>         0.1184
     34 H11         7.5736   -1.8951    4.6936 H         1 <0>         0.1622
     35 H12        10.0372   -5.1184    4.1581 H         1 <0>         0.4154
     36 H13         9.5200   -7.2627    3.3142 H         1 <0>         0.1334
     37 H14         7.8182   -9.0117    3.0506 H         1 <0>         0.1338
     38 H15         5.4656   -8.5523    3.6046 H         1 <0>         0.1345
     39 H16         4.8101   -6.3280    4.4402 H         1 <0>         0.1376
@<TRIPOS>BOND
     1    1    6 ar
     2    1    2 ar
     3    1   24 1
     4    2    3 ar
     5    2   25 1
     6    3    4 ar
     7    3   26 1
     8    4    5 ar
     9    4    7 1
    10    5    6 ar
    11    5   27 1
    12    6   28 1
    13    7    8 1
    14    7   29 1
    15    7   30 1
    16    8    9 1
    17    9   10 am
    18    9   31 1
    19   10   11 2
    20   10   12 1
    21   12   13 1
    22   12   32 1
    23   12   33 1
    24   13   23 1
    25   13   14 1
    26   13   34 1
    27   14   15 2
    28   14   16 am
    29   16   17 1
    30   16   35 1
    31   17   22 ar
    32   17   18 ar
    33   18   19 ar
    34   18   36 1
    35   19   20 ar
    36   19   37 1
    37   20   21 ar
    38   20   38 1
    39   21   22 ar
    40   21   39 1
    41   22   23 1
@<TRIPOS>MOLECULE
CHEMBL287247__1
   39    41     0     0     0
SMALL
USER_CHARGES

@<TRIPOS>ATOM
      1 C1         -0.0167    1.3781    0.0096 C.ar      1 <0>        -0.1064
      2 C2          1.1709    2.0855    0.0021 C.ar      1 <0>        -0.1226
      3 C3          2.3773    1.4107   -0.0130 C.ar      1 <0>        -0.0931
      4 C4          2.3960    0.0285   -0.0201 C.ar      1 <0>        -0.0960
      5 C5          1.2084   -0.6789   -0.0117 C.ar      1 <0>        -0.0934
      6 C6          0.0021   -0.0041    0.0020 C.ar      1 <0>        -0.1226
      7 C7          3.7112   -0.7071   -0.0376 C.3       1 <0>         0.0748
      8 O1          4.1410   -0.9464    1.3041 O.3       1 <0>        -0.1319
      9 N1          5.3740   -1.6360    1.3995 N.am      1 <0>        -0.6002
     10 C8          5.8926   -1.9250    2.6095 C.2       1 <0>         0.5311
     11 O2          5.3031   -1.5944    3.6166 O.2       1 <0>        -0.4964
     12 C9          7.2049   -2.6590    2.7111 C.3       1 <0>        -0.1203
     13 C10         7.5646   -2.8589    4.1847 C.3       1 <0>        -0.0840
     14 C11         8.8256   -3.6765    4.2916 C.2       1 <0>         0.5293
     15 O3          8.7255   -4.8658    4.5079 O.2       1 <0>        -0.5041
     16 N2         10.0423   -3.1582    4.1602 N.am      1 <0>        -0.6522
     17 C12        10.3608   -1.8100    4.0271 C.ar      1 <0>         0.1545
     18 C13        11.6218   -1.4535    3.5588 C.ar      1 <0>        -0.1399
     19 C14        11.9586   -0.1229    3.4094 C.ar      1 <0>        -0.0825
     20 C15        11.0482    0.8702    3.7216 C.ar      1 <0>        -0.1252
     21 C16         9.7925    0.5308    4.1910 C.ar      1 <0>        -0.0567
     22 C17         9.4514   -0.8025    4.3473 C.ar      1 <0>        -0.1448
     23 S1          7.8579   -1.2431    4.9672 S.3       1 <0>        -0.0394
     24 H1         -0.9591    1.9053    0.0259 H         1 <0>         0.1259
     25 H2          1.1563    3.1654    0.0076 H         1 <0>         0.1270
     26 H3          3.3051    1.9634   -0.0196 H         1 <0>         0.1251
     27 H4          1.2231   -1.7588   -0.0176 H         1 <0>         0.1249
     28 H5         -0.9258   -0.5567    0.0082 H         1 <0>         0.1269
     29 H6          3.5884   -1.6586   -0.5549 H         1 <0>         0.0717
     30 H7          4.4573   -0.1052   -0.5563 H         1 <0>         0.0718
     31 H8          5.8455   -1.9004    0.5941 H         1 <0>         0.4069
     32 H9          7.1168   -3.6299    2.2236 H         1 <0>         0.1184
     33 H10         7.9857   -2.0764    2.2222 H         1 <0>         0.1066
     34 H11         6.7484   -3.3703    4.6949 H         1 <0>         0.1623
     35 H12        10.7840   -3.7833    4.1569 H         1 <0>         0.4154
     36 H13        12.3402   -2.2210    3.3114 H         1 <0>         0.1334
     37 H14        12.9401    0.1443    3.0464 H         1 <0>         0.1338
     38 H15        11.3176    1.9089    3.5995 H         1 <0>         0.1345
     39 H16         9.0792    1.3040    4.4355 H         1 <0>         0.1376
@<TRIPOS>BOND
     1    1    6 ar
     2    1    2 ar
     3    1   24 1
     4    2    3 ar
     5    2   25 1
     6    3    4 ar
     7    3   26 1
     8    4    5 ar
     9    4    7 1
    10    5    6 ar
    11    5   27 1
    12    6   28 1
    13    7    8 1
    14    7   29 1
    15    7   30 1
    16    8    9 1
    17    9   10 am
    18    9   31 1
    19   10   11 2
    20   10   12 1
    21   12   13 1
    22   12   32 1
    23   12   33 1
    24   13   23 1
    25   13   14 1
    26   13   34 1
    27   14   15 2
    28   14   16 am
    29   16   17 1
    30   16   35 1
    31   17   22 ar
    32   17   18 ar
    33   18   19 ar
    34   18   36 1
    35   19   20 ar
    36   19   37 1
    37   20   21 ar
    38   20   38 1
    39   21   22 ar
    40   21   39 1
    41   22   23 1
@<TRIPOS>MOLECULE
CHEMBL286560
   38    40     0     0     0
SMALL
USER_CHARGES

@<TRIPOS>ATOM
      1 C1         -0.0167    1.3783    0.0096 C.ar      1 <0>        -0.1447
      2 C2          1.1702    2.0884    0.0021 C.ar      1 <0>        -0.0859
      3 C3          2.3772    1.4180   -0.0206 C.ar      1 <0>        -0.1562
      4 C4          2.3996    0.0296   -0.0409 C.ar      1 <0>         0.1719
      5 C5          1.2067   -0.6800   -0.0158 C.ar      1 <0>        -0.1311
      6 C6          0.0021   -0.0041    0.0020 C.ar      1 <0>        -0.0805
      7 C7          1.2242   -2.1866    0.0129 C.3       1 <0>        -0.0739
      8 C8          2.4252   -2.7026   -0.7801 C.3       1 <0>        -0.0874
      9 C9          3.6682   -1.9631   -0.3604 C.2       1 <0>         0.5150
     10 O1          4.7230   -2.5566   -0.2831 O.2       1 <0>        -0.4784
     11 N1          3.6196   -0.6514   -0.0711 N.am      1 <0>        -0.5524
     12 C10         4.8602    0.0729    0.2159 C.3       1 <0>         0.1350
     13 C11         5.1515    0.0109    1.7167 C.3       1 <0>        -0.1675
     14 C12         5.1513    1.3302    2.4914 C.3       1 <0>        -0.1762
     15 C13         6.4711    0.6111    2.2056 C.3       1 <0>        -0.1705
     16 C14         2.1815   -2.4811   -2.2743 C.3       1 <0>        -0.1181
     17 C15         3.3068   -3.0987   -3.0638 C.2       1 <0>         0.5081
     18 O2          4.2143   -3.6607   -2.4881 O.2       1 <0>        -0.4875
     19 N2          3.3046   -3.0265   -4.4096 N.am      1 <0>        -0.6003
     20 O3          4.3620   -3.6068   -5.1515 O.3       1 <0>        -0.3172
     21 H1         -0.9596    1.9046    0.0260 H         1 <0>         0.1252
     22 H2          1.1530    3.1682    0.0137 H         1 <0>         0.1268
     23 H3          3.3035    1.9733   -0.0230 H         1 <0>         0.1275
     24 H4         -0.9261   -0.5561    0.0103 H         1 <0>         0.1290
     25 H5          1.2970   -2.5290    1.0452 H         1 <0>         0.0896
     26 H6          0.3050   -2.5686   -0.4313 H         1 <0>         0.0949
     27 H7          2.5553   -3.7678   -0.5890 H         1 <0>         0.1226
     28 H8          5.6833   -0.3844   -0.3331 H         1 <0>         0.0946
     29 H9          4.7527    1.1134   -0.0907 H         1 <0>         0.0871
     30 H10         4.7804   -0.8754    2.2313 H         1 <0>         0.1057
     31 H11         4.9437    2.2424    1.9320 H         1 <0>         0.0947
     32 H12         4.7799    1.3121    3.5161 H         1 <0>         0.0946
     33 H13         6.9681    0.1199    3.0422 H         1 <0>         0.0973
     34 H14         7.1319    1.0502    1.4581 H         1 <0>         0.0967
     35 H15         1.2383   -2.9460   -2.5614 H         1 <0>         0.1160
     36 H16         2.1371   -1.4117   -2.4805 H         1 <0>         0.1020
     37 H17         2.5788   -2.5770   -4.8700 H         1 <0>         0.4065
     38 H18         4.2732   -3.5043   -6.1089 H         1 <0>         0.3870
@<TRIPOS>BOND
     1    1    6 ar
     2    1    2 ar
     3    1   21 1
     4    2    3 ar
     5    2   22 1
     6    3    4 ar
     7    3   23 1
     8    4   11 1
     9    4    5 ar
    10    5    6 ar
    11    5    7 1
    12    6   24 1
    13    7    8 1
    14    7   25 1
    15    7   26 1
    16    8    9 1
    17    8   16 1
    18    8   27 1
    19    9   10 2
    20    9   11 am
    21   11   12 1
    22   12   13 1
    23   12   28 1
    24   12   29 1
    25   13   15 1
    26   13   14 1
    27   13   30 1
    28   14   15 1
    29   14   31 1
    30   14   32 1
    31   15   33 1
    32   15   34 1
    33   16   17 1
    34   16   35 1
    35   16   36 1
    36   17   18 2
    37   17   19 am
    38   19   20 1
    39   19   37 1
    40   20   38 1
@<TRIPOS>MOLECULE
CHEMBL286560__1
   38    40     0     0     0
SMALL
USER_CHARGES

@<TRIPOS>ATOM
      1 C1         -0.0167    1.3783    0.0096 C.ar      1 <0>        -0.1446
      2 C2          1.1702    2.0884    0.0021 C.ar      1 <0>        -0.0856
      3 C3          2.3772    1.4180   -0.0206 C.ar      1 <0>        -0.1553
      4 C4          2.3996    0.0296   -0.0409 C.ar      1 <0>         0.1725
      5 C5          1.2067   -0.6800   -0.0158 C.ar      1 <0>        -0.1301
      6 C6          0.0021   -0.0041    0.0020 C.ar      1 <0>        -0.0799
      7 C7          1.2242   -2.1866    0.0129 C.3       1 <0>        -0.0709
      8 C8          2.4252   -2.7026   -0.7801 C.3       1 <0>        -0.0904
      9 C9          3.6682   -1.9631   -0.3604 C.2       1 <0>         0.5217
     10 O1          4.7230   -2.5566   -0.2831 O.2       1 <0>        -0.4926
     11 N1          3.6196   -0.6514   -0.0711 N.am      1 <0>        -0.5503
     12 C10         4.8602    0.0729    0.2159 C.3       1 <0>         0.1351
     13 C11         5.1515    0.0109    1.7167 C.3       1 <0>        -0.1665
     14 C12         5.1513    1.3302    2.4914 C.3       1 <0>        -0.1763
     15 C13         6.4711    0.6111    2.2056 C.3       1 <0>        -0.1707
     16 C14         2.6077   -4.1978   -0.5118 C.3       1 <0>        -0.1110
     17 C15         3.7128   -4.7337   -1.3852 C.2       1 <0>         0.5293
     18 O2          4.2968   -3.9927   -2.1473 O.2       1 <0>        -0.5008
     19 N2          4.0520   -6.0364   -1.3195 N.am      1 <0>        -0.6016
     20 O3          5.0903   -6.5399   -2.1402 O.3       1 <0>        -0.3181
     21 H1         -0.9596    1.9046    0.0260 H         1 <0>         0.1257
     22 H2          1.1530    3.1682    0.0137 H         1 <0>         0.1274
     23 H3          3.3035    1.9733   -0.0230 H         1 <0>         0.1280
     24 H4         -0.9261   -0.5561    0.0103 H         1 <0>         0.1291
     25 H5          1.2970   -2.5290    1.0452 H         1 <0>         0.0852
     26 H6          0.3050   -2.5686   -0.4313 H         1 <0>         0.0944
     27 H7          2.2516   -2.5448   -1.8446 H         1 <0>         0.1181
     28 H8          5.6833   -0.3844   -0.3331 H         1 <0>         0.0958
     29 H9          4.7527    1.1134   -0.0907 H         1 <0>         0.0874
     30 H10         4.7804   -0.8754    2.2313 H         1 <0>         0.1045
     31 H11         4.9437    2.2424    1.9320 H         1 <0>         0.0952
     32 H12         4.7799    1.3121    3.5161 H         1 <0>         0.0944
     33 H13         6.9681    0.1199    3.0422 H         1 <0>         0.0967
     34 H14         7.1319    1.0502    1.4581 H         1 <0>         0.0970
     35 H15         2.8667   -4.3499    0.5360 H         1 <0>         0.1041
     36 H16         1.6796   -4.7233   -0.7367 H         1 <0>         0.1118
     37 H17         3.5849   -6.6290   -0.7100 H         1 <0>         0.4055
     38 H18         5.2614   -7.4844   -2.0228 H         1 <0>         0.3856
@<TRIPOS>BOND
     1    1    6 ar
     2    1    2 ar
     3    1   21 1
     4    2    3 ar
     5    2   22 1
     6    3    4 ar
     7    3   23 1
     8    4   11 1
     9    4    5 ar
    10    5    6 ar
    11    5    7 1
    12    6   24 1
    13    7    8 1
    14    7   25 1
    15    7   26 1
    16    8    9 1
    17    8   16 1
    18    8   27 1
    19    9   10 2
    20    9   11 am
    21   11   12 1
    22   12   13 1
    23   12   28 1
    24   12   29 1
    25   13   15 1
    26   13   14 1
    27   13   30 1
    28   14   15 1
    29   14   31 1
    30   14   32 1
    31   15   33 1
    32   15   34 1
    33   16   17 1
    34   16   35 1
    35   16   36 1
    36   17   18 2
    37   17   19 am
    38   19   20 1
    39   19   37 1
    40   20   38 1
@<TRIPOS>MOLECULE
CHEMBL29911
   42    43     0     0     0
SMALL
USER_CHARGES

@<TRIPOS>ATOM
      1 C1         -0.0173    1.4248    0.0099 C.3       1 <0>         0.0260
      2 O1          0.0021   -0.0041    0.0020 O.3       1 <0>        -0.3166
      3 C2         -1.2003   -0.6375    0.0101 C.ar      1 <0>         0.1297
      4 C3         -2.3748    0.1012    0.0195 C.ar      1 <0>        -0.1977
      5 C4         -3.5956   -0.5449    0.0272 C.ar      1 <0>        -0.0754
      6 C5         -3.6478   -1.9268    0.0256 C.ar      1 <0>        -0.1270
      7 C6         -2.4790   -2.6650    0.0167 C.ar      1 <0>        -0.0680
      8 C7         -1.2554   -2.0235    0.0032 C.ar      1 <0>        -0.1462
      9 C8         -2.5396   -4.1708    0.0155 C.3       1 <0>         0.1320
     10 C9         -2.8160   -4.6613   -1.3824 C.2       1 <0>         0.5309
     11 O2         -3.8095   -5.3189   -1.6090 O.2       1 <0>        -0.4900
     12 N1         -1.9591   -4.3691   -2.3808 N.am      1 <0>        -0.5969
     13 O3         -2.2188   -4.8300   -3.6943 O.3       1 <0>        -0.3159
     14 N2         -3.6133   -4.6184    0.9127 N.3       1 <0>        -0.6563
     15 C10        -3.3546   -5.9776    1.4061 C.3       1 <0>         0.0980
     16 C11        -4.4744   -6.4015    2.3211 C.ar      1 <0>        -0.0854
     17 C12        -4.3972   -6.1381    3.6762 C.ar      1 <0>        -0.0808
     18 C13        -5.4242   -6.5268    4.5154 C.ar      1 <0>        -0.1211
     19 C14        -6.5291   -7.1787    3.9998 C.ar      1 <0>        -0.0698
     20 C15        -6.6067   -7.4412    2.6450 C.ar      1 <0>        -0.1835
     21 C16        -5.5813   -7.0485    1.8049 C.ar      1 <0>        -0.0399
     22 C17        -7.8108   -8.1522    2.0831 C.3       1 <0>         0.5078
     23 F1         -8.7063   -8.4421    3.1181 F         1 <0>        -0.1780
     24 F2         -8.4385   -7.3318    1.1395 F         1 <0>        -0.1741
     25 F3         -7.4055   -9.3425    1.4699 F         1 <0>        -0.1760
     26 H1          1.0053    1.8021    0.0021 H         1 <0>         0.1029
     27 H2         -0.5445    1.7859   -0.8732 H         1 <0>         0.0572
     28 H3         -0.5275    1.7763    0.9067 H         1 <0>         0.0574
     29 H4         -2.3345    1.1804    0.0211 H         1 <0>         0.1311
     30 H5         -4.5101    0.0296    0.0349 H         1 <0>         0.1307
     31 H6         -4.6033   -2.4302    0.0316 H         1 <0>         0.1379
     32 H7         -0.3426   -2.6006   -0.0083 H         1 <0>         0.1335
     33 H8         -1.5869   -4.5731    0.3599 H         1 <0>         0.0884
     34 H9         -1.1645   -3.8431   -2.1996 H         1 <0>         0.4058
     35 H10        -1.5489   -4.5708   -4.3417 H         1 <0>         0.3876
     36 H11        -3.7371   -3.9732    1.6784 H         1 <0>         0.3581
     37 H12        -3.2947   -6.6652    0.5624 H         1 <0>         0.0917
     38 H13        -2.4124   -5.9921    1.9541 H         1 <0>         0.0493
     39 H14        -3.5341   -5.6289    4.0790 H         1 <0>         0.1303
     40 H15        -5.3636   -6.3217    5.5740 H         1 <0>         0.1357
     41 H16        -7.3313   -7.4831    4.6556 H         1 <0>         0.1384
     42 H17        -5.6437   -7.2503    0.7458 H         1 <0>         0.1385
@<TRIPOS>BOND
     1    1    2 1
     2    1   26 1
     3    1   27 1
     4    1   28 1
     5    2    3 1
     6    3    8 ar
     7    3    4 ar
     8    4    5 ar
     9    4   29 1
    10    5    6 ar
    11    5   30 1
    12    6    7 ar
    13    6   31 1
    14    7    8 ar
    15    7    9 1
    16    8   32 1
    17    9   10 1
    18    9   14 1
    19    9   33 1
    20   10   11 2
    21   10   12 am
    22   12   13 1
    23   12   34 1
    24   13   35 1
    25   14   15 1
    26   14   36 1
    27   15   16 1
    28   15   37 1
    29   15   38 1
    30   16   21 ar
    31   16   17 ar
    32   17   18 ar
    33   17   39 1
    34   18   19 ar
    35   18   40 1
    36   19   20 ar
    37   19   41 1
    38   20   21 ar
    39   20   22 1
    40   21   42 1
    41   22   23 1
    42   22   24 1
    43   22   25 1
@<TRIPOS>MOLECULE
CHEMBL29911__1
   43    44     0     0     0
SMALL
USER_CHARGES

@<TRIPOS>ATOM
      1 C1         -0.0173    1.4248    0.0099 C.3       1 <0>         0.0205
      2 O1          0.0021   -0.0041    0.0020 O.3       1 <0>        -0.3080
      3 C2          0.6258   -0.6184    1.0415 C.ar      1 <0>         0.1497
      4 C3          1.2023    0.1385    2.0514 C.ar      1 <0>        -0.1759
      5 C4          1.8353   -0.4882    3.1070 C.ar      1 <0>        -0.0556
      6 C5          1.8947   -1.8689    3.1579 C.ar      1 <0>        -0.1516
      7 C6          1.3214   -2.6252    2.1527 C.ar      1 <0>        -0.1179
      8 C7          0.6822   -2.0032    1.0975 C.ar      1 <0>        -0.1276
      9 C8          1.3885   -4.1296    2.2111 C.3       1 <0>         0.0762
     10 C9          0.3286   -4.6436    3.1511 C.2       1 <0>         0.5244
     11 O2          0.6454   -5.2901    4.1270 O.2       1 <0>        -0.5033
     12 N1         -0.9714   -4.3848    2.9071 N.am      1 <0>        -0.5643
     13 O3         -1.9673   -4.8677    3.7903 O.3       1 <0>        -0.2934
     14 N2          2.7130   -4.5424    2.6939 N.4       1 <0>        -0.4894
     15 C10         2.8204   -6.0064    2.6376 C.3       1 <0>         0.0301
     16 C11         4.1792   -6.4299    3.1329 C.ar      1 <0>        -0.1620
     17 C12         5.2336   -6.5442    2.2459 C.ar      1 <0>        -0.0615
     18 C13         6.4798   -6.9326    2.7001 C.ar      1 <0>        -0.1129
     19 C14         6.6722   -7.2063    4.0416 C.ar      1 <0>        -0.0364
     20 C15         5.6184   -7.0911    4.9285 C.ar      1 <0>        -0.1760
     21 C16         4.3728   -6.6984    4.4748 C.ar      1 <0>        -0.0386
     22 C17         5.8280   -7.3899    6.3906 C.3       1 <0>         0.5064
     23 F1          7.1600   -7.7603    6.6046 F         1 <0>        -0.1700
     24 F2          5.5338   -6.2500    7.1464 F         1 <0>        -0.1727
     25 F3          4.9848   -8.4368    6.7782 F         1 <0>        -0.1696
     26 H1          1.0053    1.8021    0.0021 H         1 <0>         0.0639
     27 H2         -0.5445    1.7859   -0.8732 H         1 <0>         0.1128
     28 H3         -0.5275    1.7763    0.9067 H         1 <0>         0.0637
     29 H4          1.1565    1.2168    2.0119 H         1 <0>         0.1449
     30 H5          2.2845    0.1005    3.8932 H         1 <0>         0.1438
     31 H6          2.3900   -2.3570    3.9842 H         1 <0>         0.1262
     32 H7          0.2306   -2.5946    0.3148 H         1 <0>         0.1471
     33 H8          1.2207   -4.5397    1.2152 H         1 <0>         0.1802
     34 H9         -1.2248   -3.8677    2.1265 H         1 <0>         0.4188
     35 H10        -2.8691   -4.6320    3.5328 H         1 <0>         0.4060
     36 H11         3.4267   -4.1302    2.1118 H         1 <0>         0.4386
     37 H12         2.0494   -6.4517    3.2664 H         1 <0>         0.1600
     38 H13         2.6882   -6.3411    1.6087 H         1 <0>         0.1452
     39 H14         5.0833   -6.3304    1.1980 H         1 <0>         0.1439
     40 H15         7.3032   -7.0226    2.0071 H         1 <0>         0.1505
     41 H16         7.6458   -7.5104    4.3965 H         1 <0>         0.1524
     42 H17         3.5503   -6.6048    5.1684 H         1 <0>         0.1477
     43 H18         2.8354   -4.2326    3.6463 H         1 <0>         0.4332
@<TRIPOS>BOND
     1    1    2 1
     2    1   26 1
     3    1   27 1
     4    1   28 1
     5    2    3 1
     6    3    8 ar
     7    3    4 ar
     8    4    5 ar
     9    4   29 1
    10    5    6 ar
    11    5   30 1
    12    6    7 ar
    13    6   31 1
    14    7    8 ar
    15    7    9 1
    16    8   32 1
    17    9   10 1
    18    9   14 1
    19    9   33 1
    20   10   11 2
    21   10   12 am
    22   12   13 1
    23   12   34 1
    24   13   35 1
    25   14   15 1
    26   14   36 1
    27   14   43 1
    28   15   16 1
    29   15   37 1
    30   15   38 1
    31   16   21 ar
    32   16   17 ar
    33   17   18 ar
    34   17   39 1
    35   18   19 ar
    36   18   40 1
    37   19   20 ar
    38   19   41 1
    39   20   21 ar
    40   20   22 1
    41   21   42 1
    42   22   23 1
    43   22   24 1
    44   22   25 1
@<TRIPOS>MOLECULE
CHEMBL29911__2
   42    43     0     0     0
SMALL
USER_CHARGES

@<TRIPOS>ATOM
      1 C1         -0.0173    1.4248    0.0099 C.3       1 <0>         0.0263
      2 O1          0.0021   -0.0041    0.0020 O.3       1 <0>        -0.3170
      3 C2         -1.2003   -0.6375    0.0101 C.ar      1 <0>         0.1302
      4 C3         -2.3748    0.1012    0.0195 C.ar      1 <0>        -0.2008
      5 C4         -3.5956   -0.5449    0.0272 C.ar      1 <0>        -0.0754
      6 C5         -3.6478   -1.9268    0.0256 C.ar      1 <0>        -0.1243
      7 C6         -2.4790   -2.6650    0.0167 C.ar      1 <0>        -0.0433
      8 C7         -1.2554   -2.0235    0.0032 C.ar      1 <0>        -0.1481
      9 C8         -2.5396   -4.1708    0.0155 C.3       1 <0>         0.1255
     10 C9         -2.7967   -4.6644    1.4160 C.2       1 <0>         0.5034
     11 O2         -3.7870   -5.3225    1.6548 O.2       1 <0>        -0.5187
     12 N1         -1.9261   -4.3744    2.4031 N.am      1 <0>        -0.5873
     13 O3         -2.1676   -4.8381    3.7190 O.3       1 <0>        -0.3189
     14 N2         -3.6256   -4.6165   -0.8678 N.3       1 <0>        -0.6461
     15 C10        -3.3737   -5.9746   -1.3678 C.3       1 <0>         0.0919
     16 C11        -4.5061   -6.3965   -2.2682 C.ar      1 <0>        -0.0860
     17 C12        -5.6086   -7.0398   -1.7371 C.ar      1 <0>        -0.0757
     18 C13        -6.6472   -7.4267   -2.5629 C.ar      1 <0>        -0.1197
     19 C14        -6.5838   -7.1700   -3.9200 C.ar      1 <0>        -0.0696
     20 C15        -5.4820   -6.5260   -4.4507 C.ar      1 <0>        -0.1851
     21 C16        -4.4450   -6.1352   -3.6240 C.ar      1 <0>        -0.0454
     22 C17        -5.4127   -6.2466   -5.9300 C.3       1 <0>         0.5084
     23 F1         -6.5703   -6.7286   -6.5504 F         1 <0>        -0.1774
     24 F2         -5.3110   -4.8672   -6.1397 F         1 <0>        -0.1753
     25 F3         -4.2924   -6.8847   -6.4731 F         1 <0>        -0.1766
     26 H1          1.0053    1.8021    0.0021 H         1 <0>         0.1022
     27 H2         -0.5445    1.7859   -0.8732 H         1 <0>         0.0573
     28 H3         -0.5275    1.7763    0.9067 H         1 <0>         0.0565
     29 H4         -2.3345    1.1804    0.0211 H         1 <0>         0.1300
     30 H5         -4.5101    0.0296    0.0349 H         1 <0>         0.1288
     31 H6         -4.6033   -2.4302    0.0316 H         1 <0>         0.1258
     32 H7         -0.3426   -2.6006   -0.0083 H         1 <0>         0.1331
     33 H8         -1.5918   -4.5723   -0.3430 H         1 <0>         0.1229
     34 H9         -1.1341   -3.8480    2.2121 H         1 <0>         0.4098
     35 H10        -1.4888   -4.5804    4.3577 H         1 <0>         0.3892
     36 H11        -4.5176   -4.5632   -0.3993 H         1 <0>         0.3594
     37 H12        -2.4392   -5.9878   -1.9287 H         1 <0>         0.0894
     38 H13        -3.3023   -6.6640   -0.5265 H         1 <0>         0.0563
     39 H14        -5.6582   -7.2403   -0.6771 H         1 <0>         0.1337
     40 H15        -7.5081   -7.9299   -2.1482 H         1 <0>         0.1364
     41 H16        -7.3950   -7.4729   -4.5654 H         1 <0>         0.1386
     42 H17        -3.5858   -5.6286   -4.0382 H         1 <0>         0.1356
@<TRIPOS>BOND
     1    1    2 1
     2    1   26 1
     3    1   27 1
     4    1   28 1
     5    2    3 1
     6    3    8 ar
     7    3    4 ar
     8    4    5 ar
     9    4   29 1
    10    5    6 ar
    11    5   30 1
    12    6    7 ar
    13    6   31 1
    14    7    8 ar
    15    7    9 1
    16    8   32 1
    17    9   10 1
    18    9   14 1
    19    9   33 1
    20   10   11 2
    21   10   12 am
    22   12   13 1
    23   12   34 1
    24   13   35 1
    25   14   15 1
    26   14   36 1
    27   15   16 1
    28   15   37 1
    29   15   38 1
    30   16   21 ar
    31   16   17 ar
    32   17   18 ar
    33   17   39 1
    34   18   19 ar
    35   18   40 1
    36   19   20 ar
    37   19   41 1
    38   20   21 ar
    39   20   22 1
    40   21   42 1
    41   22   23 1
    42   22   24 1
    43   22   25 1
@<TRIPOS>MOLECULE
CHEMBL29911__3
   43    44     0     0     0
SMALL
USER_CHARGES

@<TRIPOS>ATOM
      1 C1         -0.0173    1.4248    0.0099 C.3       1 <0>         0.0205
      2 O1          0.0021   -0.0041    0.0020 O.3       1 <0>        -0.3079
      3 C2          0.6258   -0.6184    1.0415 C.ar      1 <0>         0.1499
      4 C3          1.2023    0.1385    2.0514 C.ar      1 <0>        -0.1758
      5 C4          1.8353   -0.4882    3.1070 C.ar      1 <0>        -0.0558
      6 C5          1.8947   -1.8689    3.1579 C.ar      1 <0>        -0.1515
      7 C6          1.3214   -2.6252    2.1527 C.ar      1 <0>        -0.1181
      8 C7          0.6822   -2.0032    1.0975 C.ar      1 <0>        -0.1274
      9 C8          1.3885   -4.1296    2.2111 C.3       1 <0>         0.0759
     10 C9          2.7419   -4.5910    1.7353 C.2       1 <0>         0.5257
     11 O2          3.4601   -5.2288    2.4758 O.2       1 <0>        -0.5046
     12 N1          3.1542   -4.2949    0.4868 N.am      1 <0>        -0.5641
     13 O3          4.4259   -4.7284    0.0396 O.3       1 <0>        -0.2937
     14 N2          1.1776   -4.5759    3.5947 N.4       1 <0>        -0.4894
     15 C10         1.1235   -6.0434    3.6331 C.3       1 <0>         0.0302
     16 C11         0.9071   -6.5011    5.0525 C.ar      1 <0>        -0.1617
     17 C12         1.9927   -6.7449    5.8732 C.ar      1 <0>        -0.0556
     18 C13         1.7942   -7.1648    7.1750 C.ar      1 <0>        -0.1117
     19 C14         0.5102   -7.3405    7.6566 C.ar      1 <0>        -0.0366
     20 C15        -0.5750   -7.0959    6.8363 C.ar      1 <0>        -0.1771
     21 C16        -0.3766   -6.6718    5.5355 C.ar      1 <0>        -0.0445
     22 C17        -1.9746   -7.2879    7.3611 C.3       1 <0>         0.5069
     23 F1         -1.9191   -7.7139    8.6925 F         1 <0>        -0.1694
     24 F2         -2.6704   -6.0764    7.2877 F         1 <0>        -0.1734
     25 F3         -2.6335   -8.2516    6.5902 F         1 <0>        -0.1706
     26 H1          1.0053    1.8021    0.0021 H         1 <0>         0.0637
     27 H2         -0.5445    1.7859   -0.8732 H         1 <0>         0.1129
     28 H3         -0.5275    1.7763    0.9067 H         1 <0>         0.0640
     29 H4          1.1565    1.2168    2.0119 H         1 <0>         0.1450
     30 H5          2.2845    0.1005    3.8932 H         1 <0>         0.1437
     31 H6          2.3900   -2.3570    3.9842 H         1 <0>         0.1261
     32 H7          0.2306   -2.5946    0.3148 H         1 <0>         0.1473
     33 H8          0.6145   -4.5529    1.5708 H         1 <0>         0.1800
     34 H9          2.5798   -3.7848   -0.1055 H         1 <0>         0.4191
     35 H10         4.6332   -4.4686   -0.8684 H         1 <0>         0.4062
     36 H11         1.9389   -4.2521    4.1723 H         1 <0>         0.4331
     37 H12         0.3010   -6.3931    3.0091 H         1 <0>         0.1435
     38 H13         2.0624   -6.4514    3.2588 H         1 <0>         0.1618
     39 H14         2.9957   -6.6077    5.4971 H         1 <0>         0.1474
     40 H15         2.6422   -7.3559    7.8159 H         1 <0>         0.1510
     41 H16         0.3551   -7.6693    8.6736 H         1 <0>         0.1524
     42 H17        -1.2246   -6.4770    4.8957 H         1 <0>         0.1442
     43 H18         0.3084   -4.1981    3.9411 H         1 <0>         0.4388
@<TRIPOS>BOND
     1    1    2 1
     2    1   26 1
     3    1   27 1
     4    1   28 1
     5    2    3 1
     6    3    8 ar
     7    3    4 ar
     8    4    5 ar
     9    4   29 1
    10    5    6 ar
    11    5   30 1
    12    6    7 ar
    13    6   31 1
    14    7    8 ar
    15    7    9 1
    16    8   32 1
    17    9   10 1
    18    9   14 1
    19    9   33 1
    20   10   11 2
    21   10   12 am
    22   12   13 1
    23   12   34 1
    24   13   35 1
    25   14   15 1
    26   14   36 1
    27   14   43 1
    28   15   16 1
    29   15   37 1
    30   15   38 1
    31   16   21 ar
    32   16   17 ar
    33   17   18 ar
    34   17   39 1
    35   18   19 ar
    36   18   40 1
    37   19   20 ar
    38   19   41 1
    39   20   21 ar
    40   20   22 1
    41   21   42 1
    42   22   23 1
    43   22   24 1
    44   22   25 1
@<TRIPOS>MOLECULE
CHEMBL292202
   47    49     0     0     0
SMALL
USER_CHARGES

@<TRIPOS>ATOM
      1 C1          9.1208   -3.2974   -3.7513 C.ar      1 <0>        -0.1236
      2 C2          8.1217   -4.1588   -3.3381 C.ar      1 <0>        -0.1174
      3 C3          7.1511   -3.7197   -2.4572 C.ar      1 <0>        -0.1175
      4 C4          7.1799   -2.4193   -1.9891 C.ar      1 <0>        -0.0837
      5 C5          8.1795   -1.5582   -2.4016 C.ar      1 <0>        -0.1166
      6 C6          9.1492   -1.9969   -3.2837 C.ar      1 <0>        -0.1180
      7 C7          6.1212   -1.9403   -1.0295 C.3       1 <0>        -0.0796
      8 C8          6.5814   -2.1965    0.4070 C.3       1 <0>        -0.1431
      9 C9          5.5066   -1.7102    1.3812 C.3       1 <0>         0.1123
     10 N1          5.9472   -1.9554    2.7567 N.pl3     1 <0>        -0.9331
     11 C10         6.7467   -1.0222    3.4334 C.ar      1 <0>         0.2080
     12 C11         7.3474   -0.0327    2.6523 C.ar      1 <0>        -0.1485
     13 C12         8.1347    0.9372    3.2333 C.ar      1 <0>        -0.0696
     14 C13         8.3282    0.9295    4.6027 C.ar      1 <0>        -0.1319
     15 C14         7.7422   -0.0504    5.3761 C.ar      1 <0>         0.0076
     16 C15         6.9523   -1.0432    4.7983 C.ar      1 <0>        -0.1483
     17 C16         6.4017   -2.0859    5.7336 C.3       1 <0>         0.1575
     18 N2          5.2959   -2.8352    5.1309 N.pl3     1 <0>        -0.9791
     19 S1          5.5065   -3.3454    3.5593 S.o2      1 <0>         2.7762
     20 O1          6.6329   -4.2116    3.5498 O.2       1 <0>        -0.9474
     21 O2          4.2301   -3.7288    3.0664 O.2       1 <0>        -0.9581
     22 C17         4.0642   -3.1196    5.8714 C.3       1 <0>         0.1273
     23 C18         3.1245   -1.9475    5.7524 C.2       1 <0>         0.5005
     24 O3          3.4514   -0.9708    5.1120 O.2       1 <0>        -0.5004
     25 N3          1.9208   -1.9847    6.3575 N.am      1 <0>        -0.5951
     26 O4          1.0378   -0.8834    6.2457 O.3       1 <0>        -0.3161
     27 Cl1         7.9924   -0.0479    7.0939 Cl        1 <0>        -0.0568
     28 H1          9.8816   -3.6418   -4.4361 H         1 <0>         0.1213
     29 H2          8.0992   -5.1748   -3.7038 H         1 <0>         0.1221
     30 H3          6.3702   -4.3925   -2.1349 H         1 <0>         0.1216
     31 H4          8.2017   -0.5421   -2.0362 H         1 <0>         0.1214
     32 H5          9.9300   -1.3240   -3.6063 H         1 <0>         0.1219
     33 H6          5.9568   -0.8724   -1.1734 H         1 <0>         0.0791
     34 H7          5.1921   -2.4792   -1.2150 H         1 <0>         0.0785
     35 H8          6.7458   -3.2643    0.5508 H         1 <0>         0.0701
     36 H9          7.5105   -1.6575    0.5924 H         1 <0>         0.0805
     37 H10         5.3421   -0.6423    1.2373 H         1 <0>         0.0973
     38 H11         4.5774   -2.2491    1.1958 H         1 <0>         0.1019
     39 H12         7.1937   -0.0279    1.5833 H         1 <0>         0.1404
     40 H13         8.5982    1.6985    2.6232 H         1 <0>         0.1408
     41 H14         8.9384    1.6905    5.0662 H         1 <0>         0.1401
     42 H15         7.1985   -2.7812    5.9979 H         1 <0>         0.0988
     43 H16         6.0456   -1.5963    6.6401 H         1 <0>         0.1096
     44 H17         3.5892   -4.0095    5.4584 H         1 <0>         0.1238
     45 H18         4.3025   -3.2891    6.9214 H         1 <0>         0.1273
     46 H19         1.6594   -2.7659    6.8697 H         1 <0>         0.4092
     47 H20         0.1996   -1.0023    6.7129 H         1 <0>         0.3888
@<TRIPOS>BOND
     1    1    6 ar
     2    1    2 ar
     3    1   28 1
     4    2    3 ar
     5    2   29 1
     6    3    4 ar
     7    3   30 1
     8    4    5 ar
     9    4    7 1
    10    5    6 ar
    11    5   31 1
    12    6   32 1
    13    7    8 1
    14    7   33 1
    15    7   34 1
    16    8    9 1
    17    8   35 1
    18    8   36 1
    19    9   10 1
    20    9   37 1
    21    9   38 1
    22   10   19 1
    23   10   11 1
    24   11   16 ar
    25   11   12 ar
    26   12   13 ar
    27   12   39 1
    28   13   14 ar
    29   13   40 1
    30   14   15 ar
    31   14   41 1
    32   15   16 ar
    33   15   27 1
    34   16   17 1
    35   17   18 1
    36   17   42 1
    37   17   43 1
    38   18   19 1
    39   18   22 1
    40   19   20 2
    41   19   21 2
    42   22   23 1
    43   22   44 1
    44   22   45 1
    45   23   24 2
    46   23   25 am
    47   25   26 1
    48   25   46 1
    49   26   47 1
@<TRIPOS>MOLECULE
CHEMBL156187
   81    83     0     0     0
SMALL
USER_CHARGES

@<TRIPOS>ATOM
      1 C1         -0.6800    1.7461   -1.0086 C.3       1 <0>        -0.1533
      2 C2         -0.5623    0.2626   -0.6533 C.3       1 <0>        -0.0673
      3 C3         -0.2634    0.1180    0.8402 C.3       1 <0>        -0.1485
      4 C4         -1.8779   -0.4463   -0.9811 C.3       1 <0>        -0.1339
      5 C5          0.5723   -0.3675   -1.4638 C.3       1 <0>         0.1162
      6 H1          0.3067   -0.3682   -2.5209 H         1 <0>         0.1121
      7 C6          1.8354    0.4297   -1.2636 C.2       1 <0>         0.3981
      8 O1          1.9106    1.2287   -0.3539 O.2       1 <0>        -0.4375
      9 C7          2.9744    0.2395   -2.1692 C.ar      1 <0>        -0.2442
     10 C8          2.8504   -0.5943   -3.2884 C.ar      1 <0>        -0.0116
     11 C9          3.9126   -0.7681   -4.1287 C.ar      1 <0>        -0.2178
     12 C10         5.1182   -0.1179   -3.8745 C.ar      1 <0>         0.2627
     13 C11         5.2458    0.7120   -2.7628 C.ar      1 <0>        -0.2181
     14 C12         4.1871    0.8956   -1.9203 C.ar      1 <0>        -0.0006
     15 N1          6.1961   -0.2980   -4.7316 N.pl3     1 <0>        -0.6160
     16 C13         7.5179    0.2612   -4.4100 C.3       1 <0>         0.1204
     17 C14         8.5616   -0.8539   -4.5347 C.3       1 <0>         0.0402
     18 N2          8.4556   -1.4732   -5.8625 N.3       1 <0>        -0.5274
     19 C15         7.1478   -2.1161   -6.0477 C.3       1 <0>         0.0360
     20 C16         6.0476   -1.0580   -5.9821 C.3       1 <0>         0.1204
     21 C17         9.5484   -2.4289   -6.0864 C.3       1 <0>         0.0541
     22 C18         9.5529   -2.8641   -7.5532 C.3       1 <0>         0.0789
     23 O2          9.8572   -1.7408   -8.3824 O.3       1 <0>        -0.5593
     24 N3          0.7876   -1.7448   -1.0135 N.am      1 <0>        -0.7140
     25 C19         0.0416   -2.7449   -1.5233 C.2       1 <0>         0.5247
     26 O3         -0.8079   -2.5045   -2.3548 O.2       1 <0>        -0.5117
     27 C20         0.2631   -4.1617   -1.0601 C.3       1 <0>        -0.1318
     28 H2          1.2883   -4.4597   -1.2796 H         1 <0>         0.1048
     29 C21        -0.7063   -5.0941   -1.7894 C.3       1 <0>        -0.0874
     30 C22        -0.2732   -6.5463   -1.5784 C.3       1 <0>        -0.1136
     31 C23         1.0485   -6.8176   -2.3264 C.3       1 <0>        -0.1211
     32 C24         0.8935   -8.2637   -2.8591 C.3       1 <0>        -0.1244
     33 C25        -0.5995   -8.3193   -3.2677 C.3       1 <0>        -0.1252
     34 C26        -1.3210   -7.5011   -2.1769 C.3       1 <0>        -0.1168
     35 C27         0.0182   -4.2496    0.4476 C.3       1 <0>         0.1434
     36 N4          0.4118   -5.5757    0.9299 N.am      1 <0>        -0.4698
     37 C28         1.7098   -5.9386    0.9199 C.2       1 <0>         0.4777
     38 O4          2.0356   -7.0365    1.3191 O.2       1 <0>        -0.5425
     39 O5         -0.5715   -6.4764    1.4064 O.3       1 <0>        -0.3274
     40 H3          0.2166    2.2709   -0.6789 H         1 <0>         0.0742
     41 H4         -0.7878    1.8537   -2.0879 H         1 <0>         0.0514
     42 H5         -1.5527    2.1704   -0.5122 H         1 <0>         0.0592
     43 H6         -1.1390    0.4169    1.4165 H         1 <0>         0.0531
     44 H7         -0.0190   -0.9206    1.0630 H         1 <0>         0.0473
     45 H8          0.5806    0.7548    1.1052 H         1 <0>         0.0778
     46 H9         -2.0908   -0.3434   -2.0452 H         1 <0>         0.0592
     47 H10        -1.7940   -1.5032   -0.7280 H         1 <0>         0.0569
     48 H11        -2.6862    0.0025   -0.4038 H         1 <0>         0.0500
     49 H12         1.9163   -1.0990   -3.4860 H         1 <0>         0.1267
     50 H13         3.8180   -1.4109   -4.9915 H         1 <0>         0.1278
     51 H14         6.1823    1.2138   -2.5693 H         1 <0>         0.1288
     52 H15         4.2855    1.5426   -1.0612 H         1 <0>         0.1322
     53 H16         7.7553    1.0645   -5.1074 H         1 <0>         0.0769
     54 H17         7.5141    0.6468   -3.3905 H         1 <0>         0.0903
     55 H18         9.5595   -0.4340   -4.4078 H         1 <0>         0.0893
     56 H19         8.3831   -1.6067   -3.7669 H         1 <0>         0.0387
     57 H20         7.1202   -2.6116   -7.0182 H         1 <0>         0.0890
     58 H21         6.9889   -2.8513   -5.2589 H         1 <0>         0.0380
     59 H22         5.0722   -1.5441   -6.0014 H         1 <0>         0.0898
     60 H23         6.1409   -0.3839   -6.8335 H         1 <0>         0.0766
     61 H24        10.5002   -1.9557   -5.8450 H         1 <0>         0.0856
     62 H25         9.4045   -3.3014   -5.4491 H         1 <0>         0.0490
     63 H26        10.3056   -3.6387   -7.7002 H         1 <0>         0.0501
     64 H27         8.5712   -3.2564   -7.8188 H         1 <0>         0.0455
     65 H28         9.8771   -1.9436   -9.3277 H         1 <0>         0.3767
     66 H29         1.4670   -1.9371   -0.3484 H         1 <0>         0.4018
     67 H30        -1.7122   -4.9539   -1.3938 H         1 <0>         0.0708
     68 H31        -0.6994   -4.8641   -2.8548 H         1 <0>         0.0772
     69 H32        -0.1490   -6.7478   -0.5144 H         1 <0>         0.0982
     70 H33         1.1696   -6.1175   -3.1530 H         1 <0>         0.0648
     71 H34         1.8945   -6.7517   -1.6423 H         1 <0>         0.0553
     72 H35         1.5369   -8.4280   -3.7235 H         1 <0>         0.0631
     73 H36         1.1065   -8.9894   -2.0742 H         1 <0>         0.0650
     74 H37        -0.7445   -7.8617   -4.2463 H         1 <0>         0.0636
     75 H38        -0.9561   -9.3493   -3.2705 H         1 <0>         0.0622
     76 H39        -1.7047   -8.1665   -1.4035 H         1 <0>         0.0609
     77 H40        -2.1380   -6.9299   -2.6177 H         1 <0>         0.0631
     78 H41         0.6088   -3.4878    0.9566 H         1 <0>         0.0907
     79 H42        -1.0397   -4.0871    0.6540 H         1 <0>         0.1075
     80 H43         2.4597   -5.2516    0.5565 H         1 <0>         0.1490
     81 H44        -0.2164   -7.3256    1.7029 H         1 <0>         0.3980
@<TRIPOS>BOND
     1    1    2 1
     2    1   40 1
     3    1   41 1
     4    1   42 1
     5    2    3 1
     6    2    4 1
     7    2    5 1
     8    3   43 1
     9    3   44 1
    10    3   45 1
    11    4   46 1
    12    4   47 1
    13    4   48 1
    14    5    6 1
    15    5    7 1
    16    5   24 1
    17    7    8 2
    18    7    9 1
    19    9   14 ar
    20    9   10 ar
    21   10   11 ar
    22   10   49 1
    23   11   12 ar
    24   11   50 1
    25   12   13 ar
    26   12   15 1
    27   13   14 ar
    28   13   51 1
    29   14   52 1
    30   15   20 1
    31   15   16 1
    32   16   17 1
    33   16   53 1
    34   16   54 1
    35   17   18 1
    36   17   55 1
    37   17   56 1
    38   18   19 1
    39   18   21 1
    40   19   20 1
    41   19   57 1
    42   19   58 1
    43   20   59 1
    44   20   60 1
    45   21   22 1
    46   21   61 1
    47   21   62 1
    48   22   23 1
    49   22   63 1
    50   22   64 1
    51   23   65 1
    52   24   25 am
    53   24   66 1
    54   25   26 2
    55   25   27 1
    56   27   28 1
    57   27   29 1
    58   27   35 1
    59   29   30 1
    60   29   67 1
    61   29   68 1
    62   30   34 1
    63   30   31 1
    64   30   69 1
    65   31   32 1
    66   31   70 1
    67   31   71 1
    68   32   33 1
    69   32   72 1
    70   32   73 1
    71   33   34 1
    72   33   74 1
    73   33   75 1
    74   34   76 1
    75   34   77 1
    76   35   36 1
    77   35   78 1
    78   35   79 1
    79   36   37 am
    80   36   39 1
    81   37   38 2
    82   37   80 1
    83   39   81 1
@<TRIPOS>MOLECULE
CHEMBL156187__1
   82    84     0     0     0
SMALL
USER_CHARGES

@<TRIPOS>ATOM
      1 C1         -0.6664    1.7452   -1.0117 C.3       1 <0>        -0.1542
      2 C2         -0.5666    0.2621   -0.6492 C.3       1 <0>        -0.0679
      3 C3         -0.2704    0.1212    0.8452 C.3       1 <0>        -0.1499
      4 C4         -1.8904   -0.4326   -0.9745 C.3       1 <0>        -0.1352
      5 C5          0.5608   -0.3853   -1.4559 C.3       1 <0>         0.1169
      6 H1          0.2960   -0.3877   -2.5132 H         1 <0>         0.1132
      7 C6          1.8333    0.3977   -1.2585 C.2       1 <0>         0.3925
      8 O1          1.9177    1.1995   -0.3522 O.2       1 <0>        -0.4214
      9 C7          2.9703    0.1901   -2.1629 C.ar      1 <0>        -0.2124
     10 C8          2.8369   -0.6468   -3.2786 C.ar      1 <0>        -0.0157
     11 C9          3.8972   -0.8368   -4.1177 C.ar      1 <0>        -0.2012
     12 C10         5.1103   -0.2000   -3.8657 C.ar      1 <0>         0.2365
     13 C11         5.2474    0.6330   -2.7575 C.ar      1 <0>        -0.2007
     14 C12         4.1906    0.8327   -1.9162 C.ar      1 <0>        -0.0060
     15 N1          6.1864   -0.3964   -4.7216 N.pl3     1 <0>        -0.6367
     16 C13         7.5150    0.1495   -4.4040 C.3       1 <0>         0.0955
     17 C14         8.5474   -0.9743   -4.5415 C.3       1 <0>        -0.0221
     18 N2          8.4421   -1.5736   -5.8779 N.4       1 <0>        -0.3817
     19 C15         7.1325   -2.2189   -6.0348 C.3       1 <0>        -0.0276
     20 C16         6.0313   -1.1615   -5.9685 C.3       1 <0>         0.0957
     21 C17         9.5031   -2.5752   -6.0484 C.3       1 <0>        -0.0054
     22 C18         9.4731   -3.1109   -7.4812 C.3       1 <0>         0.0445
     23 O2          9.7980   -2.0576   -8.3906 O.3       1 <0>        -0.5805
     24 N3          0.7593   -1.7630   -0.9990 N.am      1 <0>        -0.7169
     25 C19         0.0018   -2.7564   -1.5047 C.2       1 <0>         0.5241
     26 O3         -0.8442   -2.5098   -2.3380 O.2       1 <0>        -0.5079
     27 C20         0.2059   -4.1736   -1.0347 C.3       1 <0>        -0.1299
     28 H2          1.2277   -4.4848   -1.2521 H         1 <0>         0.1033
     29 C21        -0.7740   -5.0977   -1.7604 C.3       1 <0>        -0.0884
     30 C22        -0.3581   -6.5540   -1.5428 C.3       1 <0>        -0.1138
     31 C23         0.9600   -6.8443   -2.2898 C.3       1 <0>        -0.1191
     32 C24         0.7878   -8.2909   -2.8158 C.3       1 <0>        -0.1246
     33 C25        -0.7059   -8.3307   -3.2239 C.3       1 <0>        -0.1256
     34 C26        -1.4173   -7.4990   -2.1367 C.3       1 <0>        -0.1180
     35 C27        -0.0410   -4.2514    0.4732 C.3       1 <0>         0.1424
     36 N4          0.3369   -5.5798    0.9620 N.am      1 <0>        -0.4700
     37 C28         1.6306   -5.9575    0.9552 C.2       1 <0>         0.4768
     38 O4          1.9434   -7.0572    1.3598 O.2       1 <0>        -0.5404
     39 O5         -0.6572   -6.4669    1.4416 O.3       1 <0>        -0.3251
     40 H3          0.2360    2.2610   -0.6837 H         1 <0>         0.0722
     41 H4         -0.7720    1.8490   -2.0916 H         1 <0>         0.0517
     42 H5         -1.5345    2.1822   -0.5181 H         1 <0>         0.0628
     43 H6         -1.1428    0.4330    1.4195 H         1 <0>         0.0567
     44 H7         -0.0383   -0.9192    1.0730 H         1 <0>         0.0482
     45 H8          0.5809    0.7493    1.1077 H         1 <0>         0.0764
     46 H9         -2.1014   -0.3322   -2.0392 H         1 <0>         0.0598
     47 H10        -1.8192   -1.4892   -0.7163 H         1 <0>         0.0574
     48 H11        -2.6936    0.0286   -0.3999 H         1 <0>         0.0532
     49 H12         1.8968   -1.1411   -3.4745 H         1 <0>         0.1351
     50 H13         3.7953   -1.4820   -4.9778 H         1 <0>         0.1296
     51 H14         6.1898    1.1244   -2.5656 H         1 <0>         0.1308
     52 H15         4.2964    1.4821   -1.0597 H         1 <0>         0.1399
     53 H16         7.7556    0.9548   -5.0980 H         1 <0>         0.0927
     54 H17         7.5204    0.5288   -3.3821 H         1 <0>         0.1301
     55 H18         9.5489   -0.5667   -4.4039 H         1 <0>         0.1435
     56 H19         8.3581   -1.7364   -3.7855 H         1 <0>         0.1338
     57 H20         7.0914   -2.7283   -6.9975 H         1 <0>         0.1415
     58 H21         6.9860   -2.9433   -5.2336 H         1 <0>         0.1340
     59 H22         5.0562   -1.6486   -5.9804 H         1 <0>         0.1297
     60 H23         6.1195   -0.4908   -6.8231 H         1 <0>         0.0924
     61 H24        10.4718   -2.1153   -5.8527 H         1 <0>         0.1402
     62 H25         9.3431   -3.3965   -5.3500 H         1 <0>         0.1424
     63 H26        10.2006   -3.9163   -7.5833 H         1 <0>         0.0968
     64 H27         8.4766   -3.4908   -7.7063 H         1 <0>         0.0717
     65 H28         9.7980   -2.3260   -9.3196 H         1 <0>         0.4105
     66 H29         1.4360   -1.9602   -0.3326 H         1 <0>         0.4017
     67 H30        -1.7784   -4.9439   -1.3659 H         1 <0>         0.0725
     68 H31        -0.7640   -4.8725   -2.8268 H         1 <0>         0.0767
     69 H32        -0.2361   -6.7520   -0.4779 H         1 <0>         0.0990
     70 H33         1.0893   -6.1495   -3.1196 H         1 <0>         0.0623
     71 H34         1.8069   -6.7853   -1.6061 H         1 <0>         0.0541
     72 H35         1.4290   -8.4668   -3.6795 H         1 <0>         0.0620
     73 H36         0.9923   -9.0155   -2.0276 H         1 <0>         0.0662
     74 H37        -0.8456   -7.8759   -4.2046 H         1 <0>         0.0632
     75 H38        -1.0747   -9.3564   -3.2219 H         1 <0>         0.0640
     76 H39        -1.8087   -8.1562   -1.3603 H         1 <0>         0.0627
     77 H40        -2.2276   -6.9202   -2.5800 H         1 <0>         0.0639
     78 H41         0.5580   -3.4942    0.9790 H         1 <0>         0.0901
     79 H42        -1.0971   -4.0758    0.6780 H         1 <0>         0.1088
     80 H43         2.3888   -5.2809    0.5894 H         1 <0>         0.1462
     81 H44        -0.3121   -7.3187    1.7424 H         1 <0>         0.3995
     82 H45         8.5470   -0.8538   -6.5771 H         1 <0>         0.4309
@<TRIPOS>BOND
     1    1    2 1
     2    1   40 1
     3    1   41 1
     4    1   42 1
     5    2    3 1
     6    2    4 1
     7    2    5 1
     8    3   43 1
     9    3   44 1
    10    3   45 1
    11    4   46 1
    12    4   47 1
    13    4   48 1
    14    5    6 1
    15    5    7 1
    16    5   24 1
    17    7    8 2
    18    7    9 1
    19    9   14 ar
    20    9   10 ar
    21   10   11 ar
    22   10   49 1
    23   11   12 ar
    24   11   50 1
    25   12   13 ar
    26   12   15 1
    27   13   14 ar
    28   13   51 1
    29   14   52 1
    30   15   20 1
    31   15   16 1
    32   16   17 1
    33   16   53 1
    34   16   54 1
    35   17   18 1
    36   17   55 1
    37   17   56 1
    38   18   19 1
    39   18   21 1
    40   18   82 1
    41   19   20 1
    42   19   57 1
    43   19   58 1
    44   20   59 1
    45   20   60 1
    46   21   22 1
    47   21   61 1
    48   21   62 1
    49   22   23 1
    50   22   63 1
    51   22   64 1
    52   23   65 1
    53   24   25 am
    54   24   66 1
    55   25   26 2
    56   25   27 1
    57   27   28 1
    58   27   29 1
    59   27   35 1
    60   29   30 1
    61   29   67 1
    62   29   68 1
    63   30   34 1
    64   30   31 1
    65   30   69 1
    66   31   32 1
    67   31   70 1
    68   31   71 1
    69   32   33 1
    70   32   72 1
    71   32   73 1
    72   33   34 1
    73   33   74 1
    74   33   75 1
    75   34   76 1
    76   34   77 1
    77   35   36 1
    78   35   78 1
    79   35   79 1
    80   36   37 am
    81   36   39 1
    82   37   38 2
    83   37   80 1
    84   39   81 1
@<TRIPOS>MOLECULE
CHEMBL38016
   41    43     0     0     0
SMALL
USER_CHARGES

@<TRIPOS>ATOM
      1 C1         -0.0166    1.3765    0.0096 C.ar      1 <0>        -0.0817
      2 C2          1.1657    2.0938    0.0022 C.ar      1 <0>        -0.1263
      3 C3          2.3766    1.4260   -0.0083 C.ar      1 <0>        -0.0559
      4 C4          2.4008    0.0412   -0.0145 C.ar      1 <0>        -0.1446
      5 C5          1.2131   -0.6895   -0.0146 C.ar      1 <0>         0.1602
      6 C6          0.0021   -0.0041    0.0020 C.ar      1 <0>        -0.1450
      7 N1          1.2051   -2.0808   -0.0439 N.am      1 <0>        -0.5389
      8 C7          2.2206   -2.8734   -0.3704 C.2       1 <0>         0.5255
      9 O1          2.0829   -4.0713   -0.2383 O.2       1 <0>        -0.4957
     10 C8          3.5343   -2.3571   -0.8971 C.3       1 <0>        -0.0824
     11 S1          3.9432   -0.8187   -0.0170 S.3       1 <0>        -0.0429
     12 C9          3.4123   -2.0752   -2.3959 C.3       1 <0>        -0.1190
     13 C10         4.7586   -1.6767   -2.9433 C.2       1 <0>         0.5316
     14 O2          5.7210   -1.6233   -2.2071 O.2       1 <0>        -0.4979
     15 N2          4.8933   -1.3795   -4.2510 N.am      1 <0>        -0.5962
     16 O3          6.1583   -1.0051   -4.7653 O.3       1 <0>        -0.3132
     17 C11        -0.0512   -2.7391    0.3232 C.3       1 <0>         0.0963
     18 C12        -0.9082   -2.9368   -0.9288 C.3       1 <0>        -0.1495
     19 C13        -2.2202   -3.6242   -0.5454 C.3       1 <0>         0.2368
     20 O4         -1.9485   -4.9549   -0.0744 O.3       1 <0>        -0.3725
     21 C14        -3.0622   -5.7498   -0.5478 C.3       1 <0>         0.0158
     22 C15        -3.3471   -5.1029   -1.9263 C.3       1 <0>         0.0206
     23 O5         -3.0745   -3.7062   -1.6938 O.3       1 <0>        -0.3829
     24 H1         -0.9612    1.8998    0.0260 H         1 <0>         0.1334
     25 H2          1.1434    3.1736    0.0042 H         1 <0>         0.1341
     26 H3          3.3017    1.9833   -0.0113 H         1 <0>         0.1373
     27 H4         -0.9272   -0.5544    0.0094 H         1 <0>         0.1353
     28 H5          4.3152   -3.0973   -0.7228 H         1 <0>         0.1615
     29 H6          3.0634   -2.9724   -2.9071 H         1 <0>         0.1171
     30 H7          2.7006   -1.2654   -2.5566 H         1 <0>         0.1066
     31 H8          4.1237   -1.4222   -4.8398 H         1 <0>         0.4082
     32 H9          6.1560   -0.8110   -5.7127 H         1 <0>         0.3892
     33 H10         0.1644   -3.7084    0.7727 H         1 <0>         0.1110
     34 H11        -0.5909   -2.1187    1.0387 H         1 <0>         0.0923
     35 H12        -1.1237   -1.9675   -1.3783 H         1 <0>         0.0901
     36 H13        -0.3685   -3.5572   -1.6443 H         1 <0>         0.0813
     37 H14        -2.7163   -3.0542    0.2402 H         1 <0>         0.0886
     38 H15        -2.7758   -6.7956   -0.6592 H         1 <0>         0.1118
     39 H16        -3.9219   -5.6507    0.1149 H         1 <0>         0.0792
     40 H17        -2.6770   -5.5049   -2.6863 H         1 <0>         0.0775
     41 H18        -4.3885   -5.2497   -2.2128 H         1 <0>         0.1036
@<TRIPOS>BOND
     1    1    6 ar
     2    1    2 ar
     3    1   24 1
     4    2    3 ar
     5    2   25 1
     6    3    4 ar
     7    3   26 1
     8    4   11 1
     9    4    5 ar
    10    5    6 ar
    11    5    7 1
    12    6   27 1
    13    7    8 am
    14    7   17 1
    15    8    9 2
    16    8   10 1
    17   10   11 1
    18   10   12 1
    19   10   28 1
    20   12   13 1
    21   12   29 1
    22   12   30 1
    23   13   14 2
    24   13   15 am
    25   15   16 1
    26   15   31 1
    27   16   32 1
    28   17   18 1
    29   17   33 1
    30   17   34 1
    31   18   19 1
    32   18   35 1
    33   18   36 1
    34   19   23 1
    35   19   20 1
    36   19   37 1
    37   20   21 1
    38   21   22 1
    39   21   38 1
    40   21   39 1
    41   22   23 1
    42   22   40 1
    43   22   41 1
@<TRIPOS>MOLECULE
CHEMBL38016__1
   41    43     0     0     0
SMALL
USER_CHARGES

@<TRIPOS>ATOM
      1 C1         -0.0338    1.3694    0.0848 C.ar      1 <0>        -0.0825
      2 C2          1.1448    2.0929    0.0794 C.ar      1 <0>        -0.1259
      3 C3          2.3587    1.4319    0.0358 C.ar      1 <0>        -0.0573
      4 C4          2.3897    0.0476    0.0010 C.ar      1 <0>        -0.1441
      5 C5          1.2060   -0.6894    0.0137 C.ar      1 <0>         0.1589
      6 C6         -0.0083   -0.0107    0.0516 C.ar      1 <0>        -0.1422
      7 N1          1.2055   -2.0811    0.0027 N.am      1 <0>        -0.5382
      8 C7          2.2338   -2.8770    0.2769 C.2       1 <0>         0.5262
      9 O1          2.0984   -4.0712    0.1132 O.2       1 <0>        -0.5002
     10 C8          3.5596   -2.3688    0.7807 C.3       1 <0>        -0.0826
     11 S1          3.9357   -0.8033   -0.0656 S.3       1 <0>        -0.0432
     12 C9          3.4793   -2.1311    2.2899 C.3       1 <0>        -0.1192
     13 C10         4.8389   -1.7410    2.8100 C.2       1 <0>         0.5316
     14 O2          5.7794   -1.6610    2.0485 O.2       1 <0>        -0.4979
     15 N2          5.0096   -1.4811    4.1214 N.am      1 <0>        -0.5962
     16 O3          6.2871   -1.1146    4.6101 O.3       1 <0>        -0.3132
     17 C11        -0.0576   -2.7355   -0.3473 C.3       1 <0>         0.0970
     18 C12        -0.8354   -3.0592    0.9299 C.3       1 <0>        -0.1477
     19 C13        -2.1545   -3.7426    0.5643 C.3       1 <0>         0.2374
     20 O4         -2.9940   -2.8208   -0.1513 O.3       1 <0>        -0.3783
     21 C14        -4.3394   -3.1296    0.2855 C.3       1 <0>         0.0168
     22 C15        -4.1120   -3.4882    1.7754 C.3       1 <0>         0.0197
     23 O5         -2.8322   -4.1522    1.7595 O.3       1 <0>        -0.3815
     24 H1         -0.9808    1.8874    0.1197 H         1 <0>         0.1327
     25 H2          1.1173    3.1721    0.1087 H         1 <0>         0.1338
     26 H3          3.2808    1.9940    0.0286 H         1 <0>         0.1371
     27 H4         -0.9346   -0.5658    0.0554 H         1 <0>         0.1391
     28 H5          4.3387   -3.0993    0.5627 H         1 <0>         0.1617
     29 H6          2.7686   -1.3304    2.4944 H         1 <0>         0.1065
     30 H7          3.1495   -3.0447    2.7846 H         1 <0>         0.1175
     31 H8          4.2574   -1.5451    4.7305 H         1 <0>         0.4083
     32 H9          6.3110   -0.9480    5.5623 H         1 <0>         0.3892
     33 H10        -0.6502   -2.0696   -0.9746 H         1 <0>         0.1010
     34 H11         0.1493   -3.6577   -0.8903 H         1 <0>         0.1014
     35 H12        -0.2428   -3.7251    1.5572 H         1 <0>         0.0905
     36 H13        -1.0422   -2.1370    1.4729 H         1 <0>         0.0807
     37 H14        -1.9549   -4.6134   -0.0603 H         1 <0>         0.0909
     38 H15        -4.9903   -2.2607    0.1883 H         1 <0>         0.1120
     39 H16        -4.7423   -3.9806   -0.2636 H         1 <0>         0.0796
     40 H17        -4.0707   -2.5867    2.3866 H         1 <0>         0.0775
     41 H18        -4.8910   -4.1618    2.1326 H         1 <0>         0.1033
@<TRIPOS>BOND
     1    1    6 ar
     2    1    2 ar
     3    1   24 1
     4    2    3 ar
     5    2   25 1
     6    3    4 ar
     7    3   26 1
     8    4   11 1
     9    4    5 ar
    10    5    6 ar
    11    5    7 1
    12    6   27 1
    13    7    8 am
    14    7   17 1
    15    8    9 2
    16    8   10 1
    17   10   11 1
    18   10   12 1
    19   10   28 1
    20   12   13 1
    21   12   29 1
    22   12   30 1
    23   13   14 2
    24   13   15 am
    25   15   16 1
    26   15   31 1
    27   16   32 1
    28   17   18 1
    29   17   33 1
    30   17   34 1
    31   18   19 1
    32   18   35 1
    33   18   36 1
    34   19   23 1
    35   19   20 1
    36   19   37 1
    37   20   21 1
    38   21   22 1
    39   21   38 1
    40   21   39 1
    41   22   23 1
    42   22   40 1
    43   22   41 1
@<TRIPOS>MOLECULE
CHEMBL30051
   44    46     0     0     0
SMALL
USER_CHARGES

@<TRIPOS>ATOM
      1 C1          1.7280   -1.8883    3.3538 C.ar      1 <0>        -0.1190
      2 C2          2.6491   -0.8425    3.3830 C.ar      1 <0>        -0.1019
      3 C3          3.3854   -0.5264    2.2832 C.ar      1 <0>        -0.1236
      4 C4          3.2175   -1.2636    1.0984 C.ar      1 <0>        -0.0339
      5 C5          2.2812   -2.3274    1.0688 C.ar      1 <0>        -0.0527
      6 C6          1.5385   -2.6239    2.2246 C.ar      1 <0>        -0.0962
      7 C7          2.1136   -3.0647   -0.1154 C.ar      1 <0>        -0.0914
      8 C8          2.8505   -2.7488   -1.2155 C.ar      1 <0>        -0.1151
      9 C9          3.7712   -1.7034   -1.1862 C.ar      1 <0>        -0.0800
     10 C10         3.9599   -0.9671   -0.0570 C.ar      1 <0>        -0.0919
     11 C11         4.9600    0.1602   -0.0461 C.3       1 <0>         0.1343
     12 C12         5.3134    0.5319   -1.4632 C.2       1 <0>         0.5278
     13 O1          6.3096    0.0724   -1.9802 O.2       1 <0>        -0.4857
     14 N1          4.5223    1.3750   -2.1559 N.am      1 <0>        -0.5998
     15 O2          4.7942    1.6412   -3.5198 O.3       1 <0>        -0.3157
     16 N2          6.1723   -0.2676    0.6647 N.3       1 <0>        -0.6545
     17 C13         6.8952    0.8870    1.2146 C.3       1 <0>         0.0958
     18 C14         8.1300    0.4100    1.9349 C.ar      1 <0>        -0.0865
     19 C15         8.0675    0.0950    3.2796 C.ar      1 <0>        -0.0801
     20 C16         9.2000   -0.3425    3.9403 C.ar      1 <0>        -0.1202
     21 C17        10.3952   -0.4655    3.2562 C.ar      1 <0>        -0.0690
     22 C18        10.4574   -0.1515    1.9117 C.ar      1 <0>        -0.1827
     23 C19         9.3236    0.2820    1.2499 C.ar      1 <0>        -0.0404
     24 C20        11.7603   -0.2851    1.1662 C.3       1 <0>         0.5078
     25 F1         12.7532   -0.7401    2.0404 F         1 <0>        -0.1776
     26 F2         11.6065   -1.1996    0.1187 F         1 <0>        -0.1736
     27 F3         12.1306    0.9602    0.6475 F         1 <0>        -0.1762
     28 H1          1.1593   -2.1211    4.2419 H         1 <0>         0.1258
     29 H2          2.7801   -0.2744    4.2922 H         1 <0>         0.1250
     30 H3          4.0949    0.2871    2.3204 H         1 <0>         0.1205
     31 H4          0.8215   -3.4315    2.2169 H         1 <0>         0.1301
     32 H5          1.4041   -3.8781   -0.1525 H         1 <0>         0.1317
     33 H6          2.7197   -3.3172   -2.1245 H         1 <0>         0.1289
     34 H7          4.3434   -1.4737   -2.0729 H         1 <0>         0.1275
     35 H8          4.5283    1.0241    0.4592 H         1 <0>         0.0794
     36 H9          3.7667    1.7994   -1.7202 H         1 <0>         0.4061
     37 H10         4.1730    2.2573   -3.9317 H         1 <0>         0.3882
     38 H11         5.9506   -0.9339    1.3893 H         1 <0>         0.3595
     39 H12         7.1833    1.5554    0.4032 H         1 <0>         0.0874
     40 H13         6.2504    1.4204    1.9130 H         1 <0>         0.0493
     41 H14         7.1339    0.1911    3.8140 H         1 <0>         0.1302
     42 H15         9.1513   -0.5879    4.9909 H         1 <0>         0.1364
     43 H16        11.2803   -0.8067    3.7726 H         1 <0>         0.1391
     44 H17         9.3713    0.5238    0.1984 H         1 <0>         0.1370
@<TRIPOS>BOND
     1    1    6 ar
     2    1    2 ar
     3    1   28 1
     4    2    3 ar
     5    2   29 1
     6    3    4 ar
     7    3   30 1
     8    4   10 ar
     9    4    5 ar
    10    5    6 ar
    11    5    7 ar
    12    6   31 1
    13    7    8 ar
    14    7   32 1
    15    8    9 ar
    16    8   33 1
    17    9   10 ar
    18    9   34 1
    19   10   11 1
    20   11   12 1
    21   11   16 1
    22   11   35 1
    23   12   13 2
    24   12   14 am
    25   14   15 1
    26   14   36 1
    27   15   37 1
    28   16   17 1
    29   16   38 1
    30   17   18 1
    31   17   39 1
    32   17   40 1
    33   18   23 ar
    34   18   19 ar
    35   19   20 ar
    36   19   41 1
    37   20   21 ar
    38   20   42 1
    39   21   22 ar
    40   21   43 1
    41   22   23 ar
    42   22   24 1
    43   23   44 1
    44   24   25 1
    45   24   26 1
    46   24   27 1
@<TRIPOS>MOLECULE
CHEMBL30051__1
   45    47     0     0     0
SMALL
USER_CHARGES

@<TRIPOS>ATOM
      1 C1          1.7979   -2.0136    3.3412 C.ar      1 <0>        -0.1177
      2 C2          2.6627   -0.9208    3.3682 C.ar      1 <0>        -0.0684
      3 C3          3.3951   -0.5796    2.2732 C.ar      1 <0>        -0.1625
      4 C4          3.2805   -1.3386    1.0958 C.ar      1 <0>        -0.0204
      5 C5          2.4014   -2.4502    1.0685 C.ar      1 <0>        -0.0588
      6 C6          1.6610   -2.7714    2.2192 C.ar      1 <0>        -0.0772
      7 C7          2.2871   -3.2093   -0.1082 C.ar      1 <0>        -0.0453
      8 C8          3.0201   -2.8683   -1.2035 C.ar      1 <0>        -0.1307
      9 C9          3.8846   -1.7760   -1.1765 C.ar      1 <0>        -0.0435
     10 C10         4.0207   -1.0174   -0.0544 C.ar      1 <0>        -0.1703
     11 C11         4.9604    0.1607   -0.0459 C.3       1 <0>         0.0773
     12 C12         5.3134    0.5319   -1.4632 C.2       1 <0>         0.5203
     13 O1          6.3093    0.0720   -1.9804 O.2       1 <0>        -0.4966
     14 N1          4.5223    1.3750   -2.1559 N.am      1 <0>        -0.5689
     15 O2          4.7942    1.6412   -3.5198 O.3       1 <0>        -0.2937
     16 N2          6.1834   -0.1938    0.6866 N.4       1 <0>        -0.4954
     17 C13         7.0474    0.9890    0.7983 C.3       1 <0>         0.0358
     18 C14         8.3021    0.6254    1.5497 C.ar      1 <0>        -0.1640
     19 C15         8.3426    0.7453    2.9265 C.ar      1 <0>        -0.0610
     20 C16         9.4933    0.4118    3.6156 C.ar      1 <0>        -0.1120
     21 C17        10.6038   -0.0421    2.9282 C.ar      1 <0>        -0.0354
     22 C18        10.5630   -0.1627    1.5520 C.ar      1 <0>        -0.1748
     23 C19         9.4105    0.1668    0.8630 C.ar      1 <0>        -0.0386
     24 C20        11.7735   -0.6570    0.8027 C.3       1 <0>         0.5063
     25 F1         12.8047   -0.9267    1.7088 F         1 <0>        -0.1696
     26 F2         11.4463   -1.8258    0.1071 F         1 <0>        -0.1717
     27 F3         12.1932    0.3229   -0.1034 F         1 <0>        -0.1699
     28 H1          1.2312   -2.2653    4.2255 H         1 <0>         0.1364
     29 H2          2.7527   -0.3359    4.2717 H         1 <0>         0.1348
     30 H3          4.0607    0.2702    2.3085 H         1 <0>         0.1180
     31 H4          0.9873   -3.6155    2.2132 H         1 <0>         0.1405
     32 H5          1.6216   -4.0591   -0.1435 H         1 <0>         0.1446
     33 H6          2.9304   -3.4535   -2.1067 H         1 <0>         0.1419
     34 H7          4.4549   -1.5271   -2.0592 H         1 <0>         0.1355
     35 H8          4.4772    1.0073    0.4418 H         1 <0>         0.1687
     36 H9          3.7667    1.7994   -1.7202 H         1 <0>         0.4194
     37 H10         4.1730    2.2573   -3.9317 H         1 <0>         0.4064
     38 H11         5.9399   -0.5208    1.6095 H         1 <0>         0.4351
     39 H12         7.3105    1.3423   -0.1987 H         1 <0>         0.1451
     40 H13         6.5179    1.7764    1.3348 H         1 <0>         0.1466
     41 H14         7.4752    1.0998    3.4634 H         1 <0>         0.1438
     42 H15         9.5252    0.5061    4.6910 H         1 <0>         0.1513
     43 H16        11.5032   -0.3020    3.4667 H         1 <0>         0.1532
     44 H17         9.3773    0.0689   -0.2120 H         1 <0>         0.1471
     45 H18         6.6736   -0.9226    0.1899 H         1 <0>         0.4382
@<TRIPOS>BOND
     1    1    6 ar
     2    1    2 ar
     3    1   28 1
     4    2    3 ar
     5    2   29 1
     6    3    4 ar
     7    3   30 1
     8    4   10 ar
     9    4    5 ar
    10    5    6 ar
    11    5    7 ar
    12    6   31 1
    13    7    8 ar
    14    7   32 1
    15    8    9 ar
    16    8   33 1
    17    9   10 ar
    18    9   34 1
    19   10   11 1
    20   11   12 1
    21   11   16 1
    22   11   35 1
    23   12   13 2
    24   12   14 am
    25   14   15 1
    26   14   36 1
    27   15   37 1
    28   16   17 1
    29   16   38 1
    30   16   45 1
    31   17   18 1
    32   17   39 1
    33   17   40 1
    34   18   23 ar
    35   18   19 ar
    36   19   20 ar
    37   19   41 1
    38   20   21 ar
    39   20   42 1
    40   21   22 ar
    41   21   43 1
    42   22   23 ar
    43   22   24 1
    44   23   44 1
    45   24   25 1
    46   24   26 1
    47   24   27 1
@<TRIPOS>MOLECULE
CHEMBL30051__2
   44    46     0     0     0
SMALL
USER_CHARGES

@<TRIPOS>ATOM
      1 C1         -0.0164    1.3567    0.0095 C.ar      1 <0>        -0.1238
      2 C2          1.1685    2.0906    0.0021 C.ar      1 <0>        -0.0952
      3 C3          2.3785    1.4679   -0.0132 C.ar      1 <0>        -0.1458
      4 C4          2.4378    0.0637   -0.0214 C.ar      1 <0>        -0.0369
      5 C5          1.2328   -0.6827   -0.0134 C.ar      1 <0>        -0.0535
      6 C6          0.0021   -0.0041    0.0020 C.ar      1 <0>        -0.0896
      7 C7          1.2920   -2.0865   -0.0210 C.ar      1 <0>        -0.0956
      8 C8          2.5022   -2.7094   -0.0359 C.ar      1 <0>        -0.1157
      9 C9          3.6867   -1.9757   -0.0433 C.ar      1 <0>        -0.0692
     10 C10         3.6681   -0.6146   -0.0367 C.ar      1 <0>        -0.0833
     11 C11         4.9603    0.1606   -0.0459 C.3       1 <0>         0.1252
     12 C12         5.3414    0.5186    1.3675 C.2       1 <0>         0.5016
     13 O1          6.3924    0.1277    1.8297 O.2       1 <0>        -0.5183
     14 N1          4.5144    1.2731    2.1179 N.am      1 <0>        -0.5902
     15 O2          4.8725    1.6095    3.4459 O.3       1 <0>        -0.3196
     16 N2          6.0201   -0.6611   -0.6457 N.3       1 <0>        -0.6477
     17 C13         7.0821    0.1809   -1.2122 C.3       1 <0>         0.0918
     18 C14         8.1489   -0.6951   -1.8169 C.ar      1 <0>        -0.0861
     19 C15         9.2121   -1.1232   -1.0438 C.ar      1 <0>        -0.0755
     20 C16        10.1904   -1.9267   -1.5984 C.ar      1 <0>        -0.1194
     21 C17        10.1057   -2.3025   -2.9262 C.ar      1 <0>        -0.0693
     22 C18         9.0423   -1.8752   -3.6989 C.ar      1 <0>        -0.1850
     23 C19         8.0614   -1.0751   -3.1429 C.ar      1 <0>        -0.0455
     24 C20         8.9502   -2.2845   -5.1463 C.3       1 <0>         0.5084
     25 F1         10.0469   -3.0889   -5.4742 F         1 <0>        -0.1773
     26 F2          7.7672   -3.0019   -5.3536 F         1 <0>        -0.1753
     27 F3          8.9510   -1.1428   -5.9547 F         1 <0>        -0.1766
     28 H1         -0.9634    1.8756    0.0259 H         1 <0>         0.1269
     29 H2          1.1258    3.1698    0.0084 H         1 <0>         0.1272
     30 H3          3.2883    2.0497   -0.0195 H         1 <0>         0.1231
     31 H4         -0.9241   -0.5595    0.0082 H         1 <0>         0.1308
     32 H5          0.3820   -2.6682   -0.0147 H         1 <0>         0.1308
     33 H6          2.5450   -3.7886   -0.0417 H         1 <0>         0.1288
     34 H7          4.6338   -2.4947   -0.0548 H         1 <0>         0.1318
     35 H8          4.8331    1.0722   -0.6299 H         1 <0>         0.1215
     36 H9          3.6739    1.5858    1.7482 H         1 <0>         0.4081
     37 H10         4.2170    2.1528    3.9044 H         1 <0>         0.3885
     38 H11         6.3956   -1.3135    0.0262 H         1 <0>         0.3595
     39 H12         6.6616    0.8263   -1.9834 H         1 <0>         0.0891
     40 H13         7.5191    0.7940   -0.4240 H         1 <0>         0.0566
     41 H14         9.2783   -0.8296   -0.0066 H         1 <0>         0.1338
     42 H15        11.0214   -2.2606   -0.9947 H         1 <0>         0.1366
     43 H16        10.8706   -2.9297   -3.3598 H         1 <0>         0.1387
     44 H17         7.2285   -0.7443   -3.7457 H         1 <0>         0.1355
@<TRIPOS>BOND
     1    1    6 ar
     2    1    2 ar
     3    1   28 1
     4    2    3 ar
     5    2   29 1
     6    3    4 ar
     7    3   30 1
     8    4   10 ar
     9    4    5 ar
    10    5    6 ar
    11    5    7 ar
    12    6   31 1
    13    7    8 ar
    14    7   32 1
    15    8    9 ar
    16    8   33 1
    17    9   10 ar
    18    9   34 1
    19   10   11 1
    20   11   12 1
    21   11   16 1
    22   11   35 1
    23   12   13 2
    24   12   14 am
    25   14   15 1
    26   14   36 1
    27   15   37 1
    28   16   17 1
    29   16   38 1
    30   17   18 1
    31   17   39 1
    32   17   40 1
    33   18   23 ar
    34   18   19 ar
    35   19   20 ar
    36   19   41 1
    37   20   21 ar
    38   20   42 1
    39   21   22 ar
    40   21   43 1
    41   22   23 ar
    42   22   24 1
    43   23   44 1
    44   24   25 1
    45   24   26 1
    46   24   27 1
@<TRIPOS>MOLECULE
CHEMBL30051__3
   45    47     0     0     0
SMALL
USER_CHARGES

@<TRIPOS>ATOM
      1 C1         -0.0164    1.3567    0.0095 C.ar      1 <0>        -0.1136
      2 C2          1.1685    2.0906    0.0021 C.ar      1 <0>        -0.0662
      3 C3          2.3785    1.4679   -0.0132 C.ar      1 <0>        -0.1696
      4 C4          2.4378    0.0637   -0.0214 C.ar      1 <0>        -0.0214
      5 C5          1.2328   -0.6827   -0.0134 C.ar      1 <0>        -0.0506
      6 C6          0.0021   -0.0041    0.0020 C.ar      1 <0>        -0.0782
      7 C7          1.2920   -2.0865   -0.0210 C.ar      1 <0>        -0.0528
      8 C8          2.5022   -2.7094   -0.0359 C.ar      1 <0>        -0.1219
      9 C9          3.6867   -1.9757   -0.0433 C.ar      1 <0>        -0.0802
     10 C10         3.6681   -0.6146   -0.0367 C.ar      1 <0>        -0.1519
     11 C11         4.9603    0.1606   -0.0459 C.3       1 <0>         0.0741
     12 C12         5.3414    0.5186    1.3675 C.2       1 <0>         0.5243
     13 O1          6.3924    0.1277    1.8297 O.2       1 <0>        -0.5040
     14 N1          4.5144    1.2731    2.1179 N.am      1 <0>        -0.5668
     15 O2          4.8725    1.6095    3.4459 O.3       1 <0>        -0.2945
     16 N2          6.0201   -0.6611   -0.6457 N.4       1 <0>        -0.4904
     17 C13         7.2490    0.1349   -0.7642 C.3       1 <0>         0.0297
     18 C14         8.3361   -0.7080   -1.3795 C.ar      1 <0>        -0.1619
     19 C15         9.1695   -1.4589   -0.5713 C.ar      1 <0>        -0.0555
     20 C16        10.1666   -2.2320   -1.1356 C.ar      1 <0>        -0.1114
     21 C17        10.3303   -2.2549   -2.5082 C.ar      1 <0>        -0.0362
     22 C18         9.4966   -1.5050   -3.3162 C.ar      1 <0>        -0.1770
     23 C19         8.4965   -0.7350   -2.7520 C.ar      1 <0>        -0.0446
     24 C20         9.6753   -1.5296   -4.8124 C.3       1 <0>         0.5069
     25 F1         10.7397   -2.3760   -5.1410 F         1 <0>        -0.1693
     26 F2          8.5031   -1.9991   -5.4144 F         1 <0>        -0.1733
     27 F3          9.9492   -0.2364   -5.2706 F         1 <0>        -0.1706
     28 H1         -0.9634    1.8756    0.0259 H         1 <0>         0.1387
     29 H2          1.1258    3.1698    0.0084 H         1 <0>         0.1379
     30 H3          3.2883    2.0497   -0.0195 H         1 <0>         0.1249
     31 H4         -0.9241   -0.5595    0.0082 H         1 <0>         0.1422
     32 H5          0.3820   -2.6682   -0.0147 H         1 <0>         0.1455
     33 H6          2.5450   -3.7886   -0.0417 H         1 <0>         0.1429
     34 H7          4.6338   -2.4947   -0.0548 H         1 <0>         0.1217
     35 H8          4.8331    1.0722   -0.6299 H         1 <0>         0.1776
     36 H9          3.6739    1.5858    1.7482 H         1 <0>         0.4167
     37 H10         4.2170    2.1528    3.9044 H         1 <0>         0.4053
     38 H11         6.1948   -1.4642   -0.0604 H         1 <0>         0.4335
     39 H12         7.0603    1.0026   -1.3965 H         1 <0>         0.1434
     40 H13         7.5632    0.4677    0.2250 H         1 <0>         0.1624
     41 H14         9.0416   -1.4410    0.5009 H         1 <0>         0.1476
     42 H15        10.8180   -2.8180   -0.5042 H         1 <0>         0.1512
     43 H16        11.1099   -2.8585   -2.9491 H         1 <0>         0.1527
     44 H17         7.8426   -0.1519   -3.3836 H         1 <0>         0.1441
     45 H18         5.7292   -0.9691   -1.5614 H         1 <0>         0.4385
@<TRIPOS>BOND
     1    1    6 ar
     2    1    2 ar
     3    1   28 1
     4    2    3 ar
     5    2   29 1
     6    3    4 ar
     7    3   30 1
     8    4   10 ar
     9    4    5 ar
    10    5    6 ar
    11    5    7 ar
    12    6   31 1
    13    7    8 ar
    14    7   32 1
    15    8    9 ar
    16    8   33 1
    17    9   10 ar
    18    9   34 1
    19   10   11 1
    20   11   12 1
    21   11   16 1
    22   11   35 1
    23   12   13 2
    24   12   14 am
    25   14   15 1
    26   14   36 1
    27   15   37 1
    28   16   17 1
    29   16   38 1
    30   16   45 1
    31   17   18 1
    32   17   39 1
    33   17   40 1
    34   18   23 ar
    35   18   19 ar
    36   19   20 ar
    37   19   41 1
    38   20   21 ar
    39   20   42 1
    40   21   22 ar
    41   21   43 1
    42   22   23 ar
    43   22   24 1
    44   23   44 1
    45   24   25 1
    46   24   26 1
    47   24   27 1
@<TRIPOS>MOLECULE
CHEMBL156033
   60    60     0     0     0
SMALL
USER_CHARGES

@<TRIPOS>ATOM
      1 C1          1.2776   -1.3573    2.1757 C.3       1 <0>        -0.1525
      2 C2          1.2847   -0.9849    0.6917 C.3       1 <0>        -0.1221
      3 C3          2.0145   -2.0697   -0.1029 C.3       1 <0>        -0.1241
      4 C4          2.0217   -1.6973   -1.5868 C.3       1 <0>        -0.0970
      5 C5          2.8620   -2.7129   -2.3635 C.3       1 <0>        -0.1313
      6 H1          3.8508   -2.7883   -1.9109 H         1 <0>         0.1044
      7 C6          3.0001   -2.2554   -3.8170 C.3       1 <0>         0.1428
      8 N1          3.7378   -0.9906   -3.8629 N.am      1 <0>        -0.4747
      9 C7          5.0721   -0.9814   -3.6726 C.2       1 <0>         0.4786
     10 O1          5.6829    0.0657   -3.7106 O.2       1 <0>        -0.5460
     11 O2          3.0492    0.2223   -4.1072 O.3       1 <0>        -0.3309
     12 C8          2.1869   -4.0595   -2.3227 C.2       1 <0>         0.5250
     13 O3          1.1369   -4.1938   -1.7307 O.2       1 <0>        -0.5065
     14 N2          2.7498   -5.1147   -2.9441 N.am      1 <0>        -0.7161
     15 C9          2.0935   -6.4239   -2.9044 C.3       1 <0>         0.1159
     16 H2          1.6018   -6.5547   -1.9404 H         1 <0>         0.1144
     17 C10         3.1229   -7.5079   -3.0944 C.2       1 <0>         0.3973
     18 O4          3.2104   -8.0812   -4.1597 O.2       1 <0>        -0.4277
     19 C11         4.0203   -7.8702   -1.9897 C.ar      1 <0>        -0.2168
     20 C12         3.8476   -7.2923   -0.7259 C.ar      1 <0>        -0.0258
     21 C13         4.6879   -7.6344    0.3022 C.ar      1 <0>        -0.1651
     22 C14         5.7105   -8.5531    0.0915 C.ar      1 <0>         0.1679
     23 C15         5.8865   -9.1297   -1.1619 C.ar      1 <0>        -0.2240
     24 C16         5.0479   -8.7991   -2.1951 C.ar      1 <0>        -0.0133
     25 O5          6.5394   -8.8878    1.1120 O.3       1 <0>        -0.3104
     26 C17         7.5685   -9.8375    0.8270 C.3       1 <0>         0.0228
     27 C18         1.0530   -6.5069   -4.0230 C.3       1 <0>        -0.0673
     28 C19         1.7171   -6.1815   -5.3624 C.3       1 <0>        -0.1505
     29 C20         0.4696   -7.9204   -4.0731 C.3       1 <0>        -0.1534
     30 C21        -0.0683   -5.5017   -3.7522 C.3       1 <0>        -0.1336
     31 H3          0.7665   -2.3109    2.3085 H         1 <0>         0.0540
     32 H4          2.3035   -1.4420    2.5340 H         1 <0>         0.0516
     33 H5          0.7576   -0.5845    2.7418 H         1 <0>         0.0525
     34 H6          0.2587   -0.9003    0.3334 H         1 <0>         0.0611
     35 H7          1.7958   -0.0313    0.5589 H         1 <0>         0.0569
     36 H8          3.0405   -2.1544    0.2554 H         1 <0>         0.0534
     37 H9          1.5035   -3.0233    0.0299 H         1 <0>         0.0810
     38 H10         1.0005   -1.7035   -1.9679 H         1 <0>         0.0741
     39 H11         2.4493   -0.7022   -1.7096 H         1 <0>         0.0735
     40 H12         3.5401   -3.0120   -4.3863 H         1 <0>         0.0947
     41 H13         2.0094   -2.1141   -4.2490 H         1 <0>         0.1053
     42 H14         5.5973   -1.9065   -3.4863 H         1 <0>         0.1522
     43 H15         3.6196    1.0030   -4.1190 H         1 <0>         0.3984
     44 H16         3.5896   -5.0074   -3.4175 H         1 <0>         0.4020
     45 H17         3.0543   -6.5782   -0.5614 H         1 <0>         0.1371
     46 H18         4.5556   -7.1892    1.2773 H         1 <0>         0.1389
     47 H19         6.6826   -9.8421   -1.3205 H         1 <0>         0.1364
     48 H20         5.1824   -9.2510   -3.1668 H         1 <0>         0.1377
     49 H21         8.1577  -10.0155    1.7266 H         1 <0>         0.1056
     50 H22         7.1178  -10.7734    0.4967 H         1 <0>         0.0604
     51 H23         8.2147   -9.4479    0.0405 H         1 <0>         0.0603
     52 H24         2.4218   -6.9721   -5.6201 H         1 <0>         0.0788
     53 H25         0.9545   -6.1077   -6.1377 H         1 <0>         0.0540
     54 H26         2.2482   -5.2328   -5.2837 H         1 <0>         0.0479
     55 H27        -0.0714   -8.1231   -3.1488 H         1 <0>         0.0533
     56 H28        -0.2130   -8.0020   -4.9190 H         1 <0>         0.0612
     57 H29         1.2776   -8.6431   -4.1872 H         1 <0>         0.0696
     58 H30         0.3473   -4.4947   -3.7165 H         1 <0>         0.0571
     59 H31        -0.8095   -5.5608   -4.5492 H         1 <0>         0.0506
     60 H32        -0.5414   -5.7335   -2.7980 H         1 <0>         0.0605
@<TRIPOS>BOND
     1    1    2 1
     2    1   31 1
     3    1   32 1
     4    1   33 1
     5    2    3 1
     6    2   34 1
     7    2   35 1
     8    3    4 1
     9    3   36 1
    10    3   37 1
    11    4    5 1
    12    4   38 1
    13    4   39 1
    14    5    6 1
    15    5    7 1
    16    5   12 1
    17    7    8 1
    18    7   40 1
    19    7   41 1
    20    8    9 am
    21    8   11 1
    22    9   10 2
    23    9   42 1
    24   11   43 1
    25   12   13 2
    26   12   14 am
    27   14   15 1
    28   14   44 1
    29   15   16 1
    30   15   17 1
    31   15   27 1
    32   17   18 2
    33   17   19 1
    34   19   24 ar
    35   19   20 ar
    36   20   21 ar
    37   20   45 1
    38   21   22 ar
    39   21   46 1
    40   22   23 ar
    41   22   25 1
    42   23   24 ar
    43   23   47 1
    44   24   48 1
    45   25   26 1
    46   26   49 1
    47   26   50 1
    48   26   51 1
    49   27   28 1
    50   27   29 1
    51   27   30 1
    52   28   52 1
    53   28   53 1
    54   28   54 1
    55   29   55 1
    56   29   56 1
    57   29   57 1
    58   30   58 1
    59   30   59 1
    60   30   60 1
@<TRIPOS>MOLECULE
CHEMBL160513
   76    78     0     0     0
SMALL
USER_CHARGES

@<TRIPOS>ATOM
      1 C1         -0.6064    1.7732   -1.0109 C.3       1 <0>        -0.1532
      2 C2         -0.5757    0.2903   -0.6355 C.3       1 <0>        -0.0672
      3 C3         -0.2858    0.1488    0.8601 C.3       1 <0>        -0.1485
      4 C4         -1.9306   -0.3448   -0.9546 C.3       1 <0>        -0.1339
      5 C5          0.5200   -0.4160   -1.4364 C.3       1 <0>         0.1162
      6 H1          0.2548   -0.4153   -2.4937 H         1 <0>         0.1120
      7 C6          1.8276    0.3084   -1.2460 C.2       1 <0>         0.3986
      8 O1          1.9500    1.1128   -0.3462 O.2       1 <0>        -0.4387
      9 C7          2.9530    0.0409   -2.1492 C.ar      1 <0>        -0.2462
     10 C8          2.7798   -0.7978   -3.2581 C.ar      1 <0>        -0.0107
     11 C9          3.8294   -1.0437   -4.0961 C.ar      1 <0>        -0.2129
     12 C10         5.0711   -0.4621   -3.8498 C.ar      1 <0>         0.2834
     13 C11         5.2478    0.3725   -2.7483 C.ar      1 <0>        -0.2217
     14 C12         4.2021    0.6280   -1.9082 C.ar      1 <0>        -0.0010
     15 N1          6.1362   -0.7153   -4.7045 N.pl3     1 <0>        -0.6088
     16 C13         6.0899   -1.5694   -5.9052 C.3       1 <0>         0.1101
     17 C14         7.5548   -2.0221   -6.1265 C.3       1 <0>        -0.1329
     18 C15         8.3396   -0.7465   -5.7215 C.3       1 <0>        -0.1259
     19 C16         7.4947   -0.1708   -4.5653 C.3       1 <0>         0.1383
     20 H2          7.9205   -0.4765   -3.6096 H         1 <0>         0.0865
     21 C17         7.4553    1.3560   -4.6561 C.3       1 <0>         0.0544
     22 O2          7.0294    1.7445   -5.9637 O.3       1 <0>        -0.5637
     23 N2          0.6542   -1.7974   -0.9675 N.am      1 <0>        -0.7140
     24 C18        -0.1491   -2.7588   -1.4644 C.2       1 <0>         0.5247
     25 O3         -0.9831   -2.4803   -2.2998 O.2       1 <0>        -0.5118
     26 C19        -0.0110   -4.1798   -0.9820 C.3       1 <0>        -0.1319
     27 H3          0.9950   -4.5403   -1.1967 H         1 <0>         0.1052
     28 C20        -1.0333   -5.0636   -1.6995 C.3       1 <0>        -0.0874
     29 C21        -0.6851   -6.5356   -1.4700 C.3       1 <0>        -0.1134
     30 C22         0.6166   -6.8933   -2.2165 C.3       1 <0>        -0.1212
     31 C23         0.3763   -8.3348   -2.7298 C.3       1 <0>        -0.1244
     32 C24        -1.1183   -8.3086   -3.1352 C.3       1 <0>        -0.1253
     33 C25        -1.7883   -7.4355   -2.0541 C.3       1 <0>        -0.1167
     34 C26        -0.2606   -4.2328    0.5265 C.3       1 <0>         0.1435
     35 N3          0.0559   -5.5728    1.0271 N.am      1 <0>        -0.4700
     36 C27         1.3310   -6.0094    1.0243 C.2       1 <0>         0.4777
     37 O4          1.5930   -7.1187    1.4387 O.2       1 <0>        -0.5425
     38 O5         -0.9778   -6.4092    1.5139 O.3       1 <0>        -0.3275
     39 H4          0.3191    2.2492   -0.6871 H         1 <0>         0.0740
     40 H5         -0.7072    1.8724   -2.0917 H         1 <0>         0.0513
     41 H6         -1.4531    2.2545   -0.5214 H         1 <0>         0.0591
     42 H7         -1.1426    0.5056    1.4317 H         1 <0>         0.0530
     43 H8         -0.1019   -0.8992    1.0970 H         1 <0>         0.0474
     44 H9          0.5937    0.7391    1.1172 H         1 <0>         0.0778
     45 H10        -2.1372   -0.2439   -2.0201 H         1 <0>         0.0592
     46 H11        -1.9087   -1.4012   -0.6871 H         1 <0>         0.0570
     47 H12        -2.7112    0.1584   -0.3840 H         1 <0>         0.0499
     48 H13         1.8176   -1.2494   -3.4496 H         1 <0>         0.1269
     49 H14         3.6969   -1.6903   -4.9509 H         1 <0>         0.1251
     50 H15         6.2121    0.8211   -2.5609 H         1 <0>         0.1259
     51 H16         4.3387    1.2786   -1.0571 H         1 <0>         0.1316
     52 H17         5.4480   -2.4331   -5.7319 H         1 <0>         0.0735
     53 H18         5.7356   -0.9985   -6.7635 H         1 <0>         0.0698
     54 H19         7.8075   -2.8594   -5.4758 H         1 <0>         0.0757
     55 H20         7.7321   -2.2745   -7.1719 H         1 <0>         0.0862
     56 H21         9.3422   -1.0029   -5.3790 H         1 <0>         0.0813
     57 H22         8.3831   -0.0408   -6.5511 H         1 <0>         0.0906
     58 H23         6.7569    1.7461   -3.9157 H         1 <0>         0.0574
     59 H24         8.4503    1.7572   -4.4639 H         1 <0>         0.0559
     60 H25         6.9811    2.7016   -6.0934 H         1 <0>         0.3805
     61 H26         1.3212   -2.0201   -0.2994 H         1 <0>         0.4019
     62 H27        -2.0292   -4.8601   -1.3059 H         1 <0>         0.0706
     63 H28        -1.0139   -4.8479   -2.7678 H         1 <0>         0.0773
     64 H29        -0.5704   -6.7300   -0.4036 H         1 <0>         0.0981
     65 H30         0.7764   -6.2124   -3.0525 H         1 <0>         0.0650
     66 H31         1.4667   -6.8679   -1.5347 H         1 <0>         0.0556
     67 H32         1.0070   -8.5477   -3.5929 H         1 <0>         0.0633
     68 H33         0.5485   -9.0613   -1.9357 H         1 <0>         0.0650
     69 H34        -1.2387   -7.8562   -4.1195 H         1 <0>         0.0636
     70 H35        -1.5344   -9.3160   -3.1238 H         1 <0>         0.0622
     71 H36        -2.2083   -8.0672   -1.2714 H         1 <0>         0.0608
     72 H37        -2.5717   -6.8234   -2.5011 H         1 <0>         0.0630
     73 H38         0.3728   -3.4995    1.0256 H         1 <0>         0.0907
     74 H39        -1.3074   -4.0070    0.7297 H         1 <0>         0.1073
     75 H40         2.1194   -5.3714    0.6530 H         1 <0>         0.1493
     76 H41        -0.6722   -7.2732    1.8223 H         1 <0>         0.3980
@<TRIPOS>BOND
     1    1    2 1
     2    1   39 1
     3    1   40 1
     4    1   41 1
     5    2    3 1
     6    2    4 1
     7    2    5 1
     8    3   42 1
     9    3   43 1
    10    3   44 1
    11    4   45 1
    12    4   46 1
    13    4   47 1
    14    5    6 1
    15    5    7 1
    16    5   23 1
    17    7    8 2
    18    7    9 1
    19    9   14 ar
    20    9   10 ar
    21   10   11 ar
    22   10   48 1
    23   11   12 ar
    24   11   49 1
    25   12   13 ar
    26   12   15 1
    27   13   14 ar
    28   13   50 1
    29   14   51 1
    30   15   19 1
    31   15   16 1
    32   16   17 1
    33   16   52 1
    34   16   53 1
    35   17   18 1
    36   17   54 1
    37   17   55 1
    38   18   19 1
    39   18   56 1
    40   18   57 1
    41   19   20 1
    42   19   21 1
    43   21   22 1
    44   21   58 1
    45   21   59 1
    46   22   60 1
    47   23   24 am
    48   23   61 1
    49   24   25 2
    50   24   26 1
    51   26   27 1
    52   26   28 1
    53   26   34 1
    54   28   29 1
    55   28   62 1
    56   28   63 1
    57   29   33 1
    58   29   30 1
    59   29   64 1
    60   30   31 1
    61   30   65 1
    62   30   66 1
    63   31   32 1
    64   31   67 1
    65   31   68 1
    66   32   33 1
    67   32   69 1
    68   32   70 1
    69   33   71 1
    70   33   72 1
    71   34   35 1
    72   34   73 1
    73   34   74 1
    74   35   36 am
    75   35   38 1
    76   36   37 2
    77   36   75 1
    78   38   76 1
@<TRIPOS>MOLECULE
CHEMBL348888
   73    75     0     0     0
SMALL
USER_CHARGES

@<TRIPOS>ATOM
      1 C1         -0.6648    1.7450   -1.0120 C.3       1 <0>        -0.1533
      2 C2         -0.5672    0.2620   -0.6486 C.3       1 <0>        -0.0673
      3 C3         -0.2712    0.1215    0.8459 C.3       1 <0>        -0.1487
      4 C4         -1.8920   -0.4310   -0.9735 C.3       1 <0>        -0.1340
      5 C5          0.5592   -0.3876   -1.4549 C.3       1 <0>         0.1162
      6 H1          0.2944   -0.3903   -2.5122 H         1 <0>         0.1122
      7 C6          1.8329    0.3935   -1.2580 C.2       1 <0>         0.3979
      8 O1          1.9186    1.1956   -0.3520 O.2       1 <0>        -0.4360
      9 C7          2.9695    0.1837   -2.1622 C.ar      1 <0>        -0.2411
     10 C8          2.8348   -0.6536   -3.2775 C.ar      1 <0>        -0.0117
     11 C9          3.8948   -0.8457   -4.1166 C.ar      1 <0>        -0.2151
     12 C10         5.1089   -0.2106   -3.8650 C.ar      1 <0>         0.2604
     13 C11         5.2473    0.6228   -2.7571 C.ar      1 <0>        -0.2170
     14 C12         4.1909    0.8246   -1.9159 C.ar      1 <0>        -0.0011
     15 N1          6.1847   -0.4091   -4.7207 N.pl3     1 <0>        -0.6200
     16 C13         6.0279   -1.1697   -5.9706 C.3       1 <0>         0.0803
     17 C14         6.6122   -0.3389   -7.1188 C.3       1 <0>         0.0454
     18 O2          7.9428    0.0604   -6.7812 O.3       1 <0>        -0.3772
     19 C15         8.0265    0.9027   -5.6290 C.3       1 <0>         0.0450
     20 C16         7.5134    0.1402   -4.4074 C.3       1 <0>         0.0794
     21 N2          0.7556   -1.7654   -0.9972 N.am      1 <0>        -0.7144
     22 C17        -0.0035   -2.7579   -1.5023 C.2       1 <0>         0.5248
     23 O3         -0.8491   -2.5105   -2.3357 O.2       1 <0>        -0.5116
     24 C18         0.1985   -4.1752   -1.0315 C.3       1 <0>        -0.1319
     25 H2          1.2198   -4.4881   -1.2487 H         1 <0>         0.1052
     26 C19        -0.7828   -5.0982   -1.7566 C.3       1 <0>        -0.0874
     27 C20        -0.3692   -6.5549   -1.5382 C.3       1 <0>        -0.1135
     28 C21         0.9485   -6.8478   -2.2851 C.3       1 <0>        -0.1212
     29 C22         0.7740   -8.2944   -2.8103 C.3       1 <0>        -0.1244
     30 C23        -0.7198   -8.3321   -3.2182 C.3       1 <0>        -0.1253
     31 C24        -1.4298   -7.4987   -2.1315 C.3       1 <0>        -0.1167
     32 C25        -0.0485   -4.2517    0.4765 C.3       1 <0>         0.1435
     33 N3          0.3274   -5.5804    0.9661 N.am      1 <0>        -0.4701
     34 C26         1.6205   -5.9600    0.9595 C.2       1 <0>         0.4777
     35 O4          1.9317   -7.0599    1.3648 O.2       1 <0>        -0.5422
     36 O5         -0.6680   -6.4657    1.4462 O.3       1 <0>        -0.3274
     37 H3          0.2385    2.2596   -0.6842 H         1 <0>         0.0739
     38 H4         -0.7702    1.8483   -2.0919 H         1 <0>         0.0513
     39 H5         -1.5322    2.1836   -0.5187 H         1 <0>         0.0595
     40 H6         -1.1432    0.4349    1.4200 H         1 <0>         0.0534
     41 H7         -0.0406   -0.9191    1.0744 H         1 <0>         0.0476
     42 H8          0.5810    0.7485    1.1080 H         1 <0>         0.0777
     43 H9         -2.1029   -0.3309   -2.0382 H         1 <0>         0.0592
     44 H10        -1.8225   -1.4875   -0.7146 H         1 <0>         0.0571
     45 H11        -2.6945    0.0318   -0.3991 H         1 <0>         0.0502
     46 H12         1.8940   -1.1466   -3.4731 H         1 <0>         0.1282
     47 H13         3.7919   -1.4911   -4.9763 H         1 <0>         0.1284
     48 H14         6.1904    1.1129   -2.5655 H         1 <0>         0.1292
     49 H15         4.2977    1.4743   -1.0598 H         1 <0>         0.1333
     50 H16         6.5624   -2.1166   -5.8937 H         1 <0>         0.0769
     51 H17         4.9704   -1.3586   -6.1553 H         1 <0>         0.0963
     52 H18         6.6319   -0.9385   -8.0288 H         1 <0>         0.1086
     53 H19         5.9959    0.5460   -7.2781 H         1 <0>         0.0576
     54 H20         9.0637    1.1963   -5.4673 H         1 <0>         0.1087
     55 H21         7.4154    1.7920   -5.7830 H         1 <0>         0.0573
     56 H22         7.4391    0.8184   -3.5573 H         1 <0>         0.0971
     57 H23         8.2000   -0.6725   -4.1703 H         1 <0>         0.0771
     58 H24         1.4319   -1.9633   -0.3306 H         1 <0>         0.4020
     59 H25        -1.7870   -4.9427   -1.3622 H         1 <0>         0.0707
     60 H26        -0.7726   -4.8736   -2.8231 H         1 <0>         0.0772
     61 H27        -0.2473   -6.7526   -0.4732 H         1 <0>         0.0982
     62 H28         1.0787   -6.1536   -3.1154 H         1 <0>         0.0648
     63 H29         1.7955   -6.7896   -1.6016 H         1 <0>         0.0556
     64 H30         1.4148   -8.4717   -3.6740 H         1 <0>         0.0634
     65 H31         0.9775   -9.0188   -2.0217 H         1 <0>         0.0651
     66 H32        -0.8589   -7.8777   -4.1992 H         1 <0>         0.0636
     67 H33        -1.0902   -9.3572   -3.2157 H         1 <0>         0.0623
     68 H34        -1.8222   -8.1549   -1.3546 H         1 <0>         0.0609
     69 H35        -2.2393   -6.9189   -2.5750 H         1 <0>         0.0630
     70 H36         0.5516   -3.4951    0.9819 H         1 <0>         0.0907
     71 H37        -1.1043   -4.0744    0.6812 H         1 <0>         0.1074
     72 H38         2.3797   -5.2847    0.5934 H         1 <0>         0.1492
     73 H39        -0.3242   -7.3178    1.7475 H         1 <0>         0.3981
@<TRIPOS>BOND
     1    1    2 1
     2    1   37 1
     3    1   38 1
     4    1   39 1
     5    2    3 1
     6    2    4 1
     7    2    5 1
     8    3   40 1
     9    3   41 1
    10    3   42 1
    11    4   43 1
    12    4   44 1
    13    4   45 1
    14    5    6 1
    15    5    7 1
    16    5   21 1
    17    7    8 2
    18    7    9 1
    19    9   14 ar
    20    9   10 ar
    21   10   11 ar
    22   10   46 1
    23   11   12 ar
    24   11   47 1
    25   12   13 ar
    26   12   15 1
    27   13   14 ar
    28   13   48 1
    29   14   49 1
    30   15   20 1
    31   15   16 1
    32   16   17 1
    33   16   50 1
    34   16   51 1
    35   17   18 1
    36   17   52 1
    37   17   53 1
    38   18   19 1
    39   19   20 1
    40   19   54 1
    41   19   55 1
    42   20   56 1
    43   20   57 1
    44   21   22 am
    45   21   58 1
    46   22   23 2
    47   22   24 1
    48   24   25 1
    49   24   26 1
    50   24   32 1
    51   26   27 1
    52   26   59 1
    53   26   60 1
    54   27   31 1
    55   27   28 1
    56   27   61 1
    57   28   29 1
    58   28   62 1
    59   28   63 1
    60   29   30 1
    61   29   64 1
    62   29   65 1
    63   30   31 1
    64   30   66 1
    65   30   67 1
    66   31   68 1
    67   31   69 1
    68   32   33 1
    69   32   70 1
    70   32   71 1
    71   33   34 am
    72   33   36 1
    73   34   35 2
    74   34   72 1
    75   36   73 1
@<TRIPOS>MOLECULE
CHEMBL158092
   76    78     0     0     0
SMALL
USER_CHARGES

@<TRIPOS>ATOM
      1 C1         -0.5832    1.7956   -1.0203 C.3       1 <0>        -0.1524
      2 C2         -0.5749    0.3156   -0.6326 C.3       1 <0>        -0.0654
      3 C3         -0.2851    0.1820    0.8637 C.3       1 <0>        -0.1476
      4 C4         -1.9399   -0.3011   -0.9447 C.3       1 <0>        -0.1348
      5 C5          0.5085   -0.4142   -1.4291 C.3       1 <0>         0.1149
      6 H1          0.2420   -0.4182   -2.4860 H         1 <0>         0.1132
      7 C6          1.8275    0.2915   -1.2464 C.2       1 <0>         0.3945
      8 O1          1.9637    1.1014   -0.3532 O.2       1 <0>        -0.3932
      9 C7          2.9454   -0.0004   -2.1472 C.ar      1 <0>        -0.1692
     10 C8          2.7616   -0.8504   -3.2468 C.ar      1 <0>        -0.0729
     11 C9          3.8162   -1.1199   -4.0894 C.ar      1 <0>         0.0548
     12 C10         5.0654   -0.5525   -3.8553 C.ar      1 <0>         0.1131
     13 C11         5.2614    0.2870   -2.7749 C.ar      1 <0>        -0.1495
     14 C12         4.2085    0.5753   -1.9175 C.ar      1 <0>         0.2595
     15 N1          4.4021    1.4232   -0.8356 N.pl3     1 <0>        -0.6675
     16 C13         4.8329    0.8914    0.4645 C.3       1 <0>         0.1526
     17 C14         6.0837    1.6507    0.9179 C.3       1 <0>        -0.1298
     18 C15         5.7913    3.1529    0.9190 C.3       1 <0>         0.1091
     19 C16         5.4384    3.6066   -0.4994 C.3       1 <0>        -0.1699
     20 C17         4.1862    2.8702   -0.9705 C.3       1 <0>         0.1535
     21 O2          6.9459    3.8624    1.3723 O.3       1 <0>        -0.5697
     22 F1          6.0930   -0.8243   -4.6892 F         1 <0>        -0.1186
     23 F2          3.6380   -1.9396   -5.1485 F         1 <0>        -0.1220
     24 N2          0.6221   -1.7936   -0.9489 N.am      1 <0>        -0.7177
     25 C18        -0.1967   -2.7465   -1.4367 C.2       1 <0>         0.5251
     26 O3         -1.0274   -2.4621   -2.2733 O.2       1 <0>        -0.5082
     27 C19        -0.0799   -4.1655   -0.9427 C.3       1 <0>        -0.1325
     28 H2          0.9201   -4.5432   -1.1557 H         1 <0>         0.1058
     29 C20        -1.1168   -5.0392   -1.6515 C.3       1 <0>        -0.0879
     30 C21        -0.7910   -6.5145   -1.4102 C.3       1 <0>        -0.1133
     31 C22         0.5040   -6.8985   -2.1554 C.3       1 <0>        -0.1218
     32 C23         0.2407   -8.3403   -2.6563 C.3       1 <0>        -0.1245
     33 C24        -1.2540   -8.2943   -3.0599 C.3       1 <0>        -0.1255
     34 C25        -1.9088   -7.4020   -1.9853 C.3       1 <0>        -0.1166
     35 C26        -0.3281   -4.2021    0.5666 C.3       1 <0>         0.1445
     36 N3         -0.0316   -5.5426    1.0779 N.am      1 <0>        -0.4705
     37 C27         1.2366   -5.9988    1.0771 C.2       1 <0>         0.4776
     38 O4          1.4821   -7.1085    1.5003 O.2       1 <0>        -0.5408
     39 O5         -1.0774   -6.3589    1.5729 O.3       1 <0>        -0.3272
     40 H3          0.3500    2.2599   -0.7017 H         1 <0>         0.0727
     41 H4         -0.6840    1.8873   -2.1018 H         1 <0>         0.0515
     42 H5         -1.4217    2.2940   -0.5337 H         1 <0>         0.0605
     43 H6         -1.1355    0.5567    1.4334 H         1 <0>         0.0541
     44 H7         -0.1171   -0.8667    1.1091 H         1 <0>         0.0481
     45 H8          0.6038    0.7608    1.1147 H         1 <0>         0.0770
     46 H9         -2.1464   -0.2059   -2.0107 H         1 <0>         0.0598
     47 H10        -1.9340   -1.3555   -0.6685 H         1 <0>         0.0578
     48 H11        -2.7118    0.2188   -0.3773 H         1 <0>         0.0513
     49 H12         1.7943   -1.2934   -3.4323 H         1 <0>         0.1536
     50 H13         6.2339    0.7230   -2.6002 H         1 <0>         0.1536
     51 H14         4.0371    1.0278    1.1969 H         1 <0>         0.0638
     52 H15         5.0646   -0.1692    0.3669 H         1 <0>         0.0721
     53 H16         6.3577    1.3328    1.9239 H         1 <0>         0.0775
     54 H17         6.9052    1.4405    0.2330 H         1 <0>         0.0709
     55 H18         4.9536    3.3594    1.5852 H         1 <0>         0.0558
     56 H19         5.2531    4.6808   -0.5023 H         1 <0>         0.0730
     57 H20         6.2660    3.3779   -1.1710 H         1 <0>         0.0716
     58 H21         3.9913    3.1148   -2.0147 H         1 <0>         0.0685
     59 H22         3.3365    3.1715   -0.3578 H         1 <0>         0.0651
     60 H23         6.8325    4.8224    1.3987 H         1 <0>         0.3787
     61 H24         1.2865   -2.0211   -0.2798 H         1 <0>         0.4022
     62 H25        -2.1088   -4.8172   -1.2582 H         1 <0>         0.0710
     63 H26        -1.0955   -4.8327   -2.7215 H         1 <0>         0.0777
     64 H27        -0.6777   -6.7018   -0.3424 H         1 <0>         0.0981
     65 H28         0.6731   -6.2271   -2.9972 H         1 <0>         0.0652
     66 H29         1.3553   -6.8806   -1.4749 H         1 <0>         0.0556
     67 H30         0.8668   -8.5701   -3.5185 H         1 <0>         0.0639
     68 H31         0.4028   -9.0628   -1.8564 H         1 <0>         0.0651
     69 H32        -1.3688   -7.8483   -4.0479 H         1 <0>         0.0638
     70 H33        -1.6856   -9.2951   -3.0396 H         1 <0>         0.0624
     71 H34        -2.3373   -8.0206   -1.1968 H         1 <0>         0.0610
     72 H35        -2.6833   -6.7817   -2.4363 H         1 <0>         0.0629
     73 H36         0.3173   -3.4745    1.0587 H         1 <0>         0.0900
     74 H37        -1.3710   -3.9584    0.7693 H         1 <0>         0.1074
     75 H38         2.0342   -5.3762    0.6995 H         1 <0>         0.1489
     76 H39        -0.7847   -7.2249    1.8881 H         1 <0>         0.3985
@<TRIPOS>BOND
     1    1    2 1
     2    1   40 1
     3    1   41 1
     4    1   42 1
     5    2    3 1
     6    2    4 1
     7    2    5 1
     8    3   43 1
     9    3   44 1
    10    3   45 1
    11    4   46 1
    12    4   47 1
    13    4   48 1
    14    5    6 1
    15    5    7 1
    16    5   24 1
    17    7    8 2
    18    7    9 1
    19    9   14 ar
    20    9   10 ar
    21   10   11 ar
    22   10   49 1
    23   11   12 ar
    24   11   23 1
    25   12   13 ar
    26   12   22 1
    27   13   14 ar
    28   13   50 1
    29   14   15 1
    30   15   20 1
    31   15   16 1
    32   16   17 1
    33   16   51 1
    34   16   52 1
    35   17   18 1
    36   17   53 1
    37   17   54 1
    38   18   19 1
    39   18   21 1
    40   18   55 1
    41   19   20 1
    42   19   56 1
    43   19   57 1
    44   20   58 1
    45   20   59 1
    46   21   60 1
    47   24   25 am
    48   24   61 1
    49   25   26 2
    50   25   27 1
    51   27   28 1
    52   27   29 1
    53   27   35 1
    54   29   30 1
    55   29   62 1
    56   29   63 1
    57   30   34 1
    58   30   31 1
    59   30   64 1
    60   31   32 1
    61   31   65 1
    62   31   66 1
    63   32   33 1
    64   32   67 1
    65   32   68 1
    66   33   34 1
    67   33   69 1
    68   33   70 1
    69   34   71 1
    70   34   72 1
    71   35   36 1
    72   35   73 1
    73   35   74 1
    74   36   37 am
    75   36   39 1
    76   37   38 2
    77   37   75 1
    78   39   76 1
@<TRIPOS>MOLECULE
CHEMBL93532
   77    78     0     0     0
SMALL
USER_CHARGES

@<TRIPOS>ATOM
      1 C1          0.8111   -7.7856    2.8933 C.3       1 <0>        -0.1523
      2 C2          1.1650   -6.3306    2.5790 C.3       1 <0>        -0.1216
      3 C3          1.9061   -6.2634    1.2421 C.3       1 <0>        -0.1237
      4 C4          2.2600   -4.8085    0.9277 C.3       1 <0>        -0.0964
      5 C5          3.1127   -4.7538   -0.3414 C.3       1 <0>        -0.1306
      6 H1          3.9696   -5.4186   -0.2323 H         1 <0>         0.1028
      7 C6          3.6032   -3.3219   -0.5650 C.3       1 <0>         0.1430
      8 N1          4.5145   -2.9433    0.5178 N.am      1 <0>        -0.4745
      9 C7          5.7792   -3.4091    0.5281 C.2       1 <0>         0.4788
     10 O1          6.5336   -3.0957    1.4245 O.2       1 <0>        -0.5461
     11 O2          4.0667   -2.0879    1.5535 O.3       1 <0>        -0.3310
     12 C8          2.2847   -5.1912   -1.5222 C.2       1 <0>         0.5249
     13 O3          1.1266   -5.5149   -1.3641 O.2       1 <0>        -0.5091
     14 N2          2.8312   -5.2228   -2.7538 N.am      1 <0>        -0.7150
     15 C9          2.0263   -5.6481   -3.9016 C.3       1 <0>         0.1327
     16 H2          1.3335   -6.4298   -3.5899 H         1 <0>         0.1114
     17 C10         2.9328   -6.1813   -4.9809 C.2       1 <0>         0.5184
     18 O4          3.7596   -5.4557   -5.4916 O.2       1 <0>        -0.5207
     19 N3          2.8247   -7.4645   -5.3786 N.am      1 <0>        -0.5990
     20 C11         1.7772   -8.3201   -4.8157 C.3       1 <0>         0.1051
     21 C12         0.5679   -8.3294   -5.7530 C.3       1 <0>        -0.1070
     22 C13        -0.5491   -9.1217   -5.1240 C.ar      1 <0>        -0.0854
     23 C14        -0.5864  -10.4963   -5.2659 C.ar      1 <0>        -0.1156
     24 C15        -1.6109  -11.2231   -4.6889 C.ar      1 <0>        -0.1177
     25 C16        -2.5979  -10.5755   -3.9697 C.ar      1 <0>        -0.1204
     26 C17        -2.5601   -9.2010   -3.8270 C.ar      1 <0>        -0.1151
     27 C18        -1.5332   -8.4746   -4.4004 C.ar      1 <0>        -0.1121
     28 C19         3.7548   -8.0037   -6.3739 C.3       1 <0>         0.1512
     29 C20         4.9023   -8.6837   -5.6725 C.ar      1 <0>        -0.1089
     30 C21         6.0704   -7.9876   -5.4238 C.ar      1 <0>        -0.0977
     31 C22         7.1231   -8.6113   -4.7805 C.ar      1 <0>        -0.1217
     32 C23         7.0074   -9.9310   -4.3855 C.ar      1 <0>        -0.1143
     33 C24         5.8389  -10.6268   -4.6334 C.ar      1 <0>        -0.1219
     34 C25         4.7847  -10.0018   -5.2729 C.ar      1 <0>        -0.1064
     35 C26         1.2376   -4.4535   -4.4420 C.3       1 <0>        -0.0662
     36 C27         2.1980   -3.2994   -4.7363 C.3       1 <0>        -0.1507
     37 C28         0.5172   -4.8585   -5.7297 C.3       1 <0>        -0.1508
     38 C29         0.2090   -4.0082   -3.4006 C.3       1 <0>        -0.1330
     39 H3          0.1732   -8.1830    2.1039 H         1 <0>         0.0537
     40 H4          1.7248   -8.3767    2.9543 H         1 <0>         0.0512
     41 H5          0.2831   -7.8334    3.8457 H         1 <0>         0.0526
     42 H6          0.2513   -5.7395    2.5180 H         1 <0>         0.0613
     43 H7          1.8029   -5.9331    3.3684 H         1 <0>         0.0571
     44 H8          2.8198   -6.8546    1.3031 H         1 <0>         0.0524
     45 H9          1.2682   -6.6609    0.4527 H         1 <0>         0.0802
     46 H10         1.3446   -4.2367    0.7753 H         1 <0>         0.0742
     47 H11         2.8200   -4.3827    1.7603 H         1 <0>         0.0740
     48 H12         4.1275   -3.2622   -1.5187 H         1 <0>         0.0958
     49 H13         2.7504   -2.6433   -0.5761 H         1 <0>         0.1052
     50 H14         6.1208   -4.0616   -0.2619 H         1 <0>         0.1520
     51 H15         4.7381   -1.8947    2.2221 H         1 <0>         0.3982
     52 H16         3.7574   -4.9640   -2.8802 H         1 <0>         0.4044
     53 H17         2.1582   -9.3352   -4.7041 H         1 <0>         0.0845
     54 H18         1.4783   -7.9349   -3.8408 H         1 <0>         0.0890
     55 H19         0.2346   -7.3061   -5.9262 H         1 <0>         0.0844
     56 H20         0.8475   -8.7861   -6.7023 H         1 <0>         0.0791
     57 H21         0.1847  -11.0023   -5.8278 H         1 <0>         0.1204
     58 H22        -1.6405  -12.2970   -4.8004 H         1 <0>         0.1219
     59 H23        -3.3988  -11.1433   -3.5195 H         1 <0>         0.1215
     60 H24        -3.3314   -8.6950   -3.2654 H         1 <0>         0.1226
     61 H25        -1.5016   -7.4012   -4.2858 H         1 <0>         0.1211
     62 H26         3.2347   -8.7256   -7.0036 H         1 <0>         0.0870
     63 H27         4.1368   -7.1912   -6.9919 H         1 <0>         0.0988
     64 H28         6.1608   -6.9566   -5.7325 H         1 <0>         0.1254
     65 H29         8.0359   -8.0677   -4.5869 H         1 <0>         0.1223
     66 H30         7.8300  -10.4185   -3.8835 H         1 <0>         0.1217
     67 H31         5.7487  -11.6579   -4.3250 H         1 <0>         0.1221
     68 H32         3.8705  -10.5442   -5.4632 H         1 <0>         0.1193
     69 H33         2.9308   -3.6167   -5.4782 H         1 <0>         0.0819
     70 H34         1.6362   -2.4484   -5.1213 H         1 <0>         0.0534
     71 H35         2.7112   -3.0109   -3.8190 H         1 <0>         0.0510
     72 H36        -0.1354   -5.7081   -5.5290 H         1 <0>         0.0603
     73 H37        -0.0783   -4.0204   -6.0918 H         1 <0>         0.0665
     74 H38         1.2522   -5.1354   -6.4855 H         1 <0>         0.0573
     75 H39         0.7223   -3.7197   -2.4833 H         1 <0>         0.0592
     76 H40        -0.3528   -3.1572   -3.7856 H         1 <0>         0.0527
     77 H41        -0.4751   -4.8304   -3.1910 H         1 <0>         0.0605
@<TRIPOS>BOND
     1    1    2 1
     2    1   39 1
     3    1   40 1
     4    1   41 1
     5    2    3 1
     6    2   42 1
     7    2   43 1
     8    3    4 1
     9    3   44 1
    10    3   45 1
    11    4    5 1
    12    4   46 1
    13    4   47 1
    14    5    6 1
    15    5    7 1
    16    5   12 1
    17    7    8 1
    18    7   48 1
    19    7   49 1
    20    8    9 am
    21    8   11 1
    22    9   10 2
    23    9   50 1
    24   11   51 1
    25   12   13 2
    26   12   14 am
    27   14   15 1
    28   14   52 1
    29   15   16 1
    30   15   17 1
    31   15   35 1
    32   17   18 2
    33   17   19 am
    34   19   20 1
    35   19   28 1
    36   20   21 1
    37   20   53 1
    38   20   54 1
    39   21   22 1
    40   21   55 1
    41   21   56 1
    42   22   27 ar
    43   22   23 ar
    44   23   24 ar
    45   23   57 1
    46   24   25 ar
    47   24   58 1
    48   25   26 ar
    49   25   59 1
    50   26   27 ar
    51   26   60 1
    52   27   61 1
    53   28   29 1
    54   28   62 1
    55   28   63 1
    56   29   34 ar
    57   29   30 ar
    58   30   31 ar
    59   30   64 1
    60   31   32 ar
    61   31   65 1
    62   32   33 ar
    63   32   66 1
    64   33   34 ar
    65   33   67 1
    66   34   68 1
    67   35   36 1
    68   35   37 1
    69   35   38 1
    70   36   69 1
    71   36   70 1
    72   36   71 1
    73   37   72 1
    74   37   73 1
    75   37   74 1
    76   38   75 1
    77   38   76 1
    78   38   77 1
@<TRIPOS>MOLECULE
CHEMBL92044
   56    57     0     0     0
SMALL
USER_CHARGES

@<TRIPOS>ATOM
      1 C1         -1.1852    2.7783    1.8969 C.3       1 <0>        -0.1542
      2 C2         -0.9999    1.2996    1.5504 C.3       1 <0>        -0.1270
      3 C3          0.1502    0.7222    2.3779 C.3       1 <0>        -0.1263
      4 C4          0.3355   -0.7565    2.0315 C.3       1 <0>        -0.1091
      5 C5          1.5410   -1.3115    2.7929 C.3       1 <0>        -0.1323
      6 H1          1.4170   -1.1201    3.8588 H         1 <0>         0.1158
      7 C6          2.8165   -0.6276    2.2969 C.3       1 <0>         0.1331
      8 N1          3.0649   -1.0084    0.9042 N.am      1 <0>        -0.4757
      9 C7          2.4323   -0.3612   -0.0945 C.2       1 <0>         0.4798
     10 O1          2.6379   -0.6765   -1.2474 O.2       1 <0>        -0.5447
     11 O2          3.9695   -2.0566    0.6074 O.3       1 <0>        -0.3227
     12 C8          1.6433   -2.7966    2.5579 C.2       1 <0>         0.5276
     13 O3          0.8924   -3.3399    1.7756 O.2       1 <0>        -0.4938
     14 N2          2.5692   -3.5210    3.2170 N.am      1 <0>        -0.5989
     15 C9          3.4221   -2.9146    4.2448 C.3       1 <0>         0.1465
     16 C10         4.8474   -3.3695    4.0552 C.ar      1 <0>        -0.1020
     17 C11         5.8373   -2.7160    4.7767 C.ar      1 <0>        -0.1120
     18 C12         7.1585   -3.0935    4.6535 C.ar      1 <0>        -0.1205
     19 C13         7.4986   -4.1315    3.8058 C.ar      1 <0>        -0.1120
     20 C14         6.5167   -4.7788    3.0857 C.ar      1 <0>        -0.1176
     21 C15         5.1856   -4.3967    3.2032 C.ar      1 <0>        -0.0535
     22 C16         4.1720   -5.1309    2.3656 C.3       1 <0>        -0.0816
     23 C17         2.7608   -4.9539    2.9384 C.3       1 <0>         0.1290
     24 C18         1.7374   -5.4195    1.9351 C.2       1 <0>         0.5417
     25 O4          2.0100   -5.4350    0.7534 O.2       1 <0>        -0.5266
     26 N3          0.5191   -5.8188    2.3509 N.am      1 <0>        -0.6129
     27 C19        -0.4375   -6.3733    1.3899 C.3       1 <0>         0.0998
     28 C20         0.1515   -5.6982    3.7639 C.3       1 <0>         0.0817
     29 H2         -0.2675    3.3218    1.6724 H         1 <0>         0.0543
     30 H3         -2.0046    3.1896    1.3073 H         1 <0>         0.0554
     31 H4         -1.4156    2.8768    2.9577 H         1 <0>         0.0546
     32 H5         -1.9177    0.7560    1.7749 H         1 <0>         0.0646
     33 H6         -0.7695    1.2010    0.4896 H         1 <0>         0.0623
     34 H7          1.0679    1.2657    2.1534 H         1 <0>         0.0633
     35 H8         -0.0802    0.8207    3.4387 H         1 <0>         0.0704
     36 H9         -0.5594   -1.3109    2.3142 H         1 <0>         0.0793
     37 H10         0.5037   -0.8603    0.9596 H         1 <0>         0.0701
     38 H11         2.6978    0.4540    2.3622 H         1 <0>         0.1106
     39 H12         3.6592   -0.9385    2.9144 H         1 <0>         0.1041
     40 H13         1.7423    0.4382    0.1319 H         1 <0>         0.1476
     41 H14         4.0679   -2.2353   -0.3378 H         1 <0>         0.3958
     42 H15         3.3738   -1.8289    4.1620 H         1 <0>         0.1000
     43 H16         3.0727   -3.2184    5.2316 H         1 <0>         0.0851
     44 H17         5.5710   -1.9057    5.4392 H         1 <0>         0.1234
     45 H18         7.9239   -2.5805    5.2170 H         1 <0>         0.1239
     46 H19         8.5306   -4.4345    3.7077 H         1 <0>         0.1231
     47 H20         6.7844   -5.5895    2.4243 H         1 <0>         0.1222
     48 H21         4.1992   -4.7424    1.3476 H         1 <0>         0.1023
     49 H22         4.4206   -6.1921    2.3504 H         1 <0>         0.0845
     50 H23         2.6604   -5.5256    3.8610 H         1 <0>         0.0967
     51 H24        -0.0125   -7.2638    0.9267 H         1 <0>         0.0554
     52 H25        -1.3600   -6.6378    1.9068 H         1 <0>         0.0693
     53 H26        -0.6519   -5.6310    0.6210 H         1 <0>         0.0616
     54 H27        -0.3558   -4.7474    3.9274 H         1 <0>         0.0513
     55 H28        -0.5141   -6.5169    4.0373 H         1 <0>         0.0698
     56 H29         1.0509   -5.7405    4.3782 H         1 <0>         0.0673
@<TRIPOS>BOND
     1    1    2 1
     2    1   29 1
     3    1   30 1
     4    1   31 1
     5    2    3 1
     6    2   32 1
     7    2   33 1
     8    3    4 1
     9    3   34 1
    10    3   35 1
    11    4    5 1
    12    4   36 1
    13    4   37 1
    14    5    6 1
    15    5    7 1
    16    5   12 1
    17    7    8 1
    18    7   38 1
    19    7   39 1
    20    8    9 am
    21    8   11 1
    22    9   10 2
    23    9   40 1
    24   11   41 1
    25   12   13 2
    26   12   14 am
    27   14   23 1
    28   14   15 1
    29   15   16 1
    30   15   42 1
    31   15   43 1
    32   16   21 ar
    33   16   17 ar
    34   17   18 ar
    35   17   44 1
    36   18   19 ar
    37   18   45 1
    38   19   20 ar
    39   19   46 1
    40   20   21 ar
    41   20   47 1
    42   21   22 1
    43   22   23 1
    44   22   48 1
    45   22   49 1
    46   23   24 1
    47   23   50 1
    48   24   25 2
    49   24   26 am
    50   26   27 1
    51   26   28 1
    52   27   51 1
    53   27   52 1
    54   27   53 1
    55   28   54 1
    56   28   55 1
    57   28   56 1
@<TRIPOS>MOLECULE
CHEMBL92044__1
   56    57     0     0     0
SMALL
USER_CHARGES

@<TRIPOS>ATOM
      1 C1         -4.0388   -2.0550    1.8252 C.3       1 <0>        -0.1519
      2 C2         -2.6527   -1.7827    1.2374 C.3       1 <0>        -0.1216
      3 C3         -1.5817   -2.3395    2.1775 C.3       1 <0>        -0.1217
      4 C4         -0.1956   -2.0672    1.5897 C.3       1 <0>        -0.0965
      5 C5          0.8771   -2.5066    2.5882 C.3       1 <0>        -0.1237
      6 H1          0.6889   -2.0371    3.5538 H         1 <0>         0.0949
      7 C6          2.2552   -2.0835    2.0754 C.3       1 <0>         0.1454
      8 N1          2.3287   -0.6213    2.0223 N.am      1 <0>        -0.4733
      9 C7          2.4576    0.0887    3.1605 C.2       1 <0>         0.4782
     10 O1          2.5185    1.2992    3.1165 O.2       1 <0>        -0.5487
     11 O2          2.2642    0.0459    0.7750 O.3       1 <0>        -0.3309
     12 C8          0.8367   -4.0052    2.7419 C.2       1 <0>         0.5080
     13 O3          0.0294   -4.6576    2.1146 O.2       1 <0>        -0.4351
     14 N2          1.6977   -4.6205    3.5765 N.am      1 <0>        -0.6274
     15 C9          2.2616   -3.9256    4.7387 C.3       1 <0>         0.1582
     16 C10         2.2167   -4.8318    5.9433 C.ar      1 <0>        -0.1008
     17 C11         2.4800   -4.2711    7.1858 C.ar      1 <0>        -0.1111
     18 C12         2.4639   -5.0510    8.3237 C.ar      1 <0>        -0.1179
     19 C13         2.1846   -6.4016    8.2251 C.ar      1 <0>        -0.1136
     20 C14         1.9190   -6.9589    6.9919 C.ar      1 <0>        -0.1179
     21 C15         1.9286   -6.1744    5.8447 C.ar      1 <0>        -0.0668
     22 C16         1.6027   -6.8463    4.5369 C.3       1 <0>        -0.1196
     23 C17         2.1051   -6.0189    3.3616 C.3       1 <0>         0.1404
     24 C18         1.4985   -6.5358    2.0826 C.2       1 <0>         0.4860
     25 O4          1.1179   -5.7573    1.2340 O.2       1 <0>        -0.4651
     26 N3          1.3791   -7.8631    1.8816 N.am      1 <0>        -0.6208
     27 C19         0.7895   -8.3656    0.6382 C.3       1 <0>         0.0951
     28 C20         1.8390   -8.8034    2.9066 C.3       1 <0>         0.0629
     29 H2         -4.1223   -1.5710    2.7983 H         1 <0>         0.0513
     30 H3         -4.8018   -1.6584    1.1555 H         1 <0>         0.0525
     31 H4         -4.1798   -3.1297    1.9407 H         1 <0>         0.0529
     32 H5         -2.5692   -2.2668    0.2643 H         1 <0>         0.0611
     33 H6         -2.5117   -0.7081    1.1219 H         1 <0>         0.0573
     34 H7         -1.6652   -1.8554    3.1506 H         1 <0>         0.0518
     35 H8         -1.7227   -3.4141    2.2930 H         1 <0>         0.0767
     36 H9         -0.0785   -2.6261    0.6612 H         1 <0>         0.0748
     37 H10        -0.0895   -1.0013    1.3880 H         1 <0>         0.0708
     38 H11         3.0250   -2.4618    2.7480 H         1 <0>         0.0944
     39 H12         2.4124   -2.4917    1.0770 H         1 <0>         0.1039
     40 H13         2.5068   -0.4202    4.1118 H         1 <0>         0.1495
     41 H14         2.3207    1.0090    0.8408 H         1 <0>         0.3970
     42 H15         3.2955   -3.6504    4.5302 H         1 <0>         0.0816
     43 H16         1.6809   -3.0255    4.9401 H         1 <0>         0.0942
     44 H17         2.6996   -3.2164    7.2621 H         1 <0>         0.1254
     45 H18         2.6682   -4.6084    9.2874 H         1 <0>         0.1253
     46 H19         2.1749   -7.0186    9.1115 H         1 <0>         0.1242
     47 H20         1.7020   -8.0142    6.9170 H         1 <0>         0.1231
     48 H21         2.0726   -7.8295    4.5120 H         1 <0>         0.1177
     49 H22         0.5222   -6.9640    4.4538 H         1 <0>         0.0870
     50 H23         3.1919   -6.0821    3.3071 H         1 <0>         0.1093
     51 H24         1.3829   -8.0233   -0.2096 H         1 <0>         0.0597
     52 H25         0.7769   -9.4554    0.6565 H         1 <0>         0.0741
     53 H26        -0.2300   -7.9920    0.5427 H         1 <0>         0.0610
     54 H27         1.0218   -9.0186    3.5951 H         1 <0>         0.0608
     55 H28         2.1663   -9.7279    2.4310 H         1 <0>         0.0727
     56 H29         2.6709   -8.3633    3.4564 H         1 <0>         0.0851
@<TRIPOS>BOND
     1    1    2 1
     2    1   29 1
     3    1   30 1
     4    1   31 1
     5    2    3 1
     6    2   32 1
     7    2   33 1
     8    3    4 1
     9    3   34 1
    10    3   35 1
    11    4    5 1
    12    4   36 1
    13    4   37 1
    14    5    6 1
    15    5    7 1
    16    5   12 1
    17    7    8 1
    18    7   38 1
    19    7   39 1
    20    8    9 am
    21    8   11 1
    22    9   10 2
    23    9   40 1
    24   11   41 1
    25   12   13 2
    26   12   14 am
    27   14   23 1
    28   14   15 1
    29   15   16 1
    30   15   42 1
    31   15   43 1
    32   16   21 ar
    33   16   17 ar
    34   17   18 ar
    35   17   44 1
    36   18   19 ar
    37   18   45 1
    38   19   20 ar
    39   19   46 1
    40   20   21 ar
    41   20   47 1
    42   21   22 1
    43   22   23 1
    44   22   48 1
    45   22   49 1
    46   23   24 1
    47   23   50 1
    48   24   25 2
    49   24   26 am
    50   26   27 1
    51   26   28 1
    52   27   51 1
    53   27   52 1
    54   27   53 1
    55   28   54 1
    56   28   55 1
    57   28   56 1
@<TRIPOS>MOLECULE
CHEMBL188894
   58    58     0     0     0
SMALL
NO_CHARGES

@<TRIPOS>ATOM
      1 C1         -0.1056    2.2831   -0.2079 C.3       1 <0>        -0.1868
      2 C2         -0.3195    0.7681   -0.2140 C.3       1 <0>        -0.0826
      3 C3          0.3960    0.1471    0.9873 C.3       1 <0>        -0.1352
      4 C4         -1.8166    0.4641   -0.1290 C.3       1 <0>        -0.1529
      5 C5          0.2481    0.1781   -1.5066 C.3       1 <0>         0.1349
      6 H1         -0.0079   -0.8795   -1.5690 H         1 <0>         0.1153
      7 C6         -0.3286    0.9088   -2.6918 C.2       1 <0>         0.5093
      8 O1         -0.2211    0.4575   -3.8124 O.2       1 <0>        -0.5306
      9 N1         -0.9788    2.0970   -2.4718 N.am      1 <0>        -0.7397
     10 C7         -1.5077    2.7327   -3.7062 C.3       1 <0>         0.0887
     11 C8         -1.3276    4.2472   -3.5840 C.3       1 <0>        -0.1334
     12 C9          0.0828    4.6313   -4.0357 C.3       1 <0>        -0.1170
     13 C10         0.6297    5.7294   -3.1214 C.3       1 <0>        -0.1177
     14 C11         2.1573    5.7483   -3.2043 C.3       1 <0>        -0.1216
     15 C12         2.7462    5.2577   -1.8802 C.3       1 <0>        -0.1204
     16 C13         3.7688    4.1533   -2.1549 C.3       1 <0>        -0.1155
     17 C14         3.9464    3.2985   -0.8985 C.3       1 <0>        -0.0993
     18 C15         3.6692    1.8322   -1.2358 C.3       1 <0>        -0.1292
     19 H2          4.1400    1.1924   -0.4894 H         1 <0>         0.0911
     20 C16         2.1819    1.5899   -1.2389 C.2       1 <0>         0.4286
     21 O2          1.4095    2.4927   -0.9950 O.2       1 <0>        -0.4313
     22 N2          1.7192    0.3343   -1.5193 N.am      1 <0>        -0.7178
     23 C17         4.2413    1.5098   -2.6178 C.3       1 <0>         0.1392
     24 N3          5.6822    1.7746   -2.6237 N.am      1 <0>        -0.4714
     25 C18         6.5240    0.9363   -1.9871 C.2       1 <0>         0.4785
     26 O3          7.7048    1.2029   -1.9137 O.2       1 <0>        -0.5488
     27 O4          6.1905    2.9111   -3.2982 O.3       1 <0>        -0.3288
     28 H3          0.8400    2.5145    0.2825 H         1 <0>         0.1195
     29 H4         -0.0826    2.6509   -1.2337 H         1 <0>         0.1645
     30 H5         -0.9219    2.7631    0.3320 H         1 <0>         0.0089
     31 H6         -0.0084    0.5674    1.9082 H         1 <0>         0.0597
     32 H7          0.2436   -0.9322    0.9830 H         1 <0>         0.0557
     33 H8          1.4625    0.3637    0.9268 H         1 <0>         0.0551
     34 H9         -2.3264    0.9065   -0.9849 H         1 <0>         0.0615
     35 H10        -1.9690   -0.6152   -0.1334 H         1 <0>         0.0598
     36 H11        -2.2210    0.8844    0.7918 H         1 <0>         0.0663
     37 H12        -1.0835    2.4869   -1.5898 H         1 <0>         0.4363
     38 H13        -0.9571    2.3663   -4.5727 H         1 <0>         0.0904
     39 H14        -2.5660    2.4965   -3.8164 H         1 <0>         0.0606
     40 H15        -2.0608    4.7521   -4.2129 H         1 <0>         0.0716
     41 H16        -1.4711    4.5474   -2.5460 H         1 <0>         0.0664
     42 H17         0.7320    3.7574   -3.9825 H         1 <0>         0.0646
     43 H18         0.0486    4.9967   -5.0621 H         1 <0>         0.0590
     44 H19         0.2366    6.6954   -3.4384 H         1 <0>         0.0551
     45 H20         0.3240    5.5323   -2.0939 H         1 <0>         0.0649
     46 H21         2.4854    5.0945   -4.0124 H         1 <0>         0.0617
     47 H22         2.4980    6.7653   -3.3988 H         1 <0>         0.0546
     48 H23         3.2358    6.0876   -1.3706 H         1 <0>         0.0515
     49 H24         1.9476    4.8650   -1.2508 H         1 <0>         0.0756
     50 H25         3.4155    3.5265   -2.9738 H         1 <0>         0.0660
     51 H26         4.7241    4.6022   -2.4270 H         1 <0>         0.0642
     52 H27         4.9677    3.4001   -0.5313 H         1 <0>         0.0620
     53 H28         3.2491    3.6327   -0.1302 H         1 <0>         0.0770
     54 H29         2.3147   -0.4054   -1.7170 H         1 <0>         0.4136
     55 H30         4.0639    0.4594   -2.8484 H         1 <0>         0.0908
     56 H31         3.7542    2.1337   -3.3672 H         1 <0>         0.1115
     57 H32         6.1470    0.0272   -1.5424 H         1 <0>         0.1502
     58 H33         7.1518    3.0017   -3.2468 H         1 <0>         0.3957
@<TRIPOS>BOND
     1    1    2 1
     2    1   28 1
     3    1   29 1
     4    1   30 1
     5    2    3 1
     6    2    4 1
     7    2    5 1
     8    3   31 1
     9    3   32 1
    10    3   33 1
    11    4   34 1
    12    4   35 1
    13    4   36 1
    14    5    6 1
    15    5   22 1
    16    5    7 1
    17    7    8 2
    18    7    9 am
    19    9   10 1
    20    9   37 1
    21   10   11 1
    22   10   38 1
    23   10   39 1
    24   11   12 1
    25   11   40 1
    26   11   41 1
    27   12   13 1
    28   12   42 1
    29   12   43 1
    30   13   14 1
    31   13   44 1
    32   13   45 1
    33   14   15 1
    34   14   46 1
    35   14   47 1
    36   15   16 1
    37   15   48 1
    38   15   49 1
    39   16   17 1
    40   16   50 1
    41   16   51 1
    42   17   18 1
    43   17   52 1
    44   17   53 1
    45   18   19 1
    46   18   20 1
    47   18   23 1
    48   20   21 2
    49   20   22 am
    50   22   54 1
    51   23   24 1
    52   23   55 1
    53   23   56 1
    54   24   25 am
    55   24   27 1
    56   25   26 2
    57   25   57 1
    58   27   58 1
@<TRIPOS>MOLECULE
CHEMBL286441
   41    42     0     0     0
SMALL
USER_CHARGES

@<TRIPOS>ATOM
      1 C1         -0.0187    1.5258    0.0104 C.3       1 <0>        -0.1545
      2 C2          0.0021   -0.0041    0.0020 C.3       1 <0>        -0.1234
      3 C3         -1.4333   -0.5336    0.0129 C.3       1 <0>        -0.1174
      4 C4         -1.4126   -2.0635    0.0045 C.3       1 <0>        -0.1364
      5 C5         -2.8479   -2.5931    0.0153 C.3       1 <0>         0.0902
      6 N1         -2.8281   -4.0579    0.0073 N.am      1 <0>        -0.5392
      7 C6         -2.8259   -4.6760   -1.2396 C.ar      1 <0>         0.1601
      8 C7         -2.4966   -3.9292   -2.3668 C.ar      1 <0>        -0.1439
      9 C8         -2.4785   -4.5216   -3.6137 C.ar      1 <0>        -0.0831
     10 C9         -2.7862   -5.8623   -3.7577 C.ar      1 <0>        -0.1264
     11 C10        -3.1183   -6.6159   -2.6469 C.ar      1 <0>        -0.0567
     12 C11        -3.1424   -6.0253   -1.3943 C.ar      1 <0>        -0.1451
     13 S1         -3.5871   -6.9758    0.0259 S.3       1 <0>        -0.0423
     14 C12        -2.6612   -6.1507    1.3568 C.3       1 <0>        -0.0829
     15 C13        -2.8086   -4.6609    1.1914 C.2       1 <0>         0.5263
     16 O1         -2.9199   -3.9787    2.1881 O.2       1 <0>        -0.5013
     17 C14        -1.1817   -6.5293    1.2650 C.3       1 <0>        -0.1190
     18 C15        -1.0234   -8.0048    1.5274 C.2       1 <0>         0.5311
     19 O2         -1.9981   -8.6865    1.7646 O.2       1 <0>        -0.4973
     20 N2          0.2012   -8.5668    1.4986 N.am      1 <0>        -0.5962
     21 O3          0.3499   -9.9533    1.7452 O.3       1 <0>        -0.3132
     22 H1          1.0039    1.9031    0.0027 H         1 <0>         0.0546
     23 H2         -0.5459    1.8868   -0.8726 H         1 <0>         0.0544
     24 H3         -0.5289    1.8773    0.9072 H         1 <0>         0.0547
     25 H4          0.5123   -0.3556   -0.8948 H         1 <0>         0.0611
     26 H5          0.5293   -0.3651    0.8851 H         1 <0>         0.0613
     27 H6         -1.9435   -0.1821    0.9097 H         1 <0>         0.0672
     28 H7         -1.9605   -0.1726   -0.8702 H         1 <0>         0.0654
     29 H8         -0.9024   -2.4150   -0.8923 H         1 <0>         0.0692
     30 H9         -0.8854   -2.4246    0.8875 H         1 <0>         0.0687
     31 H10        -3.3581   -2.2415    0.9121 H         1 <0>         0.1018
     32 H11        -3.3751   -2.2320   -0.8677 H         1 <0>         0.0905
     33 H12        -2.2545   -2.8815   -2.2657 H         1 <0>         0.1367
     34 H13        -2.2226   -3.9339   -4.4829 H         1 <0>         0.1328
     35 H14        -2.7674   -6.3196   -4.7359 H         1 <0>         0.1338
     36 H15        -3.3592   -7.6630   -2.7559 H         1 <0>         0.1370
     37 H16        -3.0610   -6.4548    2.3242 H         1 <0>         0.1610
     38 H17        -0.8080   -6.2954    0.2681 H         1 <0>         0.1061
     39 H18        -0.6157   -5.9656    2.0067 H         1 <0>         0.1173
     40 H19         0.9807   -8.0216    1.3090 H         1 <0>         0.4081
     41 H20         1.2645  -10.2644    1.7031 H         1 <0>         0.3892
@<TRIPOS>BOND
     1    1    2 1
     2    1   22 1
     3    1   23 1
     4    1   24 1
     5    2    3 1
     6    2   25 1
     7    2   26 1
     8    3    4 1
     9    3   27 1
    10    3   28 1
    11    4    5 1
    12    4   29 1
    13    4   30 1
    14    5    6 1
    15    5   31 1
    16    5   32 1
    17    6   15 am
    18    6    7 1
    19    7   12 ar
    20    7    8 ar
    21    8    9 ar
    22    8   33 1
    23    9   10 ar
    24    9   34 1
    25   10   11 ar
    26   10   35 1
    27   11   12 ar
    28   11   36 1
    29   12   13 1
    30   13   14 1
    31   14   15 1
    32   14   17 1
    33   14   37 1
    34   15   16 2
    35   17   18 1
    36   17   38 1
    37   17   39 1
    38   18   19 2
    39   18   20 am
    40   20   21 1
    41   20   40 1
    42   21   41 1
@<TRIPOS>MOLECULE
CHEMBL286441__1
   41    42     0     0     0
SMALL
USER_CHARGES

@<TRIPOS>ATOM
      1 C1         -5.7523    1.4454    0.4899 C.3       1 <0>        -0.1544
      2 C2         -5.7316   -0.0845    0.4815 C.3       1 <0>        -0.1234
      3 C3         -4.3001   -0.5738    0.2526 C.3       1 <0>        -0.1172
      4 C4         -4.2794   -2.1037    0.2442 C.3       1 <0>        -0.1353
      5 C5         -2.8479   -2.5931    0.0153 C.3       1 <0>         0.0909
      6 N1         -2.8281   -4.0579    0.0073 N.am      1 <0>        -0.5395
      7 C6         -2.9342   -4.6774   -1.2344 C.ar      1 <0>         0.1603
      8 C7         -3.3924   -3.9417   -2.3231 C.ar      1 <0>        -0.1437
      9 C8         -3.5160   -4.5363   -3.5630 C.ar      1 <0>        -0.0828
     10 C9         -3.1873   -5.8683   -3.7378 C.ar      1 <0>        -0.1266
     11 C10        -2.7269   -6.6106   -2.6659 C.ar      1 <0>        -0.0565
     12 C11        -2.5968   -6.0176   -1.4209 C.ar      1 <0>        -0.1454
     13 S1         -1.9896   -6.9534   -0.0520 S.3       1 <0>        -0.0428
     14 C12        -2.8043   -6.1528    1.3637 C.3       1 <0>        -0.0832
     15 C13        -2.7052   -4.6595    1.1859 C.2       1 <0>         0.5264
     16 O1         -2.5082   -3.9730    2.1663 O.2       1 <0>        -0.5006
     17 C14        -4.2746   -6.5726    1.4158 C.3       1 <0>        -0.1184
     18 C15        -4.3653   -8.0516    1.6903 C.2       1 <0>         0.5311
     19 O2         -3.3535   -8.7055    1.8306 O.2       1 <0>        -0.4973
     20 N2         -5.5707   -8.6477    1.7800 N.am      1 <0>        -0.5962
     21 O3         -5.6559  -10.0374    2.0380 O.3       1 <0>        -0.3132
     22 H1         -6.7721    1.7940    0.6530 H         1 <0>         0.0546
     23 H2         -5.1103    1.8130    1.2904 H         1 <0>         0.0547
     24 H3         -5.3894    1.8189   -0.4676 H         1 <0>         0.0543
     25 H4         -6.0945   -0.4580    1.4390 H         1 <0>         0.0613
     26 H5         -6.3736   -0.4521   -0.3189 H         1 <0>         0.0610
     27 H6         -3.9372   -0.2003   -0.7049 H         1 <0>         0.0651
     28 H7         -3.6581   -0.2062    1.0531 H         1 <0>         0.0671
     29 H8         -4.6423   -2.4772    1.2017 H         1 <0>         0.0693
     30 H9         -4.9214   -2.4714   -0.5562 H         1 <0>         0.0681
     31 H10        -2.4850   -2.2195   -0.9422 H         1 <0>         0.0916
     32 H11        -2.2059   -2.2254    0.8158 H         1 <0>         0.0994
     33 H12        -3.6527   -2.9011   -2.1975 H         1 <0>         0.1361
     34 H13        -3.8723   -3.9574   -4.4022 H         1 <0>         0.1329
     35 H14        -3.2904   -6.3279   -4.7097 H         1 <0>         0.1338
     36 H15        -2.4699   -7.6511   -2.7989 H         1 <0>         0.1370
     37 H16        -2.3040   -6.4443    2.2872 H         1 <0>         0.1607
     38 H17        -4.7813   -6.0240    2.2098 H         1 <0>         0.1173
     39 H18        -4.7499   -6.3506    0.4603 H         1 <0>         0.1061
     40 H19        -6.3799   -8.1248    1.6679 H         1 <0>         0.4081
     41 H20        -6.5612  -10.3740    2.0846 H         1 <0>         0.3892
@<TRIPOS>BOND
     1    1    2 1
     2    1   22 1
     3    1   23 1
     4    1   24 1
     5    2    3 1
     6    2   25 1
     7    2   26 1
     8    3    4 1
     9    3   27 1
    10    3   28 1
    11    4    5 1
    12    4   29 1
    13    4   30 1
    14    5    6 1
    15    5   31 1
    16    5   32 1
    17    6   15 am
    18    6    7 1
    19    7   12 ar
    20    7    8 ar
    21    8    9 ar
    22    8   33 1
    23    9   10 ar
    24    9   34 1
    25   10   11 ar
    26   10   35 1
    27   11   12 ar
    28   11   36 1
    29   12   13 1
    30   13   14 1
    31   14   15 1
    32   14   17 1
    33   14   37 1
    34   15   16 2
    35   17   18 1
    36   17   38 1
    37   17   39 1
    38   18   19 2
    39   18   20 am
    40   20   21 1
    41   20   40 1
    42   21   41 1
@<TRIPOS>MOLECULE
CHEMBL156543
   59    60     0     0     0
SMALL
USER_CHARGES

@<TRIPOS>ATOM
      1 C1         -2.8078   -2.0777   -0.1331 C.3       1 <0>        -0.1527
      2 C2         -1.3297   -1.6829   -0.1180 C.3       1 <0>        -0.1216
      3 C3         -0.6479   -2.3057    1.1019 C.3       1 <0>        -0.1249
      4 C4          0.8302   -1.9109    1.1170 C.3       1 <0>        -0.0965
      5 C5          1.4821   -2.4241    2.4025 C.3       1 <0>        -0.1314
      6 H1          0.9111   -2.0763    3.2634 H         1 <0>         0.1043
      7 C6          2.9151   -1.8958    2.4937 C.3       1 <0>         0.1431
      8 N1          2.8905   -0.4363    2.6175 N.am      1 <0>        -0.4749
      9 C7          2.5383    0.1350    3.7863 C.2       1 <0>         0.4788
     10 O1          2.5180    1.3433    3.8889 O.2       1 <0>        -0.5464
     11 O2          3.2369    0.3742    1.5093 O.3       1 <0>        -0.3314
     12 C8          1.5021   -3.9309    2.3886 C.2       1 <0>         0.5255
     13 O3          1.0405   -4.5348    1.4436 O.2       1 <0>        -0.5105
     14 N2          2.0331   -4.6074    3.4264 N.am      1 <0>        -0.7201
     15 C9          2.0526   -6.0722    3.4129 C.3       1 <0>         0.1162
     16 H2          1.1538   -6.4430    2.9201 H         1 <0>         0.1227
     17 C10         2.0981   -6.5870    4.8285 C.2       1 <0>         0.4345
     18 O4          2.3850   -5.8364    5.7384 O.2       1 <0>        -0.4281
     19 C11         1.8060   -7.9478    5.0975 C.2       1 <0>        -0.0702
     20 C12         1.8096   -8.5243    6.3311 C.2       1 <0>        -0.0830
     21 C13         1.4657   -9.8873    6.1488 C.ar      1 <0>        -0.1544
     22 C14         1.3079  -10.9708    7.0204 C.ar      1 <0>        -0.0541
     23 C15         0.9612  -12.1948    6.5244 C.ar      1 <0>        -0.1386
     24 C16         0.7643  -12.3731    5.1614 C.ar      1 <0>        -0.0705
     25 C17         0.9149  -11.3200    4.2854 C.ar      1 <0>        -0.1152
     26 C18         1.2664  -10.0644    4.7667 C.ar      1 <0>         0.0779
     27 O5          1.4749   -8.8736    4.1702 O.3       1 <0>        -0.1618
     28 C19         3.2883   -6.5588    2.6532 C.3       1 <0>        -0.0677
     29 C20         4.5499   -6.0384    3.3448 C.3       1 <0>        -0.1468
     30 C21         3.3086   -8.0886    2.6391 C.3       1 <0>        -0.1488
     31 C22         3.2420   -6.0361    1.2160 C.3       1 <0>        -0.1306
     32 H3         -3.2895   -1.7172    0.7759 H         1 <0>         0.0515
     33 H4         -3.2936   -1.6341   -1.0022 H         1 <0>         0.0527
     34 H5         -2.8935   -3.1632   -0.1836 H         1 <0>         0.0538
     35 H6         -0.8481   -2.0435   -1.0269 H         1 <0>         0.0613
     36 H7         -1.2441   -0.5975   -0.0674 H         1 <0>         0.0572
     37 H8         -1.1296   -1.9452    2.0108 H         1 <0>         0.0532
     38 H9         -0.7335   -3.3911    1.0514 H         1 <0>         0.0806
     39 H10         1.3323   -2.3497    0.2547 H         1 <0>         0.0742
     40 H11         0.9167   -0.8251    1.0741 H         1 <0>         0.0737
     41 H12         3.4062   -2.3263    3.3664 H         1 <0>         0.0953
     42 H13         3.4632   -2.1749    1.5938 H         1 <0>         0.1052
     43 H14         2.2742   -0.4832    4.6316 H         1 <0>         0.1532
     44 H15         3.1912    1.3237    1.6869 H         1 <0>         0.3983
     45 H16         2.4023   -4.1244    4.1822 H         1 <0>         0.4071
     46 H17         2.0320   -8.0366    7.2687 H         1 <0>         0.1694
     47 H18         1.4601  -10.8394    8.0815 H         1 <0>         0.1331
     48 H19         0.8395  -13.0308    7.1973 H         1 <0>         0.1347
     49 H20         0.4907  -13.3473    4.7839 H         1 <0>         0.1407
     50 H21         0.7600  -11.4700    3.2271 H         1 <0>         0.1383
     51 H22         4.5828   -6.4107    4.3687 H         1 <0>         0.0525
     52 H23         5.4302   -6.3851    2.8036 H         1 <0>         0.0645
     53 H24         4.5354   -4.9485    3.3548 H         1 <0>         0.0591
     54 H25         2.4098   -8.4594    2.1464 H         1 <0>         0.0679
     55 H26         4.1889   -8.4353    2.0979 H         1 <0>         0.0632
     56 H27         3.3416   -8.4610    3.6630 H         1 <0>         0.0595
     57 H28         3.2275   -4.9463    1.2260 H         1 <0>         0.0552
     58 H29         4.1224   -6.3828    0.6748 H         1 <0>         0.0542
     59 H30         2.3432   -6.4069    0.7233 H         1 <0>         0.0678
@<TRIPOS>BOND
     1    1    2 1
     2    1   32 1
     3    1   33 1
     4    1   34 1
     5    2    3 1
     6    2   35 1
     7    2   36 1
     8    3    4 1
     9    3   37 1
    10    3   38 1
    11    4    5 1
    12    4   39 1
    13    4   40 1
    14    5    6 1
    15    5    7 1
    16    5   12 1
    17    7    8 1
    18    7   41 1
    19    7   42 1
    20    8    9 am
    21    8   11 1
    22    9   10 2
    23    9   43 1
    24   11   44 1
    25   12   13 2
    26   12   14 am
    27   14   15 1
    28   14   45 1
    29   15   16 1
    30   15   17 1
    31   15   28 1
    32   17   18 2
    33   17   19 1
    34   19   27 1
    35   19   20 2
    36   20   21 1
    37   20   46 1
    38   21   26 ar
    39   21   22 ar
    40   22   23 ar
    41   22   47 1
    42   23   24 ar
    43   23   48 1
    44   24   25 ar
    45   24   49 1
    46   25   26 ar
    47   25   50 1
    48   26   27 1
    49   28   29 1
    50   28   30 1
    51   28   31 1
    52   29   51 1
    53   29   52 1
    54   29   53 1
    55   30   54 1
    56   30   55 1
    57   30   56 1
    58   31   57 1
    59   31   58 1
    60   31   59 1
@<TRIPOS>MOLECULE
CHEMBL91263
   64    64     0     0     0
SMALL
USER_CHARGES

@<TRIPOS>ATOM
      1 C1         -3.1593   -3.1164   -0.3895 C.3       1 <0>        -0.1525
      2 C2         -1.8191   -2.4191   -0.1477 C.3       1 <0>        -0.1218
      3 C3         -1.1657   -2.9926    1.1113 C.3       1 <0>        -0.1244
      4 C4          0.1745   -2.2953    1.3531 C.3       1 <0>        -0.0963
      5 C5          0.7668   -2.7746    2.6799 C.3       1 <0>        -0.1309
      6 H1          0.0347   -2.6366    3.4756 H         1 <0>         0.1036
      7 C6          2.0253   -1.9651    2.9987 C.3       1 <0>         0.1429
      8 N1          1.6615   -0.5632    3.2186 N.am      1 <0>        -0.4747
      9 C7          1.0749   -0.1925    4.3740 C.2       1 <0>         0.4789
     10 O1          0.7737    0.9682    4.5560 O.2       1 <0>        -0.5466
     11 O2          1.9262    0.4024    2.2173 O.3       1 <0>        -0.3315
     12 C8          1.1227   -4.2351    2.5726 C.2       1 <0>         0.5258
     13 O3          0.9223   -4.8336    1.5370 O.2       1 <0>        -0.5140
     14 N2          1.6636   -4.8761    3.6276 N.am      1 <0>        -0.7144
     15 C9          2.0095   -6.2959    3.5233 C.3       1 <0>         0.1362
     16 H2          1.2806   -6.8019    2.8902 H         1 <0>         0.1110
     17 C10         1.9999   -6.9174    4.8961 C.2       1 <0>         0.5197
     18 O4          2.2687   -6.2442    5.8685 O.2       1 <0>        -0.5339
     19 N3          1.6926   -8.2214    5.0433 N.am      1 <0>        -0.6047
     20 C11         1.4759   -9.0767    3.8685 C.3       1 <0>         0.0952
     21 C12         0.1146   -9.7659    4.0048 C.3       1 <0>        -0.1341
     22 C13         0.0545  -10.5077    5.3420 C.3       1 <0>        -0.0931
     23 C14         0.2062   -9.5069    6.4898 C.3       1 <0>        -0.1296
     24 C15         1.5741   -8.8161    6.3816 C.3       1 <0>         0.1100
     25 C16        -1.2908  -11.2259    5.4665 C.3       1 <0>        -0.1485
     26 C17         3.4037   -6.4373    2.9092 C.3       1 <0>        -0.0711
     27 C18         4.4343   -5.7746    3.8255 C.3       1 <0>        -0.1434
     28 C19         3.7426   -7.9207    2.7495 C.3       1 <0>        -0.1574
     29 C20         3.4285   -5.7580    1.5385 C.3       1 <0>        -0.1318
     30 H3         -3.8139   -2.9524    0.4665 H         1 <0>         0.0514
     31 H4         -3.6248   -2.7079   -1.2864 H         1 <0>         0.0527
     32 H5         -2.9940   -4.1858   -0.5208 H         1 <0>         0.0536
     33 H6         -1.1645   -2.5832   -1.0037 H         1 <0>         0.0613
     34 H7         -1.9844   -1.3497   -0.0164 H         1 <0>         0.0572
     35 H8         -1.8203   -2.8285    1.9673 H         1 <0>         0.0528
     36 H9         -1.0004   -4.0619    0.9800 H         1 <0>         0.0804
     37 H10         0.8608   -2.5354    0.5410 H         1 <0>         0.0741
     38 H11         0.0211   -1.2168    1.3923 H         1 <0>         0.0738
     39 H12         2.4957   -2.3637    3.8976 H         1 <0>         0.0962
     40 H13         2.7223   -2.0329    2.1633 H         1 <0>         0.1048
     41 H14         0.8730   -0.9289    5.1377 H         1 <0>         0.1532
     42 H15         1.6511    1.2990    2.4530 H         1 <0>         0.3982
     43 H16         1.8238   -4.3975    4.4559 H         1 <0>         0.4081
     44 H17         1.4878   -8.4667    2.9653 H         1 <0>         0.0939
     45 H18         2.2626   -9.8292    3.8142 H         1 <0>         0.0780
     46 H19        -0.6773   -9.0178    3.9679 H         1 <0>         0.0682
     47 H20        -0.0170  -10.4761    3.1885 H         1 <0>         0.0791
     48 H21         0.8618  -11.2387    5.3884 H         1 <0>         0.0734
     49 H22        -0.5865   -8.7612    6.4295 H         1 <0>         0.0672
     50 H23         0.1399  -10.0329    7.4423 H         1 <0>         0.0773
     51 H24         2.3687   -9.5477    6.5281 H         1 <0>         0.0702
     52 H25         1.6508   -8.0341    7.1371 H         1 <0>         0.0940
     53 H26        -1.3985  -11.9397    4.6498 H         1 <0>         0.0568
     54 H27        -1.3338  -11.7544    6.4189 H         1 <0>         0.0566
     55 H28        -2.0984  -10.4954    5.4195 H         1 <0>         0.0546
     56 H29         4.4166   -6.2585    4.8020 H         1 <0>         0.0599
     57 H30         5.4275   -5.8753    3.3880 H         1 <0>         0.0593
     58 H31         4.1928   -4.7177    3.9393 H         1 <0>         0.0570
     59 H32         3.0518   -8.3769    2.0403 H         1 <0>         0.0642
     60 H33         4.7628   -8.0226    2.3796 H         1 <0>         0.0658
     61 H34         3.6544   -8.4195    3.7146 H         1 <0>         0.0624
     62 H35         3.1871   -4.7012    1.6522 H         1 <0>         0.0541
     63 H36         4.4218   -5.8588    1.1010 H         1 <0>         0.0540
     64 H37         2.6944   -6.2302    0.8856 H         1 <0>         0.0676
@<TRIPOS>BOND
     1    1    2 1
     2    1   30 1
     3    1   31 1
     4    1   32 1
     5    2    3 1
     6    2   33 1
     7    2   34 1
     8    3    4 1
     9    3   35 1
    10    3   36 1
    11    4    5 1
    12    4   37 1
    13    4   38 1
    14    5    6 1
    15    5    7 1
    16    5   12 1
    17    7    8 1
    18    7   39 1
    19    7   40 1
    20    8    9 am
    21    8   11 1
    22    9   10 2
    23    9   41 1
    24   11   42 1
    25   12   13 2
    26   12   14 am
    27   14   15 1
    28   14   43 1
    29   15   16 1
    30   15   17 1
    31   15   26 1
    32   17   18 2
    33   17   19 am
    34   19   24 1
    35   19   20 1
    36   20   21 1
    37   20   44 1
    38   20   45 1
    39   21   22 1
    40   21   46 1
    41   21   47 1
    42   22   23 1
    43   22   25 1
    44   22   48 1
    45   23   24 1
    46   23   49 1
    47   23   50 1
    48   24   51 1
    49   24   52 1
    50   25   53 1
    51   25   54 1
    52   25   55 1
    53   26   27 1
    54   26   28 1
    55   26   29 1
    56   27   56 1
    57   27   57 1
    58   27   58 1
    59   28   59 1
    60   28   60 1
    61   28   61 1
    62   29   62 1
    63   29   63 1
    64   29   64 1
@<TRIPOS>MOLECULE
CHEMBL346581
   76    78     0     0     0
SMALL
USER_CHARGES

@<TRIPOS>ATOM
      1 C1         -0.5843    1.7942   -1.0204 C.3       1 <0>        -0.1522
      2 C2         -0.5749    0.3142   -0.6327 C.3       1 <0>        -0.0650
      3 C3         -0.2849    0.1808    0.8637 C.3       1 <0>        -0.1473
      4 C4         -1.9394   -0.3035   -0.9447 C.3       1 <0>        -0.1346
      5 C5          0.5091   -0.4148   -1.4292 C.3       1 <0>         0.1151
      6 H1          0.2424   -0.4190   -2.4861 H         1 <0>         0.1125
      7 C6          1.8275    0.2919   -1.2466 C.2       1 <0>         0.3925
      8 O1          1.9631    1.1019   -0.3534 O.2       1 <0>        -0.3894
      9 C7          2.9455    0.0009   -2.1475 C.ar      1 <0>        -0.1699
     10 C8          2.7622   -0.8487   -3.2475 C.ar      1 <0>        -0.0744
     11 C9          3.8169   -1.1174   -4.0901 C.ar      1 <0>         0.0540
     12 C10         5.0659   -0.5495   -3.8558 C.ar      1 <0>         0.1103
     13 C11         5.2614    0.2896   -2.7750 C.ar      1 <0>        -0.1481
     14 C12         4.2084    0.5770   -1.9175 C.ar      1 <0>         0.2795
     15 N1          4.4017    1.4245   -0.8352 N.pl3     1 <0>        -0.6664
     16 C13         4.8315    1.0118    0.5133 C.3       1 <0>         0.1468
     17 C14         4.3112    2.1272    1.4540 C.3       1 <0>        -0.1253
     18 C15         4.5168    3.3927    0.5802 C.3       1 <0>        -0.1199
     19 C16         4.2178    2.8831   -0.8456 C.3       1 <0>         0.1733
     20 H2          3.1900    3.1253   -1.1158 H         1 <0>         0.0745
     21 C17         5.1856    3.5225   -1.8433 C.3       1 <0>         0.0581
     22 O2          6.5291    3.3186   -1.4011 O.3       1 <0>        -0.5618
     23 F1          6.0937   -0.8206   -4.6897 F         1 <0>        -0.1194
     24 F2          3.6391   -1.9367   -5.1496 F         1 <0>        -0.1226
     25 N2          0.6237   -1.7941   -0.9490 N.am      1 <0>        -0.7174
     26 C18        -0.1944   -2.7477   -1.4368 C.2       1 <0>         0.5251
     27 O3         -1.0254   -2.4639   -2.2734 O.2       1 <0>        -0.5087
     28 C19        -0.0765   -4.1665   -0.9428 C.3       1 <0>        -0.1325
     29 H3          0.9238   -4.5435   -1.1559 H         1 <0>         0.1057
     30 C20        -1.1127   -5.0410   -1.6516 C.3       1 <0>        -0.0878
     31 C21        -0.7859   -6.5161   -1.4103 C.3       1 <0>        -0.1133
     32 C22         0.5094   -6.8991   -2.1556 C.3       1 <0>        -0.1218
     33 C23         0.2472   -8.3411   -2.6565 C.3       1 <0>        -0.1244
     34 C24        -1.2475   -8.2962   -3.0601 C.3       1 <0>        -0.1255
     35 C25        -1.9029   -7.4044   -1.9854 C.3       1 <0>        -0.1165
     36 C26        -0.3246   -4.2033    0.5664 C.3       1 <0>         0.1446
     37 N3         -0.0270   -5.5436    1.0777 N.am      1 <0>        -0.4704
     38 C27         1.2415   -5.9989    1.0768 C.2       1 <0>         0.4776
     39 O4          1.4879   -7.1084    1.5001 O.2       1 <0>        -0.5410
     40 O5         -1.0721   -6.3607    1.5728 O.3       1 <0>        -0.3273
     41 H4          0.3486    2.2592   -0.7017 H         1 <0>         0.0729
     42 H5         -0.6852    1.8859   -2.1018 H         1 <0>         0.0511
     43 H6         -1.4231    2.2919   -0.5337 H         1 <0>         0.0603
     44 H7         -1.1355    0.5548    1.4334 H         1 <0>         0.0537
     45 H8         -0.1160   -0.8678    1.1090 H         1 <0>         0.0478
     46 H9          0.6036    0.7602    1.1146 H         1 <0>         0.0775
     47 H10        -2.1461   -0.2085   -2.0107 H         1 <0>         0.0596
     48 H11        -1.9327   -1.3579   -0.6685 H         1 <0>         0.0576
     49 H12        -2.7117    0.2158   -0.3772 H         1 <0>         0.0511
     50 H13         1.7951   -1.2920   -3.4332 H         1 <0>         0.1532
     51 H14         6.2338    0.7259   -2.6000 H         1 <0>         0.1562
     52 H15         4.3841    0.0536    0.7773 H         1 <0>         0.0529
     53 H16         5.9186    0.9503    0.5627 H         1 <0>         0.0510
     54 H17         3.2566    1.9808    1.6876 H         1 <0>         0.0781
     55 H18         4.9078    2.1800    2.3647 H         1 <0>         0.0737
     56 H19         3.8163    4.1771    0.8667 H         1 <0>         0.0732
     57 H20         5.5450    3.7475    0.6513 H         1 <0>         0.0832
     58 H21         5.0522    3.0646   -2.8234 H         1 <0>         0.0407
     59 H22         4.9838    4.5915   -1.9112 H         1 <0>         0.0503
     60 H23         7.1980    3.6986   -1.9871 H         1 <0>         0.3757
     61 H24         1.2883   -2.0211   -0.2800 H         1 <0>         0.4022
     62 H25        -2.1049   -4.8197   -1.2583 H         1 <0>         0.0710
     63 H26        -1.0917   -4.8345   -2.7216 H         1 <0>         0.0776
     64 H27        -0.6724   -6.7033   -0.3425 H         1 <0>         0.0981
     65 H28         0.6779   -6.2275   -2.9974 H         1 <0>         0.0652
     66 H29         1.3607   -6.8805   -1.4751 H         1 <0>         0.0556
     67 H30         0.8734   -8.5703   -3.5187 H         1 <0>         0.0639
     68 H31         0.4098   -9.0635   -1.8566 H         1 <0>         0.0651
     69 H32        -1.3627   -7.8503   -4.0480 H         1 <0>         0.0638
     70 H33        -1.6784   -9.2973   -3.0398 H         1 <0>         0.0624
     71 H34        -2.3310   -8.0234   -1.1969 H         1 <0>         0.0610
     72 H35        -2.6779   -6.7847   -2.4364 H         1 <0>         0.0629
     73 H36         0.3203   -3.4753    1.0586 H         1 <0>         0.0899
     74 H37        -1.3677   -3.9604    0.7692 H         1 <0>         0.1074
     75 H38         2.0386   -5.3756    0.6992 H         1 <0>         0.1489
     76 H39        -0.7788   -7.2265    1.8880 H         1 <0>         0.3984
@<TRIPOS>BOND
     1    1    2 1
     2    1   41 1
     3    1   42 1
     4    1   43 1
     5    2    3 1
     6    2    4 1
     7    2    5 1
     8    3   44 1
     9    3   45 1
    10    3   46 1
    11    4   47 1
    12    4   48 1
    13    4   49 1
    14    5    6 1
    15    5    7 1
    16    5   25 1
    17    7    8 2
    18    7    9 1
    19    9   14 ar
    20    9   10 ar
    21   10   11 ar
    22   10   50 1
    23   11   12 ar
    24   11   24 1
    25   12   13 ar
    26   12   23 1
    27   13   14 ar
    28   13   51 1
    29   14   15 1
    30   15   19 1
    31   15   16 1
    32   16   17 1
    33   16   52 1
    34   16   53 1
    35   17   18 1
    36   17   54 1
    37   17   55 1
    38   18   19 1
    39   18   56 1
    40   18   57 1
    41   19   20 1
    42   19   21 1
    43   21   22 1
    44   21   58 1
    45   21   59 1
    46   22   60 1
    47   25   26 am
    48   25   61 1
    49   26   27 2
    50   26   28 1
    51   28   29 1
    52   28   30 1
    53   28   36 1
    54   30   31 1
    55   30   62 1
    56   30   63 1
    57   31   35 1
    58   31   32 1
    59   31   64 1
    60   32   33 1
    61   32   65 1
    62   32   66 1
    63   33   34 1
    64   33   67 1
    65   33   68 1
    66   34   35 1
    67   34   69 1
    68   34   70 1
    69   35   71 1
    70   35   72 1
    71   36   37 1
    72   36   73 1
    73   36   74 1
    74   37   38 am
    75   37   40 1
    76   38   39 2
    77   38   75 1
    78   40   76 1
@<TRIPOS>MOLECULE
CHEMBL345440
   81    83     0     0     0
SMALL
USER_CHARGES

@<TRIPOS>ATOM
      1 C1         -0.5832    1.7957   -1.0203 C.3       1 <0>        -0.1523
      2 C2         -0.5749    0.3157   -0.6326 C.3       1 <0>        -0.0651
      3 C3         -0.2851    0.1820    0.8637 C.3       1 <0>        -0.1476
      4 C4         -1.9399   -0.3009   -0.9447 C.3       1 <0>        -0.1346
      5 C5          0.5085   -0.4142   -1.4291 C.3       1 <0>         0.1155
      6 H1          0.2419   -0.4182   -2.4860 H         1 <0>         0.1124
      7 C6          1.8275    0.2914   -1.2464 C.2       1 <0>         0.3909
      8 O1          1.9637    1.1013   -0.3532 O.2       1 <0>        -0.3863
      9 C7          2.9454   -0.0005   -2.1472 C.ar      1 <0>        -0.1676
     10 C8          2.7616   -0.8505   -3.2468 C.ar      1 <0>        -0.0730
     11 C9          3.8162   -1.1201   -4.0894 C.ar      1 <0>         0.0542
     12 C10         5.0654   -0.5527   -3.8553 C.ar      1 <0>         0.1118
     13 C11         5.2614    0.2869   -2.7749 C.ar      1 <0>        -0.1506
     14 C12         4.2085    0.5751   -1.9175 C.ar      1 <0>         0.2607
     15 N1          4.4022    1.4231   -0.8356 N.pl3     1 <0>        -0.6689
     16 C13         4.8333    0.8967    0.4683 C.3       1 <0>         0.1551
     17 C14         6.0467    1.7039    0.9420 C.3       1 <0>         0.0409
     18 N2          5.7144    3.1347    0.9289 N.3       1 <0>        -0.5221
     19 C15         5.4208    3.6011   -0.4329 C.3       1 <0>         0.0369
     20 C16         4.1876    2.8724   -0.9646 C.3       1 <0>         0.1565
     21 C17         6.7889    3.9303    1.5375 C.3       1 <0>         0.0541
     22 C18         6.3093    5.3700    1.7333 C.3       1 <0>         0.0796
     23 O2          5.2400    5.3911    2.6809 O.3       1 <0>        -0.5581
     24 F1          6.0930   -0.8246   -4.6891 F         1 <0>        -0.1196
     25 F2          3.6379   -1.9398   -5.1484 F         1 <0>        -0.1224
     26 N3          0.6220   -1.7936   -0.9488 N.am      1 <0>        -0.7173
     27 C19        -0.1968   -2.7465   -1.4367 C.2       1 <0>         0.5250
     28 O3         -1.0275   -2.4620   -2.2733 O.2       1 <0>        -0.5087
     29 C20        -0.0801   -4.1654   -0.9427 C.3       1 <0>        -0.1324
     30 H2          0.9199   -4.5432   -1.1557 H         1 <0>         0.1055
     31 C21        -1.1170   -5.0391   -1.6514 C.3       1 <0>        -0.0879
     32 C22        -0.7913   -6.5145   -1.4102 C.3       1 <0>        -0.1133
     33 C23         0.5037   -6.8985   -2.1554 C.3       1 <0>        -0.1217
     34 C24         0.2403   -8.3403   -2.6563 C.3       1 <0>        -0.1245
     35 C25        -1.2543   -8.2942   -3.0599 C.3       1 <0>        -0.1254
     36 C26        -1.9091   -7.4019   -1.9853 C.3       1 <0>        -0.1166
     37 C27        -0.3283   -4.2020    0.5666 C.3       1 <0>         0.1443
     38 N4         -0.0319   -5.5425    1.0779 N.am      1 <0>        -0.4703
     39 C28         1.2363   -5.9988    1.0771 C.2       1 <0>         0.4776
     40 O4          1.4817   -7.1085    1.5004 O.2       1 <0>        -0.5413
     41 O5         -1.0777   -6.3588    1.5729 O.3       1 <0>        -0.3272
     42 H3          0.3501    2.2600   -0.7017 H         1 <0>         0.0736
     43 H4         -0.6839    1.8874   -2.1018 H         1 <0>         0.0509
     44 H5         -1.4216    2.2941   -0.5338 H         1 <0>         0.0604
     45 H6         -1.1355    0.5568    1.4334 H         1 <0>         0.0538
     46 H7         -0.1171   -0.8666    1.1091 H         1 <0>         0.0475
     47 H8          0.6038    0.7608    1.1148 H         1 <0>         0.0783
     48 H9         -2.1464   -0.2058   -2.0108 H         1 <0>         0.0594
     49 H10        -1.9341   -1.3553   -0.6685 H         1 <0>         0.0574
     50 H11        -2.7118    0.2190   -0.3773 H         1 <0>         0.0511
     51 H12         1.7942   -1.2934   -3.4323 H         1 <0>         0.1534
     52 H13         6.2339    0.7228   -2.6002 H         1 <0>         0.1508
     53 H14         4.0225    0.9970    1.1899 H         1 <0>         0.0698
     54 H15         5.1088   -0.1529    0.3665 H         1 <0>         0.0679
     55 H16         6.3118    1.4013    1.9551 H         1 <0>         0.0819
     56 H17         6.8889    1.5199    0.2750 H         1 <0>         0.0331
     57 H18         5.2319    4.6745   -0.4169 H         1 <0>         0.0824
     58 H19         6.2717    3.3906   -1.0808 H         1 <0>         0.0320
     59 H20         4.0365    3.1283   -2.0132 H         1 <0>         0.0669
     60 H21         3.3135    3.1663   -0.3834 H         1 <0>         0.0722
     61 H22         7.0558    3.5017    2.5036 H         1 <0>         0.0831
     62 H23         7.6610    3.9236    0.8837 H         1 <0>         0.0460
     63 H24         7.1336    5.9806    2.1018 H         1 <0>         0.0475
     64 H25         5.9590    5.7688    0.7813 H         1 <0>         0.0450
     65 H26         4.8857    6.2740    2.8545 H         1 <0>         0.3754
     66 H27         1.2864   -2.0211   -0.2797 H         1 <0>         0.4022
     67 H28        -2.1090   -4.8170   -1.2582 H         1 <0>         0.0710
     68 H29        -1.0957   -4.8326   -2.7215 H         1 <0>         0.0776
     69 H30        -0.6781   -6.7018   -0.3424 H         1 <0>         0.0981
     70 H31         0.6728   -6.2271   -2.9972 H         1 <0>         0.0652
     71 H32         1.3550   -6.8806   -1.4749 H         1 <0>         0.0556
     72 H33         0.8664   -8.5701   -3.5185 H         1 <0>         0.0638
     73 H34         0.4024   -9.0628   -1.8564 H         1 <0>         0.0651
     74 H35        -1.3691   -7.8482   -4.0479 H         1 <0>         0.0638
     75 H36        -1.6860   -9.2949   -3.0396 H         1 <0>         0.0623
     76 H37        -2.3377   -8.0205   -1.1968 H         1 <0>         0.0610
     77 H38        -2.6836   -6.7815   -2.4363 H         1 <0>         0.0629
     78 H39         0.3171   -3.4745    1.0587 H         1 <0>         0.0904
     79 H40        -1.3712   -3.9583    0.7693 H         1 <0>         0.1075
     80 H41         2.0340   -5.3762    0.6995 H         1 <0>         0.1488
     81 H42        -0.7850   -7.2248    1.8881 H         1 <0>         0.3983
@<TRIPOS>BOND
     1    1    2 1
     2    1   42 1
     3    1   43 1
     4    1   44 1
     5    2    3 1
     6    2    4 1
     7    2    5 1
     8    3   45 1
     9    3   46 1
    10    3   47 1
    11    4   48 1
    12    4   49 1
    13    4   50 1
    14    5    6 1
    15    5    7 1
    16    5   26 1
    17    7    8 2
    18    7    9 1
    19    9   14 ar
    20    9   10 ar
    21   10   11 ar
    22   10   51 1
    23   11   12 ar
    24   11   25 1
    25   12   13 ar
    26   12   24 1
    27   13   14 ar
    28   13   52 1
    29   14   15 1
    30   15   20 1
    31   15   16 1
    32   16   17 1
    33   16   53 1
    34   16   54 1
    35   17   18 1
    36   17   55 1
    37   17   56 1
    38   18   19 1
    39   18   21 1
    40   19   20 1
    41   19   57 1
    42   19   58 1
    43   20   59 1
    44   20   60 1
    45   21   22 1
    46   21   61 1
    47   21   62 1
    48   22   23 1
    49   22   63 1
    50   22   64 1
    51   23   65 1
    52   26   27 am
    53   26   66 1
    54   27   28 2
    55   27   29 1
    56   29   30 1
    57   29   31 1
    58   29   37 1
    59   31   32 1
    60   31   67 1
    61   31   68 1
    62   32   36 1
    63   32   33 1
    64   32   69 1
    65   33   34 1
    66   33   70 1
    67   33   71 1
    68   34   35 1
    69   34   72 1
    70   34   73 1
    71   35   36 1
    72   35   74 1
    73   35   75 1
    74   36   76 1
    75   36   77 1
    76   37   38 1
    77   37   78 1
    78   37   79 1
    79   38   39 am
    80   38   41 1
    81   39   40 2
    82   39   80 1
    83   41   81 1
@<TRIPOS>MOLECULE
CHEMBL345440__1
   82    84     0     0     0
SMALL
USER_CHARGES

@<TRIPOS>ATOM
      1 C1         -0.5831    1.7957   -1.0203 C.3       1 <0>        -0.1513
      2 C2         -0.5749    0.3157   -0.6326 C.3       1 <0>        -0.0652
      3 C3         -0.2851    0.1821    0.8637 C.3       1 <0>        -0.1462
      4 C4         -1.9399   -0.3009   -0.9447 C.3       1 <0>        -0.1381
      5 C5          0.5085   -0.4142   -1.4291 C.3       1 <0>         0.1131
      6 H1          0.2419   -0.4182   -2.4860 H         1 <0>         0.1153
      7 C6          1.8275    0.2914   -1.2464 C.2       1 <0>         0.4042
      8 O1          1.9637    1.1013   -0.3532 O.2       1 <0>        -0.4094
      9 C7          2.9454   -0.0005   -2.1472 C.ar      1 <0>        -0.1592
     10 C8          2.7616   -0.8506   -3.2468 C.ar      1 <0>        -0.0694
     11 C9          3.8162   -1.1202   -4.0893 C.ar      1 <0>         0.0718
     12 C10         5.0654   -0.5527   -3.8553 C.ar      1 <0>         0.1171
     13 C11         5.2614    0.2868   -2.7749 C.ar      1 <0>        -0.1453
     14 C12         4.2085    0.5751   -1.9175 C.ar      1 <0>         0.2323
     15 N1          4.4022    1.4230   -0.8356 N.pl3     1 <0>        -0.6660
     16 C13         4.8334    0.8981    0.4692 C.3       1 <0>         0.1219
     17 C14         6.0348    1.7187    0.9499 C.3       1 <0>        -0.0226
     18 N2          5.6815    3.1439    0.9568 N.4       1 <0>        -0.3790
     19 C15         5.4146    3.5996   -0.4133 C.3       1 <0>        -0.0279
     20 C16         4.1880    2.8729   -0.9631 C.3       1 <0>         0.1237
     21 C17         6.7941    3.9196    1.5210 C.3       1 <0>        -0.0052
     22 C18         6.3813    5.3877    1.6446 C.3       1 <0>         0.0448
     23 O2          5.3190    5.5055    2.5932 O.3       1 <0>        -0.5797
     24 F1          6.0930   -0.8246   -4.6891 F         1 <0>        -0.1116
     25 F2          3.6379   -1.9398   -5.1484 F         1 <0>        -0.1127
     26 N3          0.6220   -1.7936   -0.9488 N.am      1 <0>        -0.7214
     27 C19        -0.1969   -2.7465   -1.4367 C.2       1 <0>         0.5250
     28 O3         -1.0276   -2.4620   -2.2733 O.2       1 <0>        -0.5019
     29 C20        -0.0802   -4.1654   -0.9427 C.3       1 <0>        -0.1317
     30 H2          0.9198   -4.5432   -1.1557 H         1 <0>         0.1058
     31 C21        -1.1171   -5.0391   -1.6514 C.3       1 <0>        -0.0892
     32 C22        -0.7914   -6.5144   -1.4102 C.3       1 <0>        -0.1131
     33 C23         0.5035   -6.8985   -2.1553 C.3       1 <0>        -0.1208
     34 C24         0.2402   -8.3403   -2.6563 C.3       1 <0>        -0.1250
     35 C25        -1.2545   -8.2942   -3.0599 C.3       1 <0>        -0.1260
     36 C26        -1.9092   -7.4018   -1.9853 C.3       1 <0>        -0.1173
     37 C27        -0.3284   -4.2020    0.5666 C.3       1 <0>         0.1458
     38 N4         -0.0320   -5.5425    1.0779 N.am      1 <0>        -0.4715
     39 C28         1.2362   -5.9988    1.0771 C.2       1 <0>         0.4764
     40 O4          1.4816   -7.1085    1.5004 O.2       1 <0>        -0.5369
     41 O5         -1.0778   -6.3587    1.5729 O.3       1 <0>        -0.3253
     42 H3          0.3502    2.2600   -0.7017 H         1 <0>         0.0677
     43 H4         -0.6839    1.8874   -2.1018 H         1 <0>         0.0527
     44 H5         -1.4215    2.2941   -0.5338 H         1 <0>         0.0630
     45 H6         -1.1355    0.5568    1.4334 H         1 <0>         0.0565
     46 H7         -0.1171   -0.8666    1.1091 H         1 <0>         0.0495
     47 H8          0.6038    0.7608    1.1148 H         1 <0>         0.0720
     48 H9         -2.1464   -0.2057   -2.0108 H         1 <0>         0.0617
     49 H10        -1.9341   -1.3553   -0.6685 H         1 <0>         0.0595
     50 H11        -2.7118    0.2191   -0.3773 H         1 <0>         0.0542
     51 H12         1.7942   -1.2935   -3.4323 H         1 <0>         0.1598
     52 H13         6.2339    0.7227   -2.6002 H         1 <0>         0.1529
     53 H14         4.0182    0.9869    1.1873 H         1 <0>         0.0885
     54 H15         5.1221   -0.1479    0.3659 H         1 <0>         0.1141
     55 H16         6.3078    1.4070    1.9581 H         1 <0>         0.1382
     56 H17         6.8779    1.5565    0.2784 H         1 <0>         0.1301
     57 H18         5.2307    4.6740   -0.4096 H         1 <0>         0.1368
     58 H19         6.2765    3.3805   -1.0435 H         1 <0>         0.1300
     59 H20         4.0502    3.1319   -2.0129 H         1 <0>         0.1133
     60 H21         3.3065    3.1645   -0.3921 H         1 <0>         0.0908
     61 H22         7.0464    3.5289    2.5068 H         1 <0>         0.1383
     62 H23         7.6615    3.8401    0.8658 H         1 <0>         0.1408
     63 H24         7.2343    5.9781    1.9792 H         1 <0>         0.0950
     64 H25         6.0444    5.7533    0.6746 H         1 <0>         0.0714
     65 H26         5.0060    6.4112    2.7227 H         1 <0>         0.4096
     66 H27         1.2864   -2.0211   -0.2797 H         1 <0>         0.4009
     67 H28        -2.1091   -4.8170   -1.2582 H         1 <0>         0.0722
     68 H29        -1.0958   -4.8326   -2.7215 H         1 <0>         0.0781
     69 H30        -0.6782   -6.7017   -0.3424 H         1 <0>         0.0980
     70 H31         0.6727   -6.2271   -2.9972 H         1 <0>         0.0640
     71 H32         1.3549   -6.8806   -1.4749 H         1 <0>         0.0544
     72 H33         0.8662   -8.5701   -3.5185 H         1 <0>         0.0645
     73 H34         0.4022   -9.0628   -1.8564 H         1 <0>         0.0660
     74 H35        -1.3693   -7.8482   -4.0479 H         1 <0>         0.0642
     75 H36        -1.6861   -9.2949   -3.0396 H         1 <0>         0.0642
     76 H37        -2.3378   -8.0204   -1.1968 H         1 <0>         0.0623
     77 H38        -2.6837   -6.7815   -2.4363 H         1 <0>         0.0634
     78 H39         0.3170   -3.4745    1.0587 H         1 <0>         0.0871
     79 H40        -1.3713   -3.9582    0.7693 H         1 <0>         0.1080
     80 H41         2.0339   -5.3763    0.6995 H         1 <0>         0.1463
     81 H42        -0.7852   -7.2248    1.8881 H         1 <0>         0.4004
     82 H43         4.8575    3.2822    1.5225 H         1 <0>         0.4315
@<TRIPOS>BOND
     1    1    2 1
     2    1   42 1
     3    1   43 1
     4    1   44 1
     5    2    3 1
     6    2    4 1
     7    2    5 1
     8    3   45 1
     9    3   46 1
    10    3   47 1
    11    4   48 1
    12    4   49 1
    13    4   50 1
    14    5    6 1
    15    5    7 1
    16    5   26 1
    17    7    8 2
    18    7    9 1
    19    9   14 ar
    20    9   10 ar
    21   10   11 ar
    22   10   51 1
    23   11   12 ar
    24   11   25 1
    25   12   13 ar
    26   12   24 1
    27   13   14 ar
    28   13   52 1
    29   14   15 1
    30   15   20 1
    31   15   16 1
    32   16   17 1
    33   16   53 1
    34   16   54 1
    35   17   18 1
    36   17   55 1
    37   17   56 1
    38   18   19 1
    39   18   21 1
    40   18   82 1
    41   19   20 1
    42   19   57 1
    43   19   58 1
    44   20   59 1
    45   20   60 1
    46   21   22 1
    47   21   61 1
    48   21   62 1
    49   22   23 1
    50   22   63 1
    51   22   64 1
    52   23   65 1
    53   26   27 am
    54   26   66 1
    55   27   28 2
    56   27   29 1
    57   29   30 1
    58   29   31 1
    59   29   37 1
    60   31   32 1
    61   31   67 1
    62   31   68 1
    63   32   36 1
    64   32   33 1
    65   32   69 1
    66   33   34 1
    67   33   70 1
    68   33   71 1
    69   34   35 1
    70   34   72 1
    71   34   73 1
    72   35   36 1
    73   35   74 1
    74   35   75 1
    75   36   76 1
    76   36   77 1
    77   37   38 1
    78   37   78 1
    79   37   79 1
    80   38   39 am
    81   38   41 1
    82   39   40 2
    83   39   80 1
    84   41   81 1
@<TRIPOS>MOLECULE
CHEMBL37719
   26    27     0     0     0
SMALL
USER_CHARGES

@<TRIPOS>ATOM
      1 C1         -0.0166    1.3765    0.0096 C.ar      1 <0>        -0.0821
      2 C2          1.1657    2.0938    0.0022 C.ar      1 <0>        -0.1252
      3 C3          2.3766    1.4260   -0.0083 C.ar      1 <0>        -0.0566
      4 C4          2.4008    0.0412   -0.0145 C.ar      1 <0>        -0.1450
      5 C5          1.2131   -0.6895   -0.0146 C.ar      1 <0>         0.1548
      6 C6          0.0021   -0.0041    0.0020 C.ar      1 <0>        -0.1400
      7 N1          1.2051   -2.0808   -0.0439 N.am      1 <0>        -0.6522
      8 C7          2.2206   -2.8734   -0.3704 C.2       1 <0>         0.5292
      9 O1          2.0829   -4.0713   -0.2383 O.2       1 <0>        -0.5038
     10 C8          3.5343   -2.3571   -0.8971 C.3       1 <0>        -0.0841
     11 S1          3.9432   -0.8187   -0.0170 S.3       1 <0>        -0.0413
     12 C9          3.4123   -2.0752   -2.3959 C.3       1 <0>        -0.1196
     13 C10         4.7586   -1.6767   -2.9433 C.2       1 <0>         0.5311
     14 O2          5.7210   -1.6233   -2.2071 O.2       1 <0>        -0.4981
     15 N2          4.8933   -1.3795   -4.2510 N.am      1 <0>        -0.5961
     16 O3          6.1583   -1.0051   -4.7653 O.3       1 <0>        -0.3132
     17 H1         -0.9612    1.8998    0.0260 H         1 <0>         0.1341
     18 H2          1.1434    3.1736    0.0042 H         1 <0>         0.1348
     19 H3          3.3017    1.9833   -0.0113 H         1 <0>         0.1378
     20 H4         -0.9272   -0.5544    0.0094 H         1 <0>         0.1337
     21 H5          0.3733   -2.5167    0.1992 H         1 <0>         0.4155
     22 H6          4.3152   -3.0973   -0.7228 H         1 <0>         0.1625
     23 H7          3.0634   -2.9724   -2.9071 H         1 <0>         0.1185
     24 H8          2.7006   -1.2654   -2.5566 H         1 <0>         0.1072
     25 H9          4.1237   -1.4222   -4.8398 H         1 <0>         0.4085
     26 H10         6.1560   -0.8110   -5.7127 H         1 <0>         0.3894
@<TRIPOS>BOND
     1    1    6 ar
     2    1    2 ar
     3    1   17 1
     4    2    3 ar
     5    2   18 1
     6    3    4 ar
     7    3   19 1
     8    4   11 1
     9    4    5 ar
    10    5    6 ar
    11    5    7 1
    12    6   20 1
    13    7    8 am
    14    7   21 1
    15    8    9 2
    16    8   10 1
    17   10   11 1
    18   10   12 1
    19   10   22 1
    20   12   13 1
    21   12   23 1
    22   12   24 1
    23   13   14 2
    24   13   15 am
    25   15   16 1
    26   15   25 1
    27   16   26 1
@<TRIPOS>MOLECULE
CHEMBL37719__1
   26    27     0     0     0
SMALL
USER_CHARGES

@<TRIPOS>ATOM
      1 C1         -0.0166    1.3765    0.0096 C.ar      1 <0>        -0.0821
      2 C2          1.1657    2.0938    0.0022 C.ar      1 <0>        -0.1253
      3 C3          2.3765    1.4261   -0.0176 C.ar      1 <0>        -0.0566
      4 C4          2.4007    0.0412   -0.0267 C.ar      1 <0>        -0.1451
      5 C5          1.2131   -0.6895   -0.0118 C.ar      1 <0>         0.1548
      6 C6          0.0021   -0.0041    0.0020 C.ar      1 <0>        -0.1399
      7 N1          1.2055   -2.0811    0.0027 N.am      1 <0>        -0.6522
      8 C7          2.2270   -2.8770    0.3013 C.2       1 <0>         0.5292
      9 O1          2.0870   -4.0733    0.1582 O.2       1 <0>        -0.5038
     10 C8          3.5506   -2.3662    0.8083 C.3       1 <0>        -0.0841
     11 S1          3.9428   -0.8184   -0.0629 S.3       1 <0>        -0.0412
     12 C9          3.4573   -2.1004    2.3121 C.3       1 <0>        -0.1197
     13 C10         4.8139   -1.7076    2.8379 C.2       1 <0>         0.5311
     14 O2          5.7619   -1.6463    2.0841 O.2       1 <0>        -0.4980
     15 N2          4.9735   -1.4245    4.1459 N.am      1 <0>        -0.5961
     16 O3          6.2482   -1.0554    4.6400 O.3       1 <0>        -0.3132
     17 H1         -0.9612    1.8998    0.0260 H         1 <0>         0.1341
     18 H2          1.1435    3.1736    0.0114 H         1 <0>         0.1348
     19 H3          3.3015    1.9834   -0.0263 H         1 <0>         0.1378
     20 H4         -0.9272   -0.5544    0.0072 H         1 <0>         0.1337
     21 H5          0.3692   -2.5144   -0.2290 H         1 <0>         0.4155
     22 H6          4.3279   -3.1045    0.6113 H         1 <0>         0.1624
     23 H7          2.7488   -1.2925    2.4950 H         1 <0>         0.1071
     24 H8          3.1181   -3.0031    2.8203 H         1 <0>         0.1185
     25 H9          4.2152   -1.4735    4.7488 H         1 <0>         0.4085
     26 H10         6.2639   -0.8715    5.5892 H         1 <0>         0.3894
@<TRIPOS>BOND
     1    1    6 ar
     2    1    2 ar
     3    1   17 1
     4    2    3 ar
     5    2   18 1
     6    3    4 ar
     7    3   19 1
     8    4   11 1
     9    4    5 ar
    10    5    6 ar
    11    5    7 1
    12    6   20 1
    13    7    8 am
    14    7   21 1
    15    8    9 2
    16    8   10 1
    17   10   11 1
    18   10   12 1
    19   10   22 1
    20   12   13 1
    21   12   23 1
    22   12   24 1
    23   13   14 2
    24   13   15 am
    25   15   16 1
    26   15   25 1
    27   16   26 1
@<TRIPOS>MOLECULE
CHEMBL346291
   94    97     0     0     0
SMALL
USER_CHARGES

@<TRIPOS>ATOM
      1 C1          0.3269   -0.8991    1.3302 C.3       1 <0>        -0.1542
      2 C2          0.0457   -1.3860   -0.0927 C.3       1 <0>        -0.0678
      3 C3          0.7669   -2.7145   -0.3290 C.3       1 <0>        -0.1499
      4 C4         -1.4604   -1.5838   -0.2758 C.3       1 <0>        -0.1352
      5 C5          0.5494   -0.3467   -1.0963 C.3       1 <0>         0.1169
      6 H1         -0.0435    0.5634   -1.0052 H         1 <0>         0.1132
      7 C6          1.9961   -0.0344   -0.8126 C.2       1 <0>         0.3924
      8 O1          2.6442   -0.7641   -0.0921 O.2       1 <0>        -0.4212
      9 C7          2.6209    1.1525   -1.4080 C.ar      1 <0>        -0.2116
     10 C8          1.8470    2.0593   -2.1440 C.ar      1 <0>        -0.0158
     11 C9          2.4323    3.1626   -2.6959 C.ar      1 <0>        -0.2006
     12 C10         3.7970    3.3872   -2.5280 C.ar      1 <0>         0.2359
     13 C11         4.5702    2.4881   -1.7970 C.ar      1 <0>        -0.2004
     14 C12         3.9920    1.3850   -1.2372 C.ar      1 <0>        -0.0062
     15 N1          4.3883    4.5105   -3.0915 N.pl3     1 <0>        -0.6367
     16 C13         5.8467    4.6992   -3.0494 C.3       1 <0>         0.0960
     17 C14         6.3358    5.0218   -4.4652 C.3       1 <0>        -0.0202
     18 N2          5.5906    6.1736   -4.9889 N.4       1 <0>        -0.3814
     19 C15         4.1705    5.8279   -5.1307 C.3       1 <0>        -0.0267
     20 C16         3.5747    5.5424   -3.7528 C.3       1 <0>         0.0952
     21 C17         6.1341    6.5510   -6.3004 C.3       1 <0>        -0.0099
     22 C18         5.4436    7.8250   -6.7912 C.3       1 <0>         0.0269
     23 N3          5.9871    8.2025   -8.1027 N.3       1 <0>        -0.5295
     24 C19         7.3990    8.5975   -7.9939 C.3       1 <0>         0.0079
     25 C20         7.9407    8.9245   -9.3881 C.3       1 <0>         0.0605
     26 O2          7.1358    9.9486   -9.9786 O.3       1 <0>        -0.3777
     27 C21         5.7549    9.5971  -10.1004 C.3       1 <0>         0.0602
     28 C22         5.1911    9.2769   -8.7135 C.3       1 <0>         0.0182
     29 N4          0.4220   -0.8785   -2.4554 N.am      1 <0>        -0.7171
     30 C23        -0.7461   -0.7625   -3.1177 C.2       1 <0>         0.5242
     31 O3         -1.6917   -0.2179   -2.5885 O.2       1 <0>        -0.5078
     32 C24        -0.8771   -1.3095   -4.5158 C.3       1 <0>        -0.1299
     33 H2         -0.1549   -0.8178   -5.1675 H         1 <0>         0.1034
     34 C25        -2.2926   -1.0489   -5.0348 C.3       1 <0>        -0.0883
     35 C26        -2.3359   -1.2960   -6.5441 C.3       1 <0>        -0.1138
     36 C27        -1.5257   -0.2094   -7.2809 C.3       1 <0>        -0.1191
     37 C28        -2.3359    0.0573   -8.5737 C.3       1 <0>        -0.1245
     38 C29        -3.8022   -0.0380   -8.0840 C.3       1 <0>        -0.1256
     39 C30        -3.7834   -1.1869   -7.0547 C.3       1 <0>        -0.1180
     40 C31        -0.6084   -2.8156   -4.5014 C.3       1 <0>         0.1425
     41 N5         -0.5507   -3.3145   -5.8776 N.am      1 <0>        -0.4701
     42 C32         0.4604   -2.9424   -6.6875 C.2       1 <0>         0.4768
     43 O4          0.5081   -3.3555   -7.8268 O.2       1 <0>        -0.5402
     44 O5         -1.5571   -4.1877   -6.3570 O.3       1 <0>        -0.3252
     45 H3          1.4037   -0.8592    1.4944 H         1 <0>         0.0721
     46 H4         -0.0982    0.0956    1.4645 H         1 <0>         0.0517
     47 H5         -0.1245   -1.5867    2.0454 H         1 <0>         0.0629
     48 H6          0.2975   -3.4945    0.2705 H         1 <0>         0.0567
     49 H7          0.7034   -2.9798   -1.3843 H         1 <0>         0.0483
     50 H8          1.8137   -2.6158   -0.0416 H         1 <0>         0.0764
     51 H9         -1.9742   -0.6373   -0.1075 H         1 <0>         0.0598
     52 H10        -1.6607   -1.9306   -1.2895 H         1 <0>         0.0575
     53 H11        -1.8192   -2.3242    0.4391 H         1 <0>         0.0532
     54 H12         0.7891    1.8858   -2.2750 H         1 <0>         0.1352
     55 H13         1.8366    3.8620   -3.2637 H         1 <0>         0.1297
     56 H14         5.6279    2.6658   -1.6695 H         1 <0>         0.1306
     57 H15         4.5913    0.6909   -0.6668 H         1 <0>         0.1399
     58 H16         6.0900    5.5248   -2.3808 H         1 <0>         0.0923
     59 H17         6.3242    3.7851   -2.6964 H         1 <0>         0.1305
     60 H18         7.3992    5.2593   -4.4371 H         1 <0>         0.1431
     61 H19         6.1729    4.1593   -5.1114 H         1 <0>         0.1355
     62 H20         3.6384    6.6594   -5.5929 H         1 <0>         0.1425
     63 H21         4.0731    4.9410   -5.7567 H         1 <0>         0.1363
     64 H22         2.5508    5.1856   -3.8645 H         1 <0>         0.1304
     65 H23         3.5847    6.4547   -3.1564 H         1 <0>         0.0919
     66 H24         7.2057    6.7297   -6.2118 H         1 <0>         0.1323
     67 H25         5.9578    5.7448   -7.0124 H         1 <0>         0.1407
     68 H26         4.3719    7.6464   -6.8798 H         1 <0>         0.0988
     69 H27         5.6199    8.6312   -6.0791 H         1 <0>         0.0594
     70 H28         7.4827    9.4770   -7.3554 H         1 <0>         0.0537
     71 H29         7.9741    7.7780   -7.5630 H         1 <0>         0.0863
     72 H30         8.9703    9.2727   -9.3060 H         1 <0>         0.1059
     73 H31         7.9066    8.0305  -10.0107 H         1 <0>         0.0648
     74 H32         5.2037   10.4317  -10.5336 H         1 <0>         0.1080
     75 H33         5.6573    8.7226  -10.7437 H         1 <0>         0.0656
     76 H34         4.1545    8.9534   -8.8078 H         1 <0>         0.0941
     77 H35         5.2395   10.1672   -8.0865 H         1 <0>         0.0534
     78 H36         1.1783   -1.3141   -2.8786 H         1 <0>         0.4017
     79 H37        -2.9917   -1.7206   -4.5365 H         1 <0>         0.0724
     80 H38        -2.5711   -0.0157   -4.8276 H         1 <0>         0.0767
     81 H39        -1.9327   -2.2826   -6.7724 H         1 <0>         0.0990
     82 H40        -1.4630    0.6954   -6.6764 H         1 <0>         0.0623
     83 H41        -0.5286   -0.5765   -7.5244 H         1 <0>         0.0542
     84 H42        -2.1231    1.0524   -8.9646 H         1 <0>         0.0621
     85 H43        -2.1287   -0.7059   -9.3238 H         1 <0>         0.0662
     86 H44        -4.1072    0.8945   -7.6092 H         1 <0>         0.0632
     87 H45        -4.4665   -0.2799   -8.9136 H         1 <0>         0.0640
     88 H46        -4.0824   -2.1204   -7.5316 H         1 <0>         0.0627
     89 H47        -4.4550   -0.9580   -6.2273 H         1 <0>         0.0639
     90 H48         0.3418   -3.0104   -4.0042 H         1 <0>         0.0900
     91 H49        -1.4101   -3.3226   -3.9645 H         1 <0>         0.1088
     92 H50         1.2280   -2.2765   -6.3219 H         1 <0>         0.1462
     93 H51        -1.4339   -4.4631   -7.2757 H         1 <0>         0.3995
     94 H52         5.6843    6.9508   -4.3523 H         1 <0>         0.4224
@<TRIPOS>BOND
     1    1    2 1
     2    1   45 1
     3    1   46 1
     4    1   47 1
     5    2    3 1
     6    2    4 1
     7    2    5 1
     8    3   48 1
     9    3   49 1
    10    3   50 1
    11    4   51 1
    12    4   52 1
    13    4   53 1
    14    5    6 1
    15    5    7 1
    16    5   29 1
    17    7    8 2
    18    7    9 1
    19    9   14 ar
    20    9   10 ar
    21   10   11 ar
    22   10   54 1
    23   11   12 ar
    24   11   55 1
    25   12   13 ar
    26   12   15 1
    27   13   14 ar
    28   13   56 1
    29   14   57 1
    30   15   20 1
    31   15   16 1
    32   16   17 1
    33   16   58 1
    34   16   59 1
    35   17   18 1
    36   17   60 1
    37   17   61 1
    38   18   19 1
    39   18   21 1
    40   18   94 1
    41   19   20 1
    42   19   62 1
    43   19   63 1
    44   20   64 1
    45   20   65 1
    46   21   22 1
    47   21   66 1
    48   21   67 1
    49   22   23 1
    50   22   68 1
    51   22   69 1
    52   23   28 1
    53   23   24 1
    54   24   25 1
    55   24   70 1
    56   24   71 1
    57   25   26 1
    58   25   72 1
    59   25   73 1
    60   26   27 1
    61   27   28 1
    62   27   74 1
    63   27   75 1
    64   28   76 1
    65   28   77 1
    66   29   30 am
    67   29   78 1
    68   30   31 2
    69   30   32 1
    70   32   33 1
    71   32   34 1
    72   32   40 1
    73   34   35 1
    74   34   79 1
    75   34   80 1
    76   35   39 1
    77   35   36 1
    78   35   81 1
    79   36   37 1
    80   36   82 1
    81   36   83 1
    82   37   38 1
    83   37   84 1
    84   37   85 1
    85   38   39 1
    86   38   86 1
    87   38   87 1
    88   39   88 1
    89   39   89 1
    90   40   41 1
    91   40   90 1
    92   40   91 1
    93   41   42 am
    94   41   44 1
    95   42   43 2
    96   42   92 1
    97   44   93 1
@<TRIPOS>MOLECULE
CHEMBL346291__1
   94    97     0     0     0
SMALL
USER_CHARGES

@<TRIPOS>ATOM
      1 C1          0.3163   -0.9062    1.3358 C.3       1 <0>        -0.1538
      2 C2          0.0483   -1.3808   -0.0938 C.3       1 <0>        -0.0675
      3 C3          0.7703   -2.7080   -0.3345 C.3       1 <0>        -0.1493
      4 C4         -1.4562   -1.5752   -0.2930 C.3       1 <0>        -0.1346
      5 C5          0.5626   -0.3336   -1.0837 C.3       1 <0>         0.1167
      6 H1         -0.0302    0.5764   -0.9907 H         1 <0>         0.1124
      7 C6          2.0068   -0.0251   -0.7834 C.2       1 <0>         0.3952
      8 O1          2.6470   -0.7612   -0.0623 O.2       1 <0>        -0.4295
      9 C7          2.6388    1.1657   -1.3632 C.ar      1 <0>        -0.2305
     10 C8          1.8731    2.0792   -2.0997 C.ar      1 <0>        -0.0133
     11 C9          2.4650    3.1861   -2.6371 C.ar      1 <0>        -0.2129
     12 C10         3.8281    3.4078   -2.4540 C.ar      1 <0>         0.2523
     13 C11         4.5932    2.5021   -1.7225 C.ar      1 <0>        -0.2122
     14 C12         4.0083    1.3953   -1.1771 C.ar      1 <0>        -0.0027
     15 N1          4.4262    4.5348   -3.0028 N.pl3     1 <0>        -0.6235
     16 C13         5.8843    4.7191   -2.9459 C.3       1 <0>         0.1204
     17 C14         6.3905    5.0343   -4.3575 C.3       1 <0>         0.0415
     18 N2          5.6409    6.1754   -4.8997 N.3       1 <0>        -0.5284
     19 C15         4.2137    5.8572   -5.0399 C.3       1 <0>         0.0306
     20 C16         3.6188    5.5728   -3.6616 C.3       1 <0>         0.1202
     21 C17         6.2096    6.6187   -6.1795 C.3       1 <0>         0.0275
     22 C18         5.5712    7.9477   -6.5883 C.3       1 <0>        -0.0100
     23 N3          6.1399    8.3909   -7.8682 N.4       1 <0>        -0.3842
     24 C19         7.5690    8.6847   -7.6938 C.3       1 <0>        -0.0476
     25 C20         8.1593    9.1461   -9.0286 C.3       1 <0>         0.0361
     26 O2          7.4399   10.2925   -9.4912 O.3       1 <0>        -0.3555
     27 C21         6.0375   10.0628   -9.6540 C.3       1 <0>         0.0358
     28 C22         5.4433    9.6031   -8.3203 C.3       1 <0>        -0.0421
     29 N4          0.4480   -0.8538   -2.4484 N.am      1 <0>        -0.7152
     30 C23        -0.7135   -0.7310   -3.1210 C.2       1 <0>         0.5240
     31 O3         -1.6637   -0.1898   -2.5964 O.2       1 <0>        -0.5096
     32 C24        -0.8315   -1.2661   -4.5249 C.3       1 <0>        -0.1303
     33 H2         -0.1025   -0.7696   -5.1654 H         1 <0>         0.1033
     34 C25        -2.2416   -0.9997   -5.0554 C.3       1 <0>        -0.0881
     35 C26        -2.2707   -1.2346   -6.5669 C.3       1 <0>        -0.1137
     36 C27        -1.4514   -0.1437   -7.2871 C.3       1 <0>        -0.1198
     37 C28        -2.2485    0.1349   -8.5856 C.3       1 <0>        -0.1241
     38 C29        -3.7197    0.0384   -8.1109 C.3       1 <0>        -0.1254
     39 C30        -3.7129   -1.1188   -7.0907 C.3       1 <0>        -0.1177
     40 C31        -0.5643   -2.7726   -4.5206 C.3       1 <0>         0.1424
     41 N5         -0.4943   -3.2600   -5.9003 N.am      1 <0>        -0.4695
     42 C32         0.5244   -2.8819   -6.6977 C.2       1 <0>         0.4772
     43 O4          0.5823   -3.2854   -7.8399 O.2       1 <0>        -0.5421
     44 O5         -1.4968   -4.1285   -6.3961 O.3       1 <0>        -0.3255
     45 H3          1.3915   -0.8687    1.5106 H         1 <0>         0.0732
     46 H4         -0.1092    0.0877    1.4745 H         1 <0>         0.0515
     47 H5         -0.1425   -1.5995    2.0408 H         1 <0>         0.0614
     48 H6          0.2945   -3.4924    0.2541 H         1 <0>         0.0553
     49 H7          0.7165   -2.9644   -1.3925 H         1 <0>         0.0475
     50 H8          1.8145   -2.6129   -0.0364 H         1 <0>         0.0771
     51 H9         -1.9706   -0.6297   -0.1216 H         1 <0>         0.0594
     52 H10        -1.6471   -1.9133   -1.3115 H         1 <0>         0.0569
     53 H11        -1.8226   -2.3213    0.4121 H         1 <0>         0.0520
     54 H12         0.8163    1.9078   -2.2424 H         1 <0>         0.1299
     55 H13         1.8756    3.8906   -3.2052 H         1 <0>         0.1269
     56 H14         5.6497    2.6776   -1.5833 H         1 <0>         0.1289
     57 H15         4.6013    0.6960   -0.6063 H         1 <0>         0.1353
     58 H16         6.1230    5.5468   -2.2780 H         1 <0>         0.0780
     59 H17         6.3550    3.8051   -2.5837 H         1 <0>         0.0972
     60 H18         7.4511    5.2823   -4.3166 H         1 <0>         0.0943
     61 H19         6.2442    4.1652   -4.9989 H         1 <0>         0.0494
     62 H20         3.6955    6.7020   -5.4938 H         1 <0>         0.0864
     63 H21         4.0977    4.9767   -5.6717 H         1 <0>         0.0498
     64 H22         2.5924    5.2230   -3.7724 H         1 <0>         0.0960
     65 H23         3.6355    6.4841   -3.0638 H         1 <0>         0.0768
     66 H24         7.2863    6.7506   -6.0724 H         1 <0>         0.0993
     67 H25         6.0098    5.8689   -6.9450 H         1 <0>         0.0581
     68 H26         4.4945    7.8158   -6.6954 H         1 <0>         0.1319
     69 H27         5.7710    8.6974   -5.8228 H         1 <0>         0.1419
     70 H28         7.6901    9.4730   -6.9508 H         1 <0>         0.1418
     71 H29         8.0867    7.7861   -7.3585 H         1 <0>         0.1416
     72 H30         9.2090    9.4058   -8.8921 H         1 <0>         0.1428
     73 H31         8.0745    8.3433   -9.7610 H         1 <0>         0.0810
     74 H32         5.5517   10.9859   -9.9700 H         1 <0>         0.1433
     75 H33         5.8801    9.2913  -10.4078 H         1 <0>         0.0814
     76 H34         4.3831    9.3862   -8.4501 H         1 <0>         0.1427
     77 H35         5.5652   10.3911   -7.5771 H         1 <0>         0.1409
     78 H36         1.2079   -1.2866   -2.8679 H         1 <0>         0.4015
     79 H37        -2.9462   -1.6745   -4.5692 H         1 <0>         0.0722
     80 H38        -2.5210    0.0322   -4.8426 H         1 <0>         0.0768
     81 H39        -1.8670   -2.2201   -6.7992 H         1 <0>         0.0989
     82 H40        -1.3930    0.7562   -6.6748 H         1 <0>         0.0630
     83 H41        -0.4527   -0.5106   -7.5238 H         1 <0>         0.0543
     84 H42        -2.0301    1.1326   -8.9663 H         1 <0>         0.0613
     85 H43        -2.0354   -0.6227   -9.3397 H         1 <0>         0.0657
     86 H44        -4.0277    0.9676   -7.6316 H         1 <0>         0.0632
     87 H45        -4.3763   -0.1957   -8.9488 H         1 <0>         0.0634
     88 H46        -4.0089   -2.0478   -7.5780 H         1 <0>         0.0623
     89 H47        -4.3921   -0.8953   -6.2681 H         1 <0>         0.0640
     90 H48         0.3810   -2.9725   -4.0162 H         1 <0>         0.0906
     91 H49        -1.3715   -3.2832   -3.9953 H         1 <0>         0.1087
     92 H50         1.2890   -2.2195   -6.3195 H         1 <0>         0.1469
     93 H51        -1.3654   -4.3963   -7.3160 H         1 <0>         0.3989
     94 H52         6.0278    7.6619   -8.5567 H         1 <0>         0.4218
@<TRIPOS>BOND
     1    1    2 1
     2    1   45 1
     3    1   46 1
     4    1   47 1
     5    2    3 1
     6    2    4 1
     7    2    5 1
     8    3   48 1
     9    3   49 1
    10    3   50 1
    11    4   51 1
    12    4   52 1
    13    4   53 1
    14    5    6 1
    15    5    7 1
    16    5   29 1
    17    7    8 2
    18    7    9 1
    19    9   14 ar
    20    9   10 ar
    21   10   11 ar
    22   10   54 1
    23   11   12 ar
    24   11   55 1
    25   12   13 ar
    26   12   15 1
    27   13   14 ar
    28   13   56 1
    29   14   57 1
    30   15   20 1
    31   15   16 1
    32   16   17 1
    33   16   58 1
    34   16   59 1
    35   17   18 1
    36   17   60 1
    37   17   61 1
    38   18   19 1
    39   18   21 1
    40   19   20 1
    41   19   62 1
    42   19   63 1
    43   20   64 1
    44   20   65 1
    45   21   22 1
    46   21   66 1
    47   21   67 1
    48   22   23 1
    49   22   68 1
    50   22   69 1
    51   23   28 1
    52   23   24 1
    53   23   94 1
    54   24   25 1
    55   24   70 1
    56   24   71 1
    57   25   26 1
    58   25   72 1
    59   25   73 1
    60   26   27 1
    61   27   28 1
    62   27   74 1
    63   27   75 1
    64   28   76 1
    65   28   77 1
    66   29   30 am
    67   29   78 1
    68   30   31 2
    69   30   32 1
    70   32   33 1
    71   32   34 1
    72   32   40 1
    73   34   35 1
    74   34   79 1
    75   34   80 1
    76   35   39 1
    77   35   36 1
    78   35   81 1
    79   36   37 1
    80   36   82 1
    81   36   83 1
    82   37   38 1
    83   37   84 1
    84   37   85 1
    85   38   39 1
    86   38   86 1
    87   38   87 1
    88   39   88 1
    89   39   89 1
    90   40   41 1
    91   40   90 1
    92   40   91 1
    93   41   42 am
    94   41   44 1
    95   42   43 2
    96   42   92 1
    97   44   93 1
@<TRIPOS>MOLECULE
CHEMBL346291__2
   93    96     0     0     0
SMALL
USER_CHARGES

@<TRIPOS>ATOM
      1 C1         -0.6800    1.7461   -1.0086 C.3       1 <0>        -0.1533
      2 C2         -0.5623    0.2626   -0.6533 C.3       1 <0>        -0.0672
      3 C3         -0.2634    0.1180    0.8402 C.3       1 <0>        -0.1486
      4 C4         -1.8779   -0.4463   -0.9811 C.3       1 <0>        -0.1340
      5 C5          0.5723   -0.3675   -1.4638 C.3       1 <0>         0.1162
      6 H1          0.3067   -0.3682   -2.5209 H         1 <0>         0.1121
      7 C6          1.8354    0.4297   -1.2636 C.2       1 <0>         0.3980
      8 O1          1.9106    1.2287   -0.3539 O.2       1 <0>        -0.4371
      9 C7          2.9744    0.2395   -2.1692 C.ar      1 <0>        -0.2432
     10 C8          2.8504   -0.5943   -3.2884 C.ar      1 <0>        -0.0117
     11 C9          3.9126   -0.7681   -4.1287 C.ar      1 <0>        -0.2170
     12 C10         5.1182   -0.1179   -3.8745 C.ar      1 <0>         0.2621
     13 C11         5.2458    0.7120   -2.7628 C.ar      1 <0>        -0.2177
     14 C12         4.1871    0.8956   -1.9203 C.ar      1 <0>        -0.0009
     15 N1          6.1961   -0.2980   -4.7316 N.pl3     1 <0>        -0.6166
     16 C13         7.5179    0.2612   -4.4100 C.3       1 <0>         0.1204
     17 C14         8.5616   -0.8539   -4.5347 C.3       1 <0>         0.0420
     18 N2          8.4556   -1.4732   -5.8625 N.3       1 <0>        -0.5374
     19 C15         7.1478   -2.1161   -6.0477 C.3       1 <0>         0.0368
     20 C16         6.0476   -1.0580   -5.9821 C.3       1 <0>         0.1195
     21 C17         9.5484   -2.4289   -6.0864 C.3       1 <0>         0.0598
     22 C18         9.5529   -2.8641   -7.5532 C.3       1 <0>         0.0586
     23 N3         10.6457   -3.8198   -7.7772 N.3       1 <0>        -0.5386
     24 C19        11.9547   -3.1726   -7.6073 C.3       1 <0>         0.0149
     25 C20        13.0610   -4.2150   -7.7902 C.3       1 <0>         0.0624
     26 O2         12.9231   -4.8288   -9.0745 O.3       1 <0>        -0.3847
     27 C21        11.6600   -5.4694   -9.2739 C.3       1 <0>         0.0629
     28 C22        10.5396   -4.4396   -9.1060 C.3       1 <0>         0.0190
     29 N4          0.7876   -1.7448   -1.0135 N.am      1 <0>        -0.7142
     30 C23         0.0416   -2.7449   -1.5233 C.2       1 <0>         0.5247
     31 O3         -0.8079   -2.5045   -2.3548 O.2       1 <0>        -0.5116
     32 C24         0.2631   -4.1617   -1.0601 C.3       1 <0>        -0.1318
     33 H2          1.2883   -4.4597   -1.2796 H         1 <0>         0.1049
     34 C25        -0.7063   -5.0941   -1.7894 C.3       1 <0>        -0.0874
     35 C26        -0.2732   -6.5463   -1.5784 C.3       1 <0>        -0.1135
     36 C27         1.0485   -6.8176   -2.3264 C.3       1 <0>        -0.1211
     37 C28         0.8935   -8.2637   -2.8591 C.3       1 <0>        -0.1244
     38 C29        -0.5995   -8.3193   -3.2677 C.3       1 <0>        -0.1252
     39 C30        -1.3210   -7.5011   -2.1769 C.3       1 <0>        -0.1168
     40 C31         0.0182   -4.2496    0.4476 C.3       1 <0>         0.1434
     41 N5          0.4118   -5.5757    0.9299 N.am      1 <0>        -0.4699
     42 C32         1.7098   -5.9386    0.9199 C.2       1 <0>         0.4777
     43 O4          2.0356   -7.0365    1.3191 O.2       1 <0>        -0.5423
     44 O5         -0.5715   -6.4764    1.4064 O.3       1 <0>        -0.3274
     45 H3          0.2166    2.2709   -0.6789 H         1 <0>         0.0742
     46 H4         -0.7878    1.8537   -2.0879 H         1 <0>         0.0514
     47 H5         -1.5527    2.1704   -0.5122 H         1 <0>         0.0592
     48 H6         -1.1390    0.4169    1.4165 H         1 <0>         0.0532
     49 H7         -0.0190   -0.9206    1.0630 H         1 <0>         0.0474
     50 H8          0.5806    0.7548    1.1052 H         1 <0>         0.0778
     51 H9         -2.0908   -0.3434   -2.0452 H         1 <0>         0.0592
     52 H10        -1.7940   -1.5032   -0.7280 H         1 <0>         0.0569
     53 H11        -2.6862    0.0025   -0.4038 H         1 <0>         0.0500
     54 H12         1.9163   -1.0990   -3.4860 H         1 <0>         0.1270
     55 H13         3.8180   -1.4109   -4.9915 H         1 <0>         0.1280
     56 H14         6.1823    1.2138   -2.5693 H         1 <0>         0.1286
     57 H15         4.2855    1.5426   -1.0612 H         1 <0>         0.1322
     58 H16         7.7553    1.0645   -5.1074 H         1 <0>         0.0758
     59 H17         7.5141    0.6468   -3.3905 H         1 <0>         0.0908
     60 H18         9.5595   -0.4340   -4.4078 H         1 <0>         0.0886
     61 H19         8.3831   -1.6067   -3.7669 H         1 <0>         0.0412
     62 H20         7.1202   -2.6116   -7.0182 H         1 <0>         0.0896
     63 H21         6.9889   -2.8513   -5.2589 H         1 <0>         0.0413
     64 H22         5.0722   -1.5441   -6.0014 H         1 <0>         0.0906
     65 H23         6.1409   -0.3839   -6.8335 H         1 <0>         0.0754
     66 H24        10.5002   -1.9557   -5.8450 H         1 <0>         0.0771
     67 H25         9.4045   -3.3014   -5.4491 H         1 <0>         0.0452
     68 H26         8.6011   -3.3374   -7.7947 H         1 <0>         0.0762
     69 H27         9.6968   -1.9917   -8.1906 H         1 <0>         0.0462
     70 H28        12.0705   -2.3847   -8.3515 H         1 <0>         0.0454
     71 H29        12.0213   -2.7428   -6.6078 H         1 <0>         0.0870
     72 H30        14.0342   -3.7288   -7.7217 H         1 <0>         0.0992
     73 H31        12.9775   -4.9746   -7.0129 H         1 <0>         0.0600
     74 H32        11.6200   -5.8903  -10.2785 H         1 <0>         0.0998
     75 H33        11.5358   -6.2654   -8.5398 H         1 <0>         0.0604
     76 H34         9.5731   -4.9347   -9.2006 H         1 <0>         0.0866
     77 H35        10.6327   -3.6719   -9.8742 H         1 <0>         0.0450
     78 H36         1.4670   -1.9371   -0.3484 H         1 <0>         0.4018
     79 H37        -1.7122   -4.9539   -1.3938 H         1 <0>         0.0708
     80 H38        -0.6994   -4.8641   -2.8548 H         1 <0>         0.0772
     81 H39        -0.1490   -6.7478   -0.5144 H         1 <0>         0.0982
     82 H40         1.1696   -6.1175   -3.1530 H         1 <0>         0.0648
     83 H41         1.8945   -6.7517   -1.6423 H         1 <0>         0.0554
     84 H42         1.5369   -8.4280   -3.7235 H         1 <0>         0.0632
     85 H43         1.1065   -8.9894   -2.0742 H         1 <0>         0.0651
     86 H44        -0.7445   -7.8617   -4.2463 H         1 <0>         0.0636
     87 H45        -0.9561   -9.3493   -3.2705 H         1 <0>         0.0622
     88 H46        -1.7047   -8.1665   -1.4035 H         1 <0>         0.0609
     89 H47        -2.1380   -6.9299   -2.6177 H         1 <0>         0.0630
     90 H48         0.6088   -3.4878    0.9566 H         1 <0>         0.0907
     91 H49        -1.0397   -4.0871    0.6540 H         1 <0>         0.1074
     92 H50         2.4597   -5.2516    0.5565 H         1 <0>         0.1489
     93 H51        -0.2164   -7.3256    1.7029 H         1 <0>         0.3981
@<TRIPOS>BOND
     1    1    2 1
     2    1   45 1
     3    1   46 1
     4    1   47 1
     5    2    3 1
     6    2    4 1
     7    2    5 1
     8    3   48 1
     9    3   49 1
    10    3   50 1
    11    4   51 1
    12    4   52 1
    13    4   53 1
    14    5    6 1
    15    5    7 1
    16    5   29 1
    17    7    8 2
    18    7    9 1
    19    9   14 ar
    20    9   10 ar
    21   10   11 ar
    22   10   54 1
    23   11   12 ar
    24   11   55 1
    25   12   13 ar
    26   12   15 1
    27   13   14 ar
    28   13   56 1
    29   14   57 1
    30   15   20 1
    31   15   16 1
    32   16   17 1
    33   16   58 1
    34   16   59 1
    35   17   18 1
    36   17   60 1
    37   17   61 1
    38   18   19 1
    39   18   21 1
    40   19   20 1
    41   19   62 1
    42   19   63 1
    43   20   64 1
    44   20   65 1
    45   21   22 1
    46   21   66 1
    47   21   67 1
    48   22   23 1
    49   22   68 1
    50   22   69 1
    51   23   28 1
    52   23   24 1
    53   24   25 1
    54   24   70 1
    55   24   71 1
    56   25   26 1
    57   25   72 1
    58   25   73 1
    59   26   27 1
    60   27   28 1
    61   27   74 1
    62   27   75 1
    63   28   76 1
    64   28   77 1
    65   29   30 am
    66   29   78 1
    67   30   31 2
    68   30   32 1
    69   32   33 1
    70   32   34 1
    71   32   40 1
    72   34   35 1
    73   34   79 1
    74   34   80 1
    75   35   39 1
    76   35   36 1
    77   35   81 1
    78   36   37 1
    79   36   82 1
    80   36   83 1
    81   37   38 1
    82   37   84 1
    83   37   85 1
    84   38   39 1
    85   38   86 1
    86   38   87 1
    87   39   88 1
    88   39   89 1
    89   40   41 1
    90   40   90 1
    91   40   91 1
    92   41   42 am
    93   41   44 1
    94   42   43 2
    95   42   92 1
    96   44   93 1
@<TRIPOS>MOLECULE
CHEMBL92948
   67    68     0     0     0
SMALL
USER_CHARGES

@<TRIPOS>ATOM
      1 C1          2.3358   -3.9575   -2.5704 C.3       1 <0>        -0.1525
      2 C2          1.5068   -3.0608   -1.6488 C.3       1 <0>        -0.1219
      3 C3          0.0615   -3.5616   -1.6148 C.3       1 <0>        -0.1242
      4 C4         -0.7675   -2.6649   -0.6932 C.3       1 <0>        -0.0964
      5 C5         -2.2372   -3.0851   -0.7597 C.3       1 <0>        -0.1310
      6 H1         -2.5652   -3.0961   -1.7991 H         1 <0>         0.1037
      7 C6         -3.0882   -2.0910    0.0332 C.3       1 <0>         0.1431
      8 N1         -2.9970   -0.7668   -0.5868 N.am      1 <0>        -0.4747
      9 C7         -3.6469   -0.5169   -1.7408 C.2       1 <0>         0.4790
     10 O1         -3.5714    0.5794   -2.2541 O.2       1 <0>        -0.5464
     11 O2         -2.2262    0.2505    0.0263 O.3       1 <0>        -0.3315
     12 C8         -2.3929   -4.4627   -0.1690 C.2       1 <0>         0.5263
     13 O3         -1.4239   -5.0506    0.2626 O.2       1 <0>        -0.5134
     14 N2         -3.6091   -5.0415   -0.1204 N.am      1 <0>        -0.7142
     15 C9         -3.7605   -6.3808    0.4538 C.3       1 <0>         0.1354
     16 H2         -2.8791   -6.9780    0.2204 H         1 <0>         0.1109
     17 C10        -4.9835   -7.0415   -0.1283 C.2       1 <0>         0.5295
     18 O4         -5.9354   -6.3684   -0.4625 O.2       1 <0>        -0.5227
     19 N3         -5.0194   -8.3805   -0.2774 N.am      1 <0>        -0.5970
     20 C11        -3.9333   -9.2374    0.2301 C.3       1 <0>         0.0953
     21 C12        -3.4240  -10.1425   -0.8933 C.3       1 <0>        -0.1394
     22 C13        -4.5931  -10.8984   -1.5371 C.3       1 <0>        -0.1108
     23 C14        -5.5785   -9.8809   -2.1003 C.3       1 <0>        -0.0702
     24 C15        -6.1419   -9.0422   -0.9446 C.3       1 <0>         0.1783
     25 C16        -7.1511   -8.0685   -1.4792 C.2       1 <0>        -0.1747
     26 C17        -7.9637   -8.4668   -2.4588 C.2       1 <0>        -0.1448
     27 C18        -7.8456   -9.8254   -3.0114 C.2       1 <0>        -0.1280
     28 C19        -6.7107  -10.5228   -2.8473 C.2       1 <0>        -0.1518
     29 C20        -3.9143   -6.2703    1.9720 C.3       1 <0>        -0.0706
     30 C21        -5.1764   -5.4699    2.2999 C.3       1 <0>        -0.1440
     31 C22        -4.0276   -7.6713    2.5764 C.3       1 <0>        -0.1569
     32 C23        -2.6929   -5.5593    2.5580 C.3       1 <0>        -0.1318
     33 H3          3.3655   -3.6007   -2.5946 H         1 <0>         0.0528
     34 H4          2.3147   -4.9812   -2.1965 H         1 <0>         0.0536
     35 H5          1.9179   -3.9296   -3.5767 H         1 <0>         0.0514
     36 H6          1.9248   -3.0887   -0.6425 H         1 <0>         0.0613
     37 H7          1.5279   -2.0371   -2.0227 H         1 <0>         0.0572
     38 H8         -0.3564   -3.5337   -2.6211 H         1 <0>         0.0529
     39 H9          0.0404   -4.5853   -1.2409 H         1 <0>         0.0802
     40 H10        -0.4072   -2.7641    0.3307 H         1 <0>         0.0743
     41 H11        -0.6714   -1.6273   -1.0132 H         1 <0>         0.0735
     42 H12        -4.1269   -2.4213    0.0335 H         1 <0>         0.0958
     43 H13        -2.7235   -2.0378    1.0590 H         1 <0>         0.1048
     44 H14        -4.2348   -1.2928   -2.2085 H         1 <0>         0.1530
     45 H15        -2.2262    1.0886   -0.4559 H         1 <0>         0.3983
     46 H16        -4.3841   -4.5713   -0.4656 H         1 <0>         0.4083
     47 H17        -3.1164   -8.6122    0.5907 H         1 <0>         0.0956
     48 H18        -4.3081   -9.8515    1.0489 H         1 <0>         0.0799
     49 H19        -2.9271   -9.5347   -1.6494 H         1 <0>         0.0690
     50 H20        -2.7119  -10.8594   -0.4846 H         1 <0>         0.0836
     51 H21        -4.2205  -11.5315   -2.3423 H         1 <0>         0.0738
     52 H22        -5.0902  -11.5121   -0.7858 H         1 <0>         0.0697
     53 H23        -5.0452   -9.2132   -2.7770 H         1 <0>         0.0809
     54 H24        -6.6389   -9.7019   -0.2333 H         1 <0>         0.0826
     55 H25        -7.2181   -7.0675   -1.0792 H         1 <0>         0.1907
     56 H26        -8.7107   -7.7904   -2.8474 H         1 <0>         0.1188
     57 H27        -8.6706  -10.2585   -3.5575 H         1 <0>         0.1173
     58 H28        -6.6190  -11.5277   -3.2323 H         1 <0>         0.1228
     59 H29        -6.0466   -5.9765    1.8824 H         1 <0>         0.0611
     60 H30        -5.2860   -5.3913    3.3815 H         1 <0>         0.0592
     61 H31        -5.0957   -4.4718    1.8693 H         1 <0>         0.0575
     62 H32        -3.1101   -8.2265    2.3812 H         1 <0>         0.0639
     63 H33        -4.1819   -7.5914    3.6525 H         1 <0>         0.0667
     64 H34        -4.8714   -8.1942    2.1262 H         1 <0>         0.0610
     65 H35        -2.6122   -4.5612    2.1274 H         1 <0>         0.0545
     66 H36        -2.8025   -5.4806    3.6396 H         1 <0>         0.0541
     67 H37        -1.7938   -6.1295    2.3244 H         1 <0>         0.0672
@<TRIPOS>BOND
     1    1    2 1
     2    1   33 1
     3    1   34 1
     4    1   35 1
     5    2    3 1
     6    2   36 1
     7    2   37 1
     8    3    4 1
     9    3   38 1
    10    3   39 1
    11    4    5 1
    12    4   40 1
    13    4   41 1
    14    5    6 1
    15    5    7 1
    16    5   12 1
    17    7    8 1
    18    7   42 1
    19    7   43 1
    20    8    9 am
    21    8   11 1
    22    9   10 2
    23    9   44 1
    24   11   45 1
    25   12   13 2
    26   12   14 am
    27   14   15 1
    28   14   46 1
    29   15   16 1
    30   15   17 1
    31   15   29 1
    32   17   18 2
    33   17   19 am
    34   19   24 1
    35   19   20 1
    36   20   21 1
    37   20   47 1
    38   20   48 1
    39   21   22 1
    40   21   49 1
    41   21   50 1
    42   22   23 1
    43   22   51 1
    44   22   52 1
    45   23   28 1
    46   23   24 1
    47   23   53 1
    48   24   25 1
    49   24   54 1
    50   25   26 2
    51   25   55 1
    52   26   27 1
    53   26   56 1
    54   27   28 2
    55   27   57 1
    56   28   58 1
    57   29   30 1
    58   29   31 1
    59   29   32 1
    60   30   59 1
    61   30   60 1
    62   30   61 1
    63   31   62 1
    64   31   63 1
    65   31   64 1
    66   32   65 1
    67   32   66 1
    68   32   67 1
@<TRIPOS>MOLECULE
CHEMBL92948__1
   67    68     0     0     0
SMALL
USER_CHARGES

@<TRIPOS>ATOM
      1 C1          1.9929   -3.0219   -2.5774 C.3       1 <0>        -0.1524
      2 C2          1.1058   -2.3643   -1.5185 C.3       1 <0>        -0.1218
      3 C3         -0.3046   -2.9520   -1.5981 C.3       1 <0>        -0.1243
      4 C4         -1.1917   -2.2944   -0.5391 C.3       1 <0>        -0.0963
      5 C5         -2.6312   -2.7861   -0.7029 C.3       1 <0>        -0.1308
      6 H1         -2.9562   -2.6231   -1.7304 H         1 <0>         0.1037
      7 C6         -3.5456   -2.0134    0.2499 C.3       1 <0>         0.1429
      8 N1         -3.5710   -0.6004   -0.1362 N.am      1 <0>        -0.4748
      9 C7         -4.2847   -0.2080   -1.2101 C.2       1 <0>         0.4790
     10 O1         -4.3057    0.9617   -1.5297 O.2       1 <0>        -0.5464
     11 O2         -2.8457    0.3530    0.6188 O.3       1 <0>        -0.3314
     12 C8         -2.6992   -4.2570   -0.3819 C.2       1 <0>         0.5260
     13 O3         -1.6952   -4.8533   -0.0544 O.2       1 <0>        -0.5136
     14 N2         -3.8758   -4.9098   -0.4588 N.am      1 <0>        -0.7146
     15 C9         -3.9420   -6.3396   -0.1468 C.3       1 <0>         0.1370
     16 H2         -3.0236   -6.8261   -0.4755 H         1 <0>         0.1120
     17 C10        -5.1190   -6.9552   -0.8585 C.2       1 <0>         0.5206
     18 O4         -6.1034   -6.2866   -1.0928 O.2       1 <0>        -0.5307
     19 N3         -5.0778   -8.2487   -1.2348 N.am      1 <0>        -0.5969
     20 C11        -3.9399   -9.0979   -0.8574 C.3       1 <0>         0.0947
     21 C12        -3.3755   -9.7481   -2.1251 C.3       1 <0>        -0.1378
     22 C13        -4.4969  -10.4988   -2.8459 C.3       1 <0>        -0.1109
     23 C14        -5.5923   -9.5159   -3.2650 C.3       1 <0>        -0.0646
     24 C15        -6.1706   -8.8288   -2.0211 C.3       1 <0>         0.1767
     25 C16        -6.9231   -9.8312   -1.1872 C.2       1 <0>        -0.1556
     26 C17        -7.6165  -10.7985   -1.7804 C.2       1 <0>        -0.1203
     27 C18        -7.6504  -10.8717   -3.2509 C.2       1 <0>        -0.1297
     28 C19        -6.6902  -10.2717   -3.9705 C.2       1 <0>        -0.1431
     29 C20        -4.1051   -6.5252    1.3632 C.3       1 <0>        -0.0707
     30 C21        -5.4215   -5.8903    1.8158 C.3       1 <0>        -0.1437
     31 C22        -4.1185   -8.0187    1.6950 C.3       1 <0>        -0.1580
     32 C23        -2.9382   -5.8520    2.0887 C.3       1 <0>        -0.1318
     33 H3          2.9977   -2.6032   -2.5207 H         1 <0>         0.0527
     34 H4          2.0364   -4.0963   -2.3988 H         1 <0>         0.0537
     35 H5          1.5767   -2.8348   -3.5673 H         1 <0>         0.0514
     36 H6          1.5221   -2.5514   -0.5286 H         1 <0>         0.0613
     37 H7          1.0623   -1.2899   -1.6972 H         1 <0>         0.0572
     38 H8         -0.7208   -2.7649   -2.5879 H         1 <0>         0.0528
     39 H9         -0.2611   -4.0264   -1.4194 H         1 <0>         0.0804
     40 H10        -0.8284   -2.5583    0.4541 H         1 <0>         0.0741
     41 H11        -1.1615   -1.2117   -0.6612 H         1 <0>         0.0739
     42 H12        -4.5545   -2.4227    0.1971 H         1 <0>         0.0961
     43 H13        -3.1692   -2.1049    1.2688 H         1 <0>         0.1048
     44 H14        -4.8378   -0.9352   -1.7859 H         1 <0>         0.1531
     45 H15        -2.9232    1.2582    0.2877 H         1 <0>         0.3982
     46 H16        -4.6789   -4.4329   -0.7207 H         1 <0>         0.4082
     47 H17        -3.1696   -8.4888   -0.3844 H         1 <0>         0.0953
     48 H18        -4.2740   -9.8719   -0.1666 H         1 <0>         0.0790
     49 H19        -2.9727   -8.9770   -2.7817 H         1 <0>         0.0694
     50 H20        -2.5844  -10.4474   -1.8546 H         1 <0>         0.0815
     51 H21        -4.0933  -10.9905   -3.7310 H         1 <0>         0.0701
     52 H22        -4.9194  -11.2486   -2.1770 H         1 <0>         0.0700
     53 H23        -5.1730   -8.7689   -3.9389 H         1 <0>         0.0859
     54 H24        -6.8542   -8.0374   -2.3286 H         1 <0>         0.1095
     55 H25        -6.8995   -9.7650   -0.1094 H         1 <0>         0.1182
     56 H26        -8.1511  -11.5260   -1.1876 H         1 <0>         0.1219
     57 H27        -8.4440  -11.4089   -3.7489 H         1 <0>         0.1213
     58 H28        -6.7013  -10.3277   -5.0490 H         1 <0>         0.1226
     59 H29        -6.2527   -6.3698    1.2989 H         1 <0>         0.0599
     60 H30        -5.5377   -6.0224    2.8915 H         1 <0>         0.0593
     61 H31        -5.4119   -4.8262    1.5794 H         1 <0>         0.0572
     62 H32        -3.1539   -8.4566    1.4386 H         1 <0>         0.0646
     63 H33        -4.3067   -8.1525    2.7603 H         1 <0>         0.0659
     64 H34        -4.9047   -8.5110    1.1225 H         1 <0>         0.0624
     65 H35        -2.9286   -4.7880    1.8523 H         1 <0>         0.0542
     66 H36        -3.0544   -5.9842    3.1644 H         1 <0>         0.0540
     67 H37        -2.0004   -6.3044    1.7662 H         1 <0>         0.0678
@<TRIPOS>BOND
     1    1    2 1
     2    1   33 1
     3    1   34 1
     4    1   35 1
     5    2    3 1
     6    2   36 1
     7    2   37 1
     8    3    4 1
     9    3   38 1
    10    3   39 1
    11    4    5 1
    12    4   40 1
    13    4   41 1
    14    5    6 1
    15    5    7 1
    16    5   12 1
    17    7    8 1
    18    7   42 1
    19    7   43 1
    20    8    9 am
    21    8   11 1
    22    9   10 2
    23    9   44 1
    24   11   45 1
    25   12   13 2
    26   12   14 am
    27   14   15 1
    28   14   46 1
    29   15   16 1
    30   15   17 1
    31   15   29 1
    32   17   18 2
    33   17   19 am
    34   19   24 1
    35   19   20 1
    36   20   21 1
    37   20   47 1
    38   20   48 1
    39   21   22 1
    40   21   49 1
    41   21   50 1
    42   22   23 1
    43   22   51 1
    44   22   52 1
    45   23   28 1
    46   23   24 1
    47   23   53 1
    48   24   25 1
    49   24   54 1
    50   25   26 2
    51   25   55 1
    52   26   27 1
    53   26   56 1
    54   27   28 2
    55   27   57 1
    56   28   58 1
    57   29   30 1
    58   29   31 1
    59   29   32 1
    60   30   59 1
    61   30   60 1
    62   30   61 1
    63   31   62 1
    64   31   63 1
    65   31   64 1
    66   32   65 1
    67   32   66 1
    68   32   67 1
@<TRIPOS>MOLECULE
CHEMBL92948__2
   67    68     0     0     0
SMALL
USER_CHARGES

@<TRIPOS>ATOM
      1 C1          0.4794   -0.3745   -1.1243 C.3       1 <0>        -0.1524
      2 C2         -0.3195   -0.4334    0.1792 C.3       1 <0>        -0.1216
      3 C3         -1.5225   -1.3614   -0.0015 C.3       1 <0>        -0.1254
      4 C4         -2.3214   -1.4204    1.3020 C.3       1 <0>        -0.0956
      5 C5         -3.5794   -2.2655    1.0914 C.3       1 <0>        -0.1310
      6 H1         -4.1464   -1.8693    0.2490 H         1 <0>         0.1035
      7 C6         -4.4422   -2.2191    2.3540 C.3       1 <0>         0.1430
      8 N1         -4.8824   -0.8426    2.5943 N.am      1 <0>        -0.4746
      9 C7         -5.8805   -0.3159    1.8575 C.2       1 <0>         0.4790
     10 O1         -6.2449    0.8236    2.0564 O.2       1 <0>        -0.5465
     11 O2         -4.2594   -0.0655    3.6008 O.3       1 <0>        -0.3313
     12 C8         -3.1845   -3.6913    0.8049 C.2       1 <0>         0.5256
     13 O3         -2.0123   -4.0011    0.7724 O.2       1 <0>        -0.5125
     14 N2         -4.1339   -4.6223    0.5849 N.am      1 <0>        -0.7145
     15 C9         -3.7500   -6.0084    0.3064 C.3       1 <0>         0.1367
     16 H2         -2.8269   -6.0203   -0.2732 H         1 <0>         0.1109
     17 C10        -4.8445   -6.6848   -0.4782 C.2       1 <0>         0.5206
     18 O4         -6.0065   -6.4325   -0.2395 O.2       1 <0>        -0.5293
     19 N3         -4.5320   -7.5702   -1.4451 N.am      1 <0>        -0.5967
     20 C11        -3.1351   -7.9663   -1.6688 C.3       1 <0>         0.0947
     21 C12        -3.0496   -9.4957   -1.6275 C.3       1 <0>        -0.1385
     22 C13        -4.0303  -10.0809   -2.6455 C.3       1 <0>        -0.1108
     23 C14        -5.4599   -9.6763   -2.2793 C.3       1 <0>        -0.0648
     24 C15        -5.5821   -8.1557   -2.2839 C.3       1 <0>         0.1762
     25 C16        -5.4524   -7.6455   -3.6942 C.2       1 <0>        -0.1570
     26 C17        -5.9524   -8.3533   -4.7029 C.2       1 <0>        -0.1208
     27 C18        -6.6395   -9.6264   -4.4273 C.2       1 <0>        -0.1280
     28 C19        -6.4127  -10.2579   -3.2934 C.2       1 <0>        -0.1407
     29 C20        -3.5335   -6.7525    1.6256 C.3       1 <0>        -0.0704
     30 C21        -4.8126   -6.6889    2.4628 C.3       1 <0>        -0.1443
     31 C22        -3.1859   -8.2140    1.3357 C.3       1 <0>        -0.1553
     32 C23        -2.3856   -6.0987    2.3975 C.3       1 <0>        -0.1316
     33 H3          1.3364    0.2866   -0.9956 H         1 <0>         0.0526
     34 H4          0.8276   -1.3746   -1.3826 H         1 <0>         0.0537
     35 H5         -0.1566    0.0064   -1.9234 H         1 <0>         0.0513
     36 H6          0.3164   -0.8144    0.9783 H         1 <0>         0.0612
     37 H7         -0.6677    0.5666    0.4375 H         1 <0>         0.0569
     38 H8         -2.1585   -0.9805   -0.8005 H         1 <0>         0.0525
     39 H9         -1.1743   -2.3615   -0.2598 H         1 <0>         0.0819
     40 H10        -1.7087   -1.8694    2.0837 H         1 <0>         0.0737
     41 H11        -2.6072   -0.4113    1.5990 H         1 <0>         0.0735
     42 H12        -5.3131   -2.8614    2.2228 H         1 <0>         0.0967
     43 H13        -3.8586   -2.5679    3.2060 H         1 <0>         0.1045
     44 H14        -6.3557   -0.9086    1.0898 H         1 <0>         0.1531
     45 H15        -4.6173    0.8288    3.6852 H         1 <0>         0.3982
     46 H16        -5.0713   -4.3745    0.6109 H         1 <0>         0.4077
     47 H17        -2.8044   -7.6073   -2.6434 H         1 <0>         0.0741
     48 H18        -2.5048   -7.5432   -0.8866 H         1 <0>         0.0942
     49 H19        -2.0360   -9.8107   -1.8755 H         1 <0>         0.0815
     50 H20        -3.3075   -9.8482   -0.6289 H         1 <0>         0.0752
     51 H21        -3.7899   -9.7028   -3.6391 H         1 <0>         0.0695
     52 H22        -3.9495  -11.1679   -2.6431 H         1 <0>         0.0706
     53 H23        -5.7044  -10.0589   -1.2883 H         1 <0>         0.0860
     54 H24        -6.5585   -7.8716   -1.8914 H         1 <0>         0.1102
     55 H25        -4.9541   -6.7067   -3.8865 H         1 <0>         0.1175
     56 H26        -5.8554   -7.9967   -5.7177 H         1 <0>         0.1214
     57 H27        -7.3276  -10.0388   -5.1504 H         1 <0>         0.1209
     58 H28        -6.9114  -11.1945   -3.0919 H         1 <0>         0.1206
     59 H29        -5.6303   -7.1546    1.9129 H         1 <0>         0.0641
     60 H30        -4.6584   -7.2190    3.4027 H         1 <0>         0.0581
     61 H31        -5.0602   -5.6477    2.6694 H         1 <0>         0.0561
     62 H32        -2.2388   -8.2625    0.7984 H         1 <0>         0.0634
     63 H33        -3.0991   -8.7601    2.2751 H         1 <0>         0.0663
     64 H34        -3.9722   -8.6607    0.7271 H         1 <0>         0.0614
     65 H35        -2.6333   -5.0575    2.6041 H         1 <0>         0.0569
     66 H36        -2.2315   -6.6289    3.3374 H         1 <0>         0.0537
     67 H37        -1.4744   -6.1441    1.8011 H         1 <0>         0.0645
@<TRIPOS>BOND
     1    1    2 1
     2    1   33 1
     3    1   34 1
     4    1   35 1
     5    2    3 1
     6    2   36 1
     7    2   37 1
     8    3    4 1
     9    3   38 1
    10    3   39 1
    11    4    5 1
    12    4   40 1
    13    4   41 1
    14    5    6 1
    15    5    7 1
    16    5   12 1
    17    7    8 1
    18    7   42 1
    19    7   43 1
    20    8    9 am
    21    8   11 1
    22    9   10 2
    23    9   44 1
    24   11   45 1
    25   12   13 2
    26   12   14 am
    27   14   15 1
    28   14   46 1
    29   15   16 1
    30   15   17 1
    31   15   29 1
    32   17   18 2
    33   17   19 am
    34   19   24 1
    35   19   20 1
    36   20   21 1
    37   20   47 1
    38   20   48 1
    39   21   22 1
    40   21   49 1
    41   21   50 1
    42   22   23 1
    43   22   51 1
    44   22   52 1
    45   23   28 1
    46   23   24 1
    47   23   53 1
    48   24   25 1
    49   24   54 1
    50   25   26 2
    51   25   55 1
    52   26   27 1
    53   26   56 1
    54   27   28 2
    55   27   57 1
    56   28   58 1
    57   29   30 1
    58   29   31 1
    59   29   32 1
    60   30   59 1
    61   30   60 1
    62   30   61 1
    63   31   62 1
    64   31   63 1
    65   31   64 1
    66   32   65 1
    67   32   66 1
    68   32   67 1
@<TRIPOS>MOLECULE
CHEMBL92948__3
   67    68     0     0     0
SMALL
USER_CHARGES

@<TRIPOS>ATOM
      1 C1         -0.1388   -1.1400   -1.9529 C.3       1 <0>        -0.1524
      2 C2         -0.7879   -1.0207   -0.5726 C.3       1 <0>        -0.1218
      3 C3         -2.0438   -1.8931   -0.5225 C.3       1 <0>        -0.1249
      4 C4         -2.6930   -1.7738    0.8578 C.3       1 <0>        -0.0962
      5 C5         -4.0080   -2.5558    0.8723 C.3       1 <0>        -0.1308
      6 H1         -4.6423   -2.2152    0.0539 H         1 <0>         0.1038
      7 C6         -4.7248   -2.3236    2.2039 C.3       1 <0>         0.1430
      8 N1         -5.1063   -0.9134    2.3136 N.am      1 <0>        -0.4748
      9 C7         -6.1637   -0.4454    1.6212 C.2       1 <0>         0.4789
     10 O1         -6.4795    0.7220    1.7121 O.2       1 <0>        -0.5463
     11 O2         -4.3641   -0.0420    3.1472 O.3       1 <0>        -0.3314
     12 C8         -3.7201   -4.0257    0.7064 C.2       1 <0>         0.5257
     13 O3         -2.5759   -4.4101    0.5883 O.2       1 <0>        -0.5123
     14 N2         -4.7343   -4.9133    0.6894 N.am      1 <0>        -0.7145
     15 C9         -4.4544   -6.3422    0.5281 C.3       1 <0>         0.1354
     16 H2         -3.6017   -6.4726   -0.1382 H         1 <0>         0.1099
     17 C10        -5.6610   -7.0271   -0.0602 C.2       1 <0>         0.5270
     18 O4         -6.7755   -6.6867    0.2758 O.2       1 <0>        -0.5205
     19 N3         -5.5016   -8.0179   -0.9598 N.am      1 <0>        -0.5971
     20 C11        -4.1664   -8.5497   -1.2854 C.3       1 <0>         0.0947
     21 C12        -4.1643  -10.0709   -1.1222 C.3       1 <0>        -0.1397
     22 C13        -5.3171  -10.6920   -1.9209 C.3       1 <0>        -0.1108
     23 C14        -6.6312  -10.1189   -1.4032 C.3       1 <0>        -0.0719
     24 C15        -6.6484   -8.6129   -1.6480 C.3       1 <0>         0.1781
     25 C16        -7.9586   -8.0507   -1.1790 C.2       1 <0>        -0.1635
     26 C17        -9.0655   -8.7694   -1.3711 C.2       1 <0>        -0.1465
     27 C18        -8.9863  -10.0939   -2.0072 C.2       1 <0>        -0.1260
     28 C19        -7.8315  -10.7447   -2.0512 C.2       1 <0>        -0.1503
     29 C20        -4.1341   -6.9563    1.8924 C.3       1 <0>        -0.0697
     30 C21        -5.3221   -6.7529    2.8348 C.3       1 <0>        -0.1445
     31 C22        -3.8646   -8.4533    1.7272 C.3       1 <0>        -0.1552
     32 C23        -2.8953   -6.2768    2.4794 C.3       1 <0>        -0.1316
     33 H3          0.7559   -0.5185   -1.9886 H         1 <0>         0.0526
     34 H4          0.1331   -2.1792   -2.1379 H         1 <0>         0.0537
     35 H5         -0.8429   -0.8073   -2.7155 H         1 <0>         0.0514
     36 H6         -0.0838   -1.3534    0.1901 H         1 <0>         0.0612
     37 H7         -1.0598    0.0185   -0.3875 H         1 <0>         0.0571
     38 H8         -2.7480   -1.5605   -1.2851 H         1 <0>         0.0527
     39 H9         -1.7719   -2.9323   -0.7075 H         1 <0>         0.0813
     40 H10        -2.0198   -2.1809    1.6123 H         1 <0>         0.0738
     41 H11        -2.8918   -0.7246    1.0764 H         1 <0>         0.0738
     42 H12        -5.6183   -2.9462    2.2489 H         1 <0>         0.0964
     43 H13        -4.0582   -2.5847    3.0257 H         1 <0>         0.1047
     44 H14        -6.7298   -1.1101    0.9854 H         1 <0>         0.1531
     45 H15        -4.6909    0.8681    3.1549 H         1 <0>         0.3983
     46 H16        -5.6494   -4.6059    0.7839 H         1 <0>         0.4076
     47 H17        -3.9157   -8.2950   -2.3151 H         1 <0>         0.0755
     48 H18        -3.4279   -8.1118   -0.6139 H         1 <0>         0.0950
     49 H19        -3.2174  -10.4715   -1.4840 H         1 <0>         0.0835
     50 H20        -4.2800  -10.3210   -0.0676 H         1 <0>         0.0738
     51 H21        -5.2029  -10.4491   -2.9773 H         1 <0>         0.0693
     52 H22        -5.3124  -11.7740   -1.7890 H         1 <0>         0.0739
     53 H23        -6.6867  -10.2845   -0.3273 H         1 <0>         0.0813
     54 H24        -6.5549   -8.4290   -2.7183 H         1 <0>         0.0832
     55 H25        -8.0039   -7.0856   -0.6964 H         1 <0>         0.1820
     56 H26       -10.0225   -8.3784   -1.0586 H         1 <0>         0.1187
     57 H27        -9.8691  -10.5339   -2.4470 H         1 <0>         0.1166
     58 H28        -7.7595  -11.7090   -2.5321 H         1 <0>         0.1218
     59 H29        -6.2047   -7.2370    2.4167 H         1 <0>         0.0650
     60 H30        -5.0939   -7.1904    3.8068 H         1 <0>         0.0575
     61 H31        -5.5141   -5.6864    2.9525 H         1 <0>         0.0563
     62 H32        -2.9726   -8.5968    1.1175 H         1 <0>         0.0629
     63 H33        -3.7114   -8.9052    2.7073 H         1 <0>         0.0664
     64 H34        -4.7179   -8.9244    1.2393 H         1 <0>         0.0607
     65 H35        -3.0873   -5.2103    2.5970 H         1 <0>         0.0562
     66 H36        -2.6671   -6.7143    3.4513 H         1 <0>         0.0537
     67 H37        -2.0490   -6.4217    1.8079 H         1 <0>         0.0652
@<TRIPOS>BOND
     1    1    2 1
     2    1   33 1
     3    1   34 1
     4    1   35 1
     5    2    3 1
     6    2   36 1
     7    2   37 1
     8    3    4 1
     9    3   38 1
    10    3   39 1
    11    4    5 1
    12    4   40 1
    13    4   41 1
    14    5    6 1
    15    5    7 1
    16    5   12 1
    17    7    8 1
    18    7   42 1
    19    7   43 1
    20    8    9 am
    21    8   11 1
    22    9   10 2
    23    9   44 1
    24   11   45 1
    25   12   13 2
    26   12   14 am
    27   14   15 1
    28   14   46 1
    29   15   16 1
    30   15   17 1
    31   15   29 1
    32   17   18 2
    33   17   19 am
    34   19   24 1
    35   19   20 1
    36   20   21 1
    37   20   47 1
    38   20   48 1
    39   21   22 1
    40   21   49 1
    41   21   50 1
    42   22   23 1
    43   22   51 1
    44   22   52 1
    45   23   28 1
    46   23   24 1
    47   23   53 1
    48   24   25 1
    49   24   54 1
    50   25   26 2
    51   25   55 1
    52   26   27 1
    53   26   56 1
    54   27   28 2
    55   27   57 1
    56   28   58 1
    57   29   30 1
    58   29   31 1
    59   29   32 1
    60   30   59 1
    61   30   60 1
    62   30   61 1
    63   31   62 1
    64   31   63 1
    65   31   64 1
    66   32   65 1
    67   32   66 1
    68   32   67 1
@<TRIPOS>MOLECULE
CHEMBL90149
   71    72     0     0     0
SMALL
USER_CHARGES

@<TRIPOS>ATOM
      1 C1          1.2072   -3.4566    2.9841 C.3       1 <0>        -0.1524
      2 C2          0.7396   -2.6812    1.7508 C.3       1 <0>        -0.1218
      3 C3          1.4847   -3.1906    0.5154 C.3       1 <0>        -0.1238
      4 C4          1.0171   -2.4153   -0.7180 C.3       1 <0>        -0.0966
      5 C5          1.8525   -2.8328   -1.9299 C.3       1 <0>        -0.1308
      6 H1          2.9116   -2.7278   -1.6946 H         1 <0>         0.1033
      7 C6          1.5038   -1.9393   -3.1219 C.3       1 <0>         0.1432
      8 N1          1.8923   -0.5579   -2.8270 N.am      1 <0>        -0.4747
      9 C7          3.1923   -0.2032   -2.8539 C.2       1 <0>         0.4790
     10 O1          3.5140    0.9404   -2.6098 O.2       1 <0>        -0.5465
     11 O2          0.9021    0.4045   -2.5136 O.3       1 <0>        -0.3315
     12 C8          1.5545   -4.2693   -2.2746 C.2       1 <0>         0.5257
     13 O3          0.7529   -4.8972   -1.6158 O.2       1 <0>        -0.5143
     14 N2          2.1788   -4.8561   -3.3149 N.am      1 <0>        -0.7136
     15 C9          1.8891   -6.2525   -3.6501 C.3       1 <0>         0.1341
     16 H2          1.7039   -6.8149   -2.7349 H         1 <0>         0.1091
     17 C10         3.0666   -6.8494   -4.3768 C.2       1 <0>         0.5213
     18 O4          3.7781   -6.1443   -5.0606 O.2       1 <0>        -0.5256
     19 N3          3.3292   -8.1667   -4.2669 N.am      1 <0>        -0.6014
     20 C11         2.4121   -9.0623   -3.5452 C.3       1 <0>         0.0953
     21 C12         3.1994   -9.8385   -2.4859 C.3       1 <0>        -0.1383
     22 C13         4.3906  -10.5437   -3.1417 C.3       1 <0>        -0.1163
     23 C14         5.3077   -9.4976   -3.7733 C.3       1 <0>        -0.0983
     24 C15         4.5340   -8.7478   -4.8689 C.3       1 <0>         0.1514
     25 C16         5.4251   -7.6519   -5.4516 C.3       1 <0>        -0.1084
     26 C17         6.6663   -8.2969   -6.0753 C.3       1 <0>        -0.1260
     27 C18         7.4352   -9.0801   -5.0105 C.3       1 <0>        -0.1222
     28 C19         6.5354  -10.1608   -4.3959 C.3       1 <0>        -0.1114
     29 C20         0.6510   -6.3155   -4.5468 C.3       1 <0>        -0.0704
     30 C21         0.9306   -5.5732   -5.8551 C.3       1 <0>        -0.1428
     31 C22         0.3156   -7.7769   -4.8512 C.3       1 <0>        -0.1570
     32 C23        -0.5312   -5.6593   -3.8308 C.3       1 <0>        -0.1319
     33 H3          0.9995   -4.5177    2.8465 H         1 <0>         0.0536
     34 H4          2.2788   -3.3107    3.1202 H         1 <0>         0.0514
     35 H5          0.6764   -3.0937    3.8642 H         1 <0>         0.0528
     36 H6         -0.3320   -2.8271    1.6146 H         1 <0>         0.0613
     37 H7          0.9473   -1.6201    1.8884 H         1 <0>         0.0573
     38 H8          2.5563   -3.0448    0.6515 H         1 <0>         0.0529
     39 H9          1.2770   -4.2518    0.3777 H         1 <0>         0.0797
     40 H10        -0.0336   -2.6344   -0.9081 H         1 <0>         0.0743
     41 H11         1.1395   -1.3464   -0.5431 H         1 <0>         0.0736
     42 H12         2.0395   -2.2867   -4.0053 H         1 <0>         0.0957
     43 H13         0.4305   -1.9832   -3.3072 H         1 <0>         0.1048
     44 H14         3.9475   -0.9373   -3.0929 H         1 <0>         0.1529
     45 H15         1.2543    1.2870   -2.3341 H         1 <0>         0.3982
     46 H16         2.8199   -4.3538   -3.8418 H         1 <0>         0.4079
     47 H17         1.6332   -8.4732   -3.0612 H         1 <0>         0.0936
     48 H18         1.9583   -9.7618   -4.2472 H         1 <0>         0.0772
     49 H19         3.5613   -9.1477   -1.7244 H         1 <0>         0.0673
     50 H20         2.5493  -10.5804   -2.0221 H         1 <0>         0.0794
     51 H21         4.9427  -11.1040   -2.3871 H         1 <0>         0.0686
     52 H22         4.0310  -11.2256   -3.9123 H         1 <0>         0.0660
     53 H23         5.6276   -8.7886   -3.0097 H         1 <0>         0.0730
     54 H24         4.2475   -9.4439   -5.6572 H         1 <0>         0.0731
     55 H25         4.8757   -7.1034   -6.2167 H         1 <0>         0.0938
     56 H26         5.7287   -6.9686   -4.6585 H         1 <0>         0.0670
     57 H27         6.3605   -8.9742   -6.8727 H         1 <0>         0.0594
     58 H28         7.3095   -7.5199   -6.4883 H         1 <0>         0.0652
     59 H29         8.3085   -9.5478   -5.4651 H         1 <0>         0.0626
     60 H30         7.7590   -8.3991   -4.2234 H         1 <0>         0.0597
     61 H31         7.0820  -10.7093   -3.6287 H         1 <0>         0.0670
     62 H32         6.2200  -10.8470   -5.1819 H         1 <0>         0.0633
     63 H33         1.7729   -6.0407   -6.3652 H         1 <0>         0.0604
     64 H34         0.0486   -5.6181   -6.4940 H         1 <0>         0.0583
     65 H35         1.1696   -4.5321   -5.6383 H         1 <0>         0.0568
     66 H36         0.0616   -8.2920   -3.9248 H         1 <0>         0.0638
     67 H37        -0.5320   -7.8203   -5.5352 H         1 <0>         0.0653
     68 H38         1.1782   -8.2596   -5.3105 H         1 <0>         0.0622
     69 H39        -0.2922   -4.6182   -3.6139 H         1 <0>         0.0539
     70 H40        -1.4132   -5.7042   -4.4696 H         1 <0>         0.0534
     71 H41        -0.7304   -6.1882   -2.8987 H         1 <0>         0.0672
@<TRIPOS>BOND
     1    1    2 1
     2    1   33 1
     3    1   34 1
     4    1   35 1
     5    2    3 1
     6    2   36 1
     7    2   37 1
     8    3    4 1
     9    3   38 1
    10    3   39 1
    11    4    5 1
    12    4   40 1
    13    4   41 1
    14    5    6 1
    15    5    7 1
    16    5   12 1
    17    7    8 1
    18    7   42 1
    19    7   43 1
    20    8    9 am
    21    8   11 1
    22    9   10 2
    23    9   44 1
    24   11   45 1
    25   12   13 2
    26   12   14 am
    27   14   15 1
    28   14   46 1
    29   15   16 1
    30   15   17 1
    31   15   29 1
    32   17   18 2
    33   17   19 am
    34   19   24 1
    35   19   20 1
    36   20   21 1
    37   20   47 1
    38   20   48 1
    39   21   22 1
    40   21   49 1
    41   21   50 1
    42   22   23 1
    43   22   51 1
    44   22   52 1
    45   23   28 1
    46   23   24 1
    47   23   53 1
    48   24   25 1
    49   24   54 1
    50   25   26 1
    51   25   55 1
    52   25   56 1
    53   26   27 1
    54   26   57 1
    55   26   58 1
    56   27   28 1
    57   27   59 1
    58   27   60 1
    59   28   61 1
    60   28   62 1
    61   29   30 1
    62   29   31 1
    63   29   32 1
    64   30   63 1
    65   30   64 1
    66   30   65 1
    67   31   66 1
    68   31   67 1
    69   31   68 1
    70   32   69 1
    71   32   70 1
    72   32   71 1
@<TRIPOS>MOLECULE
CHEMBL90149__1
   71    72     0     0     0
SMALL
USER_CHARGES

@<TRIPOS>ATOM
      1 C1          1.3436   -3.0823    2.9412 C.3       1 <0>        -0.1524
      2 C2          0.8682   -2.3985    1.6577 C.3       1 <0>        -0.1218
      3 C3          1.6425   -2.9601    0.4636 C.3       1 <0>        -0.1243
      4 C4          1.1671   -2.2763   -0.8198 C.3       1 <0>        -0.0962
      5 C5          2.0288   -2.7419   -1.9951 C.3       1 <0>        -0.1308
      6 H1          3.0811   -2.5817   -1.7601 H         1 <0>         0.1035
      7 C6          1.6585   -1.9438   -3.2468 C.3       1 <0>         0.1430
      8 N1          2.0018   -0.5338   -3.0462 N.am      1 <0>        -0.4747
      9 C7          3.2879   -0.1369   -3.1155 C.2       1 <0>         0.4790
     10 O1          3.5721    1.0304   -2.9494 O.2       1 <0>        -0.5466
     11 O2          0.9823    0.4121   -2.7794 O.3       1 <0>        -0.3315
     12 C8          1.7876   -4.2084   -2.2448 C.2       1 <0>         0.5258
     13 O3          1.0037   -4.8208   -1.5511 O.2       1 <0>        -0.5140
     14 N2          2.4431   -4.8394   -3.2392 N.am      1 <0>        -0.7144
     15 C9          2.2086   -6.2650   -3.4819 C.3       1 <0>         0.1363
     16 H2          2.0358   -6.7716   -2.5324 H         1 <0>         0.1106
     17 C10         3.4143   -6.8643   -4.1588 C.2       1 <0>         0.5206
     18 O4          4.1078   -6.1790   -4.8802 O.2       1 <0>        -0.5340
     19 N3          3.7220   -8.1617   -3.9626 N.am      1 <0>        -0.6015
     20 C11         2.8332   -9.0361   -3.1850 C.3       1 <0>         0.0941
     21 C12         3.6428   -9.7012   -2.0679 C.3       1 <0>        -0.1386
     22 C13         4.8572  -10.4110   -2.6722 C.3       1 <0>        -0.1178
     23 C14         5.7432   -9.3868   -3.3819 C.3       1 <0>        -0.0945
     24 C15         4.9532   -8.7379   -4.5273 C.3       1 <0>         0.1488
     25 C16         4.5667   -9.8036   -5.5559 C.3       1 <0>        -0.1281
     26 C17         5.8285  -10.4661   -6.1106 C.3       1 <0>        -0.1166
     27 C18         6.5965  -11.1314   -4.9661 C.3       1 <0>        -0.1228
     28 C19         6.9962  -10.0661   -3.9287 C.3       1 <0>        -0.1127
     29 C20         0.9823   -6.4343   -4.3810 C.3       1 <0>        -0.0705
     30 C21         1.2466   -5.7712   -5.7343 C.3       1 <0>        -0.1432
     31 C22         0.7041   -7.9244   -4.5888 C.3       1 <0>        -0.1576
     32 C23        -0.2302   -5.7766   -3.7189 C.3       1 <0>        -0.1318
     33 H3          1.1688   -4.1557    2.8671 H         1 <0>         0.0536
     34 H4          2.4087   -2.8963    3.0789 H         1 <0>         0.0514
     35 H5          0.7919   -2.6822    3.7919 H         1 <0>         0.0527
     36 H6         -0.1970   -2.5845    1.5200 H         1 <0>         0.0613
     37 H7          1.0429   -1.3251    1.7318 H         1 <0>         0.0572
     38 H8          2.7077   -2.7741    0.6013 H         1 <0>         0.0528
     39 H9          1.4677   -4.0335    0.3896 H         1 <0>         0.0804
     40 H10         0.1256   -2.5381   -1.0066 H         1 <0>         0.0740
     41 H11         1.2559   -1.1955   -0.7099 H         1 <0>         0.0737
     42 H12         2.2096   -2.3337   -4.1026 H         1 <0>         0.0961
     43 H13         0.5882   -2.0344   -3.4320 H         1 <0>         0.1048
     44 H14         4.0654   -0.8583   -3.3190 H         1 <0>         0.1531
     45 H15         1.3054    1.3159   -2.6617 H         1 <0>         0.3982
     46 H16         3.0701   -4.3496   -3.7940 H         1 <0>         0.4080
     47 H17         2.0284   -8.4440   -2.7494 H         1 <0>         0.0929
     48 H18         2.4131   -9.8021   -3.8369 H         1 <0>         0.0775
     49 H19         3.9796   -8.9423   -1.3617 H         1 <0>         0.0672
     50 H20         3.0177  -10.4283   -1.5494 H         1 <0>         0.0788
     51 H21         5.4262  -10.8965   -1.8794 H         1 <0>         0.0674
     52 H22         4.5209  -11.1597   -3.3894 H         1 <0>         0.0717
     53 H23         6.0346   -8.6113   -2.6736 H         1 <0>         0.0712
     54 H24         5.5496   -7.9550   -4.9958 H         1 <0>         0.1019
     55 H25         3.9408  -10.5578   -5.0791 H         1 <0>         0.0692
     56 H26         4.0138   -9.3370   -6.3712 H         1 <0>         0.0646
     57 H27         5.5499  -11.2191   -6.8478 H         1 <0>         0.0664
     58 H28         6.4587   -9.7115   -6.5812 H         1 <0>         0.0645
     59 H29         5.9627  -11.8783   -4.4882 H         1 <0>         0.0650
     60 H30         7.4925  -11.6115   -5.3597 H         1 <0>         0.0643
     61 H31         7.6344   -9.3210   -4.4037 H         1 <0>         0.0647
     62 H32         7.5393  -10.5379   -3.1098 H         1 <0>         0.0675
     63 H33         2.1104   -6.2398   -6.2059 H         1 <0>         0.0599
     64 H34         0.3729   -5.8918   -6.3748 H         1 <0>         0.0589
     65 H35         1.4448   -4.7097   -5.5862 H         1 <0>         0.0568
     66 H36         0.4449   -8.3822   -3.6342 H         1 <0>         0.0639
     67 H37        -0.1244   -8.0454   -5.2867 H         1 <0>         0.0653
     68 H38         1.5936   -8.4070   -4.9937 H         1 <0>         0.0631
     69 H39        -0.0320   -4.7150   -3.5709 H         1 <0>         0.0540
     70 H40        -1.1038   -5.8972   -4.3594 H         1 <0>         0.0537
     71 H41        -0.4185   -6.2490   -2.7548 H         1 <0>         0.0675
@<TRIPOS>BOND
     1    1    2 1
     2    1   33 1
     3    1   34 1
     4    1   35 1
     5    2    3 1
     6    2   36 1
     7    2   37 1
     8    3    4 1
     9    3   38 1
    10    3   39 1
    11    4    5 1
    12    4   40 1
    13    4   41 1
    14    5    6 1
    15    5    7 1
    16    5   12 1
    17    7    8 1
    18    7   42 1
    19    7   43 1
    20    8    9 am
    21    8   11 1
    22    9   10 2
    23    9   44 1
    24   11   45 1
    25   12   13 2
    26   12   14 am
    27   14   15 1
    28   14   46 1
    29   15   16 1
    30   15   17 1
    31   15   29 1
    32   17   18 2
    33   17   19 am
    34   19   24 1
    35   19   20 1
    36   20   21 1
    37   20   47 1
    38   20   48 1
    39   21   22 1
    40   21   49 1
    41   21   50 1
    42   22   23 1
    43   22   51 1
    44   22   52 1
    45   23   28 1
    46   23   24 1
    47   23   53 1
    48   24   25 1
    49   24   54 1
    50   25   26 1
    51   25   55 1
    52   25   56 1
    53   26   27 1
    54   26   57 1
    55   26   58 1
    56   27   28 1
    57   27   59 1
    58   27   60 1
    59   28   61 1
    60   28   62 1
    61   29   30 1
    62   29   31 1
    63   29   32 1
    64   30   63 1
    65   30   64 1
    66   30   65 1
    67   31   66 1
    68   31   67 1
    69   31   68 1
    70   32   69 1
    71   32   70 1
    72   32   71 1
@<TRIPOS>MOLECULE
CHEMBL90149__2
   71    72     0     0     0
SMALL
USER_CHARGES

@<TRIPOS>ATOM
      1 C1          1.0805   -3.3850    3.1333 C.3       1 <0>        -0.1524
      2 C2          0.4522   -2.6329    1.9583 C.3       1 <0>        -0.1219
      3 C3          1.1969   -2.9867    0.6695 C.3       1 <0>        -0.1237
      4 C4          0.5686   -2.2346   -0.5055 C.3       1 <0>        -0.0964
      5 C5          1.3923   -2.4850   -1.7703 C.3       1 <0>        -0.1308
      6 H1          2.4378   -2.2452   -1.5764 H         1 <0>         0.1032
      7 C6          0.8680   -1.6009   -2.9036 C.3       1 <0>         0.1432
      8 N1          1.0737   -0.1920   -2.5590 N.am      1 <0>        -0.4746
      9 C7          2.3079    0.3451   -2.6266 C.2       1 <0>         0.4790
     10 O1          2.4782    1.5115   -2.3413 O.2       1 <0>        -0.5465
     11 O2         -0.0243    0.6056   -2.1549 O.3       1 <0>        -0.3316
     12 C8          1.2746   -3.9338   -2.1678 C.2       1 <0>         0.5261
     13 O3          0.5984   -4.6915   -1.5047 O.2       1 <0>        -0.5143
     14 N2          1.9206   -4.3875   -3.2601 N.am      1 <0>        -0.7139
     15 C9          1.8062   -5.7960   -3.6466 C.3       1 <0>         0.1347
     16 H2          1.7438   -6.4145   -2.7512 H         1 <0>         0.1080
     17 C10         3.0165   -6.1964   -4.4503 C.2       1 <0>         0.5128
     18 O4          3.6106   -5.3668   -5.1059 O.2       1 <0>        -0.5104
     19 N3          3.4387   -7.4762   -4.4405 N.am      1 <0>        -0.5951
     20 C11         2.6364   -8.5278   -3.7986 C.3       1 <0>         0.0933
     21 C12         3.5180   -9.2828   -2.7993 C.3       1 <0>        -0.1429
     22 C13         4.7759   -9.7902   -3.5084 C.3       1 <0>        -0.1177
     23 C14         5.5708   -8.5940   -4.0459 C.3       1 <0>        -0.0989
     24 C15         4.7067   -7.8531   -5.0757 C.3       1 <0>         0.1543
     25 C16         5.4308   -6.6097   -5.5826 C.3       1 <0>        -0.1154
     26 C17         5.7593   -5.6838   -4.4101 C.3       1 <0>        -0.1181
     27 C18         6.6532   -6.4283   -3.4154 C.3       1 <0>        -0.1277
     28 C19         5.9028   -7.6592   -2.8802 C.3       1 <0>        -0.1118
     29 C20         0.5455   -5.9924   -4.4909 C.3       1 <0>        -0.0702
     30 C21         0.6798   -5.2084   -5.7979 C.3       1 <0>        -0.1425
     31 C22         0.3679   -7.4794   -4.8042 C.3       1 <0>        -0.1619
     32 C23        -0.6720   -5.4857   -3.7151 C.3       1 <0>        -0.1326
     33 H3          1.0110   -4.4583    2.9565 H         1 <0>         0.0536
     34 H4          2.1281   -3.0996    3.2289 H         1 <0>         0.0514
     35 H5          0.5499   -3.1329    4.0515 H         1 <0>         0.0527
     36 H6         -0.5954   -2.9183    1.8627 H         1 <0>         0.0612
     37 H7          0.5217   -1.5595    2.1351 H         1 <0>         0.0572
     38 H8          2.2445   -2.7013    0.7651 H         1 <0>         0.0529
     39 H9          1.1274   -4.0600    0.4927 H         1 <0>         0.0797
     40 H10        -0.4508   -2.5882   -0.6598 H         1 <0>         0.0741
     41 H11         0.5537   -1.1668   -0.2871 H         1 <0>         0.0735
     42 H12         1.4056   -1.8322   -3.8232 H         1 <0>         0.0957
     43 H13        -0.1961   -1.7881   -3.0479 H         1 <0>         0.1045
     44 H14         3.1454   -0.2632   -2.9348 H         1 <0>         0.1528
     45 H15         0.2093    1.5209   -1.9482 H         1 <0>         0.3982
     46 H16         2.4614   -3.7815   -3.7904 H         1 <0>         0.4076
     47 H17         1.7946   -8.0759   -3.2740 H         1 <0>         0.0964
     48 H18         2.2680   -9.2197   -4.5560 H         1 <0>         0.0778
     49 H19         3.8035   -8.6128   -1.9883 H         1 <0>         0.0722
     50 H20         2.9638  -10.1290   -2.3931 H         1 <0>         0.0772
     51 H21         5.3912  -10.3486   -2.8029 H         1 <0>         0.0676
     52 H22         4.4904  -10.4391   -4.3363 H         1 <0>         0.0652
     53 H23         6.4929   -8.9444   -4.5096 H         1 <0>         0.0830
     54 H24         4.5047   -8.5112   -5.9208 H         1 <0>         0.0708
     55 H25         6.3545   -6.9061   -6.0796 H         1 <0>         0.0538
     56 H26         4.7925   -6.0830   -6.2920 H         1 <0>         0.0964
     57 H27         6.2815   -4.8008   -4.7787 H         1 <0>         0.0548
     58 H28         4.8364   -5.3817   -3.9150 H         1 <0>         0.0848
     59 H29         7.5695   -6.7432   -3.9146 H         1 <0>         0.0576
     60 H30         6.8995   -5.7689   -2.5832 H         1 <0>         0.0557
     61 H31         4.9796   -7.3442   -2.3938 H         1 <0>         0.0635
     62 H32         6.5295   -8.1857   -2.1604 H         1 <0>         0.0594
     63 H33         1.5471   -5.5693   -6.3506 H         1 <0>         0.0597
     64 H34        -0.2184   -5.3482   -6.3995 H         1 <0>         0.0580
     65 H35         0.8063   -4.1490   -5.5748 H         1 <0>         0.0570
     66 H36         0.1596   -8.0225   -3.8824 H         1 <0>         0.0645
     67 H37        -0.4633   -7.6080   -5.4974 H         1 <0>         0.0645
     68 H38         1.2810   -7.8671   -5.2559 H         1 <0>         0.0673
     69 H39        -0.5455   -4.4263   -3.4919 H         1 <0>         0.0528
     70 H40        -1.5702   -5.6256   -4.3166 H         1 <0>         0.0532
     71 H41        -0.7677   -6.0442   -2.7840 H         1 <0>         0.0685
@<TRIPOS>BOND
     1    1    2 1
     2    1   33 1
     3    1   34 1
     4    1   35 1
     5    2    3 1
     6    2   36 1
     7    2   37 1
     8    3    4 1
     9    3   38 1
    10    3   39 1
    11    4    5 1
    12    4   40 1
    13    4   41 1
    14    5    6 1
    15    5    7 1
    16    5   12 1
    17    7    8 1
    18    7   42 1
    19    7   43 1
    20    8    9 am
    21    8   11 1
    22    9   10 2
    23    9   44 1
    24   11   45 1
    25   12   13 2
    26   12   14 am
    27   14   15 1
    28   14   46 1
    29   15   16 1
    30   15   17 1
    31   15   29 1
    32   17   18 2
    33   17   19 am
    34   19   24 1
    35   19   20 1
    36   20   21 1
    37   20   47 1
    38   20   48 1
    39   21   22 1
    40   21   49 1
    41   21   50 1
    42   22   23 1
    43   22   51 1
    44   22   52 1
    45   23   28 1
    46   23   24 1
    47   23   53 1
    48   24   25 1
    49   24   54 1
    50   25   26 1
    51   25   55 1
    52   25   56 1
    53   26   27 1
    54   26   57 1
    55   26   58 1
    56   27   28 1
    57   27   59 1
    58   27   60 1
    59   28   61 1
    60   28   62 1
    61   29   30 1
    62   29   31 1
    63   29   32 1
    64   30   63 1
    65   30   64 1
    66   30   65 1
    67   31   66 1
    68   31   67 1
    69   31   68 1
    70   32   69 1
    71   32   70 1
    72   32   71 1
@<TRIPOS>MOLECULE
CHEMBL90149__3
   71    72     0     0     0
SMALL
USER_CHARGES

@<TRIPOS>ATOM
      1 C1          0.3668   -0.4457    1.0811 C.3       1 <0>        -0.1524
      2 C2         -0.2960   -0.4729   -0.2977 C.3       1 <0>        -0.1218
      3 C3          0.5442   -1.3252   -1.2508 C.3       1 <0>        -0.1248
      4 C4         -0.1186   -1.3523   -2.6295 C.3       1 <0>        -0.0959
      5 C5          0.7808   -2.1039   -3.6130 C.3       1 <0>        -0.1309
      6 H1          1.7762   -1.6598   -3.6073 H         1 <0>         0.1033
      7 C6          0.1883   -2.0093   -5.0204 C.3       1 <0>         0.1432
      8 N1          0.1655   -0.6082   -5.4476 N.am      1 <0>        -0.4745
      9 C7          1.3044   -0.0056   -5.8428 C.2       1 <0>         0.4790
     10 O1          1.2856    1.1544   -6.1964 O.2       1 <0>        -0.5466
     11 O2         -1.0531    0.1130   -5.4452 O.3       1 <0>        -0.3314
     12 C8          0.8739   -3.5511   -3.2034 C.2       1 <0>         0.5254
     13 O3          0.2796   -3.9429   -2.2215 O.2       1 <0>        -0.5133
     14 N2          1.6178   -4.4101   -3.9282 N.am      1 <0>        -0.7139
     15 C9          1.7084   -5.8170   -3.5299 C.3       1 <0>         0.1339
     16 H2          1.6938   -5.8885   -2.4424 H         1 <0>         0.1081
     17 C10         2.9923   -6.4060   -4.0549 C.2       1 <0>         0.5198
     18 O4          3.4092   -6.0771   -5.1453 O.2       1 <0>        -0.5235
     19 N3          3.6774   -7.2983   -3.3127 N.am      1 <0>        -0.6011
     20 C11         3.1354   -7.7963   -2.0390 C.3       1 <0>         0.0955
     21 C12         3.1284   -9.3273   -2.0615 C.3       1 <0>        -0.1391
     22 C13         4.5293   -9.8452   -2.4013 C.3       1 <0>        -0.1164
     23 C14         4.9333   -9.3310   -3.7821 C.3       1 <0>        -0.0990
     24 C15         4.9810   -7.8041   -3.7558 C.3       1 <0>         0.1511
     25 C16         5.3070   -7.2927   -5.1582 C.3       1 <0>        -0.1025
     26 C17         6.6750   -7.8355   -5.5819 C.3       1 <0>        -0.1281
     27 C18         6.6506   -9.3644   -5.5793 C.3       1 <0>        -0.1217
     28 C19         6.3078   -9.8685   -4.1777 C.3       1 <0>        -0.1109
     29 C20         0.5199   -6.5881   -4.1076 C.3       1 <0>        -0.0694
     30 C21         0.5326   -6.4765   -5.6335 C.3       1 <0>        -0.1434
     31 C22         0.6217   -8.0601   -3.7030 C.3       1 <0>        -0.1546
     32 C23        -0.7832   -5.9987   -3.5640 C.3       1 <0>        -0.1316
     33 H3          0.4388   -1.4615    1.4697 H         1 <0>         0.0537
     34 H4          1.3656   -0.0177    0.9956 H         1 <0>         0.0514
     35 H5         -0.2319    0.1615    1.7601 H         1 <0>         0.0526
     36 H6         -1.2949   -0.9009   -0.2123 H         1 <0>         0.0612
     37 H7         -0.3681    0.5429   -0.6863 H         1 <0>         0.0570
     38 H8          1.5430   -0.8971   -1.3362 H         1 <0>         0.0526
     39 H9          0.6163   -2.3410   -0.8622 H         1 <0>         0.0812
     40 H10        -1.0821   -1.8572   -2.5595 H         1 <0>         0.0737
     41 H11        -0.2680   -0.3315   -2.9810 H         1 <0>         0.0734
     42 H12         0.7992   -2.5900   -5.7116 H         1 <0>         0.0965
     43 H13        -0.8278   -2.4038   -5.0141 H         1 <0>         0.1043
     44 H14         2.2338   -0.5556   -5.8446 H         1 <0>         0.1529
     45 H15        -0.9685    1.0292   -5.7428 H         1 <0>         0.3982
     46 H16         2.0932   -4.0967   -4.7135 H         1 <0>         0.4073
     47 H17         3.7590   -7.4469   -1.2162 H         1 <0>         0.0725
     48 H18         2.1176   -7.4291   -1.9077 H         1 <0>         0.0922
     49 H19         2.8304   -9.7030   -1.0826 H         1 <0>         0.0793
     50 H20         2.4206   -9.6757   -2.8137 H         1 <0>         0.0732
     51 H21         5.2404   -9.4870   -1.6569 H         1 <0>         0.0654
     52 H22         4.5234  -10.9351   -2.4059 H         1 <0>         0.0689
     53 H23         4.1946   -9.6502   -4.5173 H         1 <0>         0.0735
     54 H24         5.7536   -7.4788   -3.0591 H         1 <0>         0.0720
     55 H25         4.5455   -7.6368   -5.8580 H         1 <0>         0.0751
     56 H26         5.3330   -6.2030   -5.1522 H         1 <0>         0.0821
     57 H27         6.9115   -7.4787   -6.5843 H         1 <0>         0.0646
     58 H28         7.4357   -7.4842   -4.8848 H         1 <0>         0.0585
     59 H29         5.9044   -9.7159   -6.2919 H         1 <0>         0.0620
     60 H30         7.6314   -9.7427   -5.8677 H         1 <0>         0.0619
     61 H31         7.0539   -9.5243   -3.4615 H         1 <0>         0.0651
     62 H32         6.2845  -10.9582   -4.1869 H         1 <0>         0.0657
     63 H33         1.4610   -6.8964   -6.0208 H         1 <0>         0.0644
     64 H34        -0.3141   -7.0258   -6.0451 H         1 <0>         0.0566
     65 H35         0.4601   -5.4278   -5.9217 H         1 <0>         0.0558
     66 H36         0.5368   -8.1459   -2.6197 H         1 <0>         0.0621
     67 H37        -0.1826   -8.6234   -4.1762 H         1 <0>         0.0651
     68 H38         1.5833   -8.4597   -4.0249 H         1 <0>         0.0619
     69 H39        -0.8558   -4.9500   -3.8523 H         1 <0>         0.0555
     70 H40        -1.6300   -6.5481   -3.9756 H         1 <0>         0.0530
     71 H41        -0.7923   -6.0782   -2.4770 H         1 <0>         0.0650
@<TRIPOS>BOND
     1    1    2 1
     2    1   33 1
     3    1   34 1
     4    1   35 1
     5    2    3 1
     6    2   36 1
     7    2   37 1
     8    3    4 1
     9    3   38 1
    10    3   39 1
    11    4    5 1
    12    4   40 1
    13    4   41 1
    14    5    6 1
    15    5    7 1
    16    5   12 1
    17    7    8 1
    18    7   42 1
    19    7   43 1
    20    8    9 am
    21    8   11 1
    22    9   10 2
    23    9   44 1
    24   11   45 1
    25   12   13 2
    26   12   14 am
    27   14   15 1
    28   14   46 1
    29   15   16 1
    30   15   17 1
    31   15   29 1
    32   17   18 2
    33   17   19 am
    34   19   24 1
    35   19   20 1
    36   20   21 1
    37   20   47 1
    38   20   48 1
    39   21   22 1
    40   21   49 1
    41   21   50 1
    42   22   23 1
    43   22   51 1
    44   22   52 1
    45   23   28 1
    46   23   24 1
    47   23   53 1
    48   24   25 1
    49   24   54 1
    50   25   26 1
    51   25   55 1
    52   25   56 1
    53   26   27 1
    54   26   57 1
    55   26   58 1
    56   27   28 1
    57   27   59 1
    58   27   60 1
    59   28   61 1
    60   28   62 1
    61   29   30 1
    62   29   31 1
    63   29   32 1
    64   30   63 1
    65   30   64 1
    66   30   65 1
    67   31   66 1
    68   31   67 1
    69   31   68 1
    70   32   69 1
    71   32   70 1
    72   32   71 1
@<TRIPOS>MOLECULE
CHEMBL37522
   28    29     0     0     0
SMALL
USER_CHARGES

@<TRIPOS>ATOM
      1 C1         -0.0167    1.3783    0.0096 C.ar      1 <0>        -0.1434
      2 C2          1.1702    2.0884    0.0021 C.ar      1 <0>        -0.0860
      3 C3          2.3772    1.4180   -0.0206 C.ar      1 <0>        -0.1562
      4 C4          2.3996    0.0296   -0.0409 C.ar      1 <0>         0.1649
      5 C5          1.2067   -0.6800   -0.0158 C.ar      1 <0>        -0.1305
      6 C6          0.0021   -0.0041    0.0020 C.ar      1 <0>        -0.0807
      7 C7          1.2242   -2.1866    0.0129 C.3       1 <0>        -0.0746
      8 C8          2.4252   -2.7026   -0.7801 C.3       1 <0>        -0.0882
      9 C9          3.6682   -1.9631   -0.3604 C.2       1 <0>         0.5169
     10 O1          4.7230   -2.5566   -0.2831 O.2       1 <0>        -0.4838
     11 N1          3.6196   -0.6514   -0.0711 N.am      1 <0>        -0.6687
     12 C10         2.1815   -2.4811   -2.2743 C.3       1 <0>        -0.1183
     13 C11         3.3068   -3.0987   -3.0638 C.2       1 <0>         0.5077
     14 O2          4.2143   -3.6607   -2.4881 O.2       1 <0>        -0.4881
     15 N2          3.3046   -3.0265   -4.4096 N.am      1 <0>        -0.6000
     16 O3          4.3620   -3.6068   -5.1515 O.3       1 <0>        -0.3171
     17 H1         -0.9596    1.9046    0.0260 H         1 <0>         0.1263
     18 H2          1.1530    3.1682    0.0137 H         1 <0>         0.1282
     19 H3          3.3035    1.9733   -0.0230 H         1 <0>         0.1278
     20 H4         -0.9261   -0.5561    0.0103 H         1 <0>         0.1300
     21 H5          1.2970   -2.5290    1.0452 H         1 <0>         0.0909
     22 H6          0.3050   -2.5686   -0.4313 H         1 <0>         0.0957
     23 H7          2.5553   -3.7678   -0.5890 H         1 <0>         0.1235
     24 H8          4.4411   -0.1718    0.1189 H         1 <0>         0.4105
     25 H9          1.2383   -2.9460   -2.5614 H         1 <0>         0.1167
     26 H10         2.1371   -1.4117   -2.4805 H         1 <0>         0.1025
     27 H11         2.5788   -2.5770   -4.8700 H         1 <0>         0.4067
     28 H12         4.2732   -3.5043   -6.1089 H         1 <0>         0.3873
@<TRIPOS>BOND
     1    1    6 ar
     2    1    2 ar
     3    1   17 1
     4    2    3 ar
     5    2   18 1
     6    3    4 ar
     7    3   19 1
     8    4   11 1
     9    4    5 ar
    10    5    6 ar
    11    5    7 1
    12    6   20 1
    13    7    8 1
    14    7   21 1
    15    7   22 1
    16    8    9 1
    17    8   12 1
    18    8   23 1
    19    9   10 2
    20    9   11 am
    21   11   24 1
    22   12   13 1
    23   12   25 1
    24   12   26 1
    25   13   14 2
    26   13   15 am
    27   15   16 1
    28   15   27 1
    29   16   28 1
@<TRIPOS>MOLECULE
CHEMBL37522__1
   28    29     0     0     0
SMALL
USER_CHARGES

@<TRIPOS>ATOM
      1 C1         -0.0167    1.3783    0.0096 C.ar      1 <0>        -0.1433
      2 C2          1.1702    2.0884    0.0021 C.ar      1 <0>        -0.0856
      3 C3          2.3772    1.4180   -0.0206 C.ar      1 <0>        -0.1553
      4 C4          2.3996    0.0296   -0.0409 C.ar      1 <0>         0.1654
      5 C5          1.2067   -0.6800   -0.0158 C.ar      1 <0>        -0.1295
      6 C6          0.0021   -0.0041    0.0020 C.ar      1 <0>        -0.0801
      7 C7          1.2242   -2.1866    0.0129 C.3       1 <0>        -0.0716
      8 C8          2.4252   -2.7026   -0.7801 C.3       1 <0>        -0.0910
      9 C9          3.6682   -1.9631   -0.3604 C.2       1 <0>         0.5236
     10 O1          4.7230   -2.5566   -0.2831 O.2       1 <0>        -0.4982
     11 N1          3.6196   -0.6514   -0.0711 N.am      1 <0>        -0.6660
     12 C10         2.6077   -4.1978   -0.5118 C.3       1 <0>        -0.1115
     13 C11         3.7128   -4.7337   -1.3852 C.2       1 <0>         0.5287
     14 O2          4.2968   -3.9927   -2.1473 O.2       1 <0>        -0.5016
     15 N2          4.0520   -6.0364   -1.3195 N.am      1 <0>        -0.6014
     16 O3          5.0903   -6.5399   -2.1402 O.3       1 <0>        -0.3181
     17 H1         -0.9596    1.9046    0.0260 H         1 <0>         0.1268
     18 H2          1.1530    3.1682    0.0137 H         1 <0>         0.1288
     19 H3          3.3035    1.9733   -0.0230 H         1 <0>         0.1284
     20 H4         -0.9261   -0.5561    0.0103 H         1 <0>         0.1301
     21 H5          1.2970   -2.5290    1.0452 H         1 <0>         0.0865
     22 H6          0.3050   -2.5686   -0.4313 H         1 <0>         0.0953
     23 H7          2.2516   -2.5448   -1.8446 H         1 <0>         0.1193
     24 H8          4.4411   -0.1718    0.1189 H         1 <0>         0.4113
     25 H9          2.8667   -4.3499    0.5360 H         1 <0>         0.1050
     26 H10         1.6796   -4.7233   -0.7367 H         1 <0>         0.1125
     27 H11         3.5849   -6.6290   -0.7100 H         1 <0>         0.4059
     28 H12         5.2614   -7.4844   -2.0228 H         1 <0>         0.3859
@<TRIPOS>BOND
     1    1    6 ar
     2    1    2 ar
     3    1   17 1
     4    2    3 ar
     5    2   18 1
     6    3    4 ar
     7    3   19 1
     8    4   11 1
     9    4    5 ar
    10    5    6 ar
    11    5    7 1
    12    6   20 1
    13    7    8 1
    14    7   21 1
    15    7   22 1
    16    8    9 1
    17    8   12 1
    18    8   23 1
    19    9   10 2
    20    9   11 am
    21   11   24 1
    22   12   13 1
    23   12   25 1
    24   12   26 1
    25   13   14 2
    26   13   15 am
    27   15   16 1
    28   15   27 1
    29   16   28 1
@<TRIPOS>MOLECULE
CHEMBL506649
   51    53     0     0     0
SMALL
USER_CHARGES

@<TRIPOS>ATOM
      1 C1          1.5346   -1.9847   -2.4340 C.3       1 <0>        -0.1520
      2 C2          0.7817   -1.6276   -1.1508 C.3       1 <0>        -0.1211
      3 C3         -0.6013   -2.2817   -1.1721 C.3       1 <0>        -0.1236
      4 C4         -1.3541   -1.9246    0.1111 C.3       1 <0>        -0.0970
      5 C5         -2.7818   -2.4692    0.0330 C.3       1 <0>        -0.1244
      6 H1         -3.2550   -2.1181   -0.8840 H         1 <0>         0.1044
      7 C6         -3.5821   -1.9771    1.2406 C.3       1 <0>         0.1370
      8 N1         -3.6998   -0.5178    1.1866 N.am      1 <0>        -0.4744
      9 C7         -4.5449    0.0581    0.3088 C.2       1 <0>         0.4789
     10 O1         -4.6424    1.2661    0.2641 O.2       1 <0>        -0.5456
     11 O2         -2.9257    0.2876    2.0567 O.3       1 <0>        -0.3312
     12 C8         -2.7456   -3.9758    0.0346 C.2       1 <0>         0.5422
     13 O3         -1.6825   -4.5567    0.0924 O.2       1 <0>        -0.5100
     14 N2         -3.8945   -4.6775   -0.0283 N.am      1 <0>        -0.6067
     15 C9         -5.2495   -4.1021   -0.1085 C.3       1 <0>         0.0924
     16 C10        -6.1115   -5.2079   -0.7672 C.3       1 <0>        -0.1317
     17 C11        -5.5035   -6.4910   -0.1415 C.3       1 <0>        -0.1202
     18 C12        -4.0038   -6.1437   -0.0347 C.3       1 <0>         0.2303
     19 H2         -3.5963   -6.5498    0.8911 H         1 <0>         0.1110
     20 C13        -3.2589   -6.7080   -1.2169 C.2       1 <0>         0.2439
     21 N3         -3.3190   -6.2369   -2.4261 N.2       1 <0>        -0.4618
     22 C14        -2.5214   -6.9904   -3.2304 C.ar      1 <0>         0.0217
     23 C15        -2.2052   -6.9497   -4.5894 C.ar      1 <0>        -0.0612
     24 C16        -1.3390   -7.8807   -5.1172 C.ar      1 <0>        -0.1197
     25 C17        -0.7797   -8.8582   -4.3072 C.ar      1 <0>        -0.0916
     26 C18        -1.0834   -8.9107   -2.9630 C.ar      1 <0>        -0.0931
     27 C19        -1.9532   -7.9804   -2.4145 C.ar      1 <0>         0.0120
     28 O4         -2.4339   -7.7658   -1.1701 O.3       1 <0>        -0.2084
     29 H3          2.5198   -1.5187   -2.4188 H         1 <0>         0.0534
     30 H4          1.6455   -3.0670   -2.5010 H         1 <0>         0.0526
     31 H5          0.9747   -1.6228   -3.2964 H         1 <0>         0.0518
     32 H6          1.3415   -1.9895   -0.2884 H         1 <0>         0.0609
     33 H7          0.6708   -0.5453   -1.0839 H         1 <0>         0.0583
     34 H8         -1.1611   -1.9198   -2.0345 H         1 <0>         0.0536
     35 H9         -0.4903   -3.3640   -1.2391 H         1 <0>         0.0770
     36 H10        -0.8432   -2.3659    0.9668 H         1 <0>         0.0736
     37 H11        -1.3843   -0.8410    0.2250 H         1 <0>         0.0756
     38 H12        -4.5767   -2.4227    1.2235 H         1 <0>         0.1009
     39 H13        -3.0700   -2.2666    2.1583 H         1 <0>         0.1048
     40 H14        -5.1353   -0.5562   -0.3549 H         1 <0>         0.1514
     41 H15        -3.0715    1.2373    1.9474 H         1 <0>         0.3983
     42 H16        -5.6240   -3.8730    0.8892 H         1 <0>         0.0827
     43 H17        -5.2447   -3.2053   -0.7280 H         1 <0>         0.0834
     44 H18        -7.1612   -5.0996   -0.4941 H         1 <0>         0.0945
     45 H19        -5.9890   -5.2055   -1.8503 H         1 <0>         0.0882
     46 H20        -5.9306   -6.6794    0.8435 H         1 <0>         0.0992
     47 H21        -5.6527   -7.3482   -0.7981 H         1 <0>         0.0893
     48 H22        -2.6386   -6.1911   -5.2244 H         1 <0>         0.1348
     49 H23        -1.0938   -7.8501   -6.1685 H         1 <0>         0.1383
     50 H24        -0.1018   -9.5835   -4.7324 H         1 <0>         0.1417
     51 H25        -0.6447   -9.6750   -2.3387 H         1 <0>         0.1357
@<TRIPOS>BOND
     1    1    2 1
     2    1   29 1
     3    1   30 1
     4    1   31 1
     5    2    3 1
     6    2   32 1
     7    2   33 1
     8    3    4 1
     9    3   34 1
    10    3   35 1
    11    4    5 1
    12    4   36 1
    13    4   37 1
    14    5    6 1
    15    5    7 1
    16    5   12 1
    17    7    8 1
    18    7   38 1
    19    7   39 1
    20    8    9 am
    21    8   11 1
    22    9   10 2
    23    9   40 1
    24   11   41 1
    25   12   13 2
    26   12   14 am
    27   14   18 1
    28   14   15 1
    29   15   16 1
    30   15   42 1
    31   15   43 1
    32   16   17 1
    33   16   44 1
    34   16   45 1
    35   17   18 1
    36   17   46 1
    37   17   47 1
    38   18   19 1
    39   18   20 1
    40   20   28 1
    41   20   21 2
    42   21   22 1
    43   22   27 ar
    44   22   23 ar
    45   23   24 ar
    46   23   48 1
    47   24   25 ar
    48   24   49 1
    49   25   26 ar
    50   25   50 1
    51   26   27 ar
    52   26   51 1
    53   27   28 1
@<TRIPOS>MOLECULE
CHEMBL465740
   54    56     0     0     0
SMALL
USER_CHARGES

@<TRIPOS>ATOM
      1 C1          3.9156    1.8214    2.0030 C.3       1 <0>        -0.1530
      2 C2          4.0317    0.2986    2.0953 C.3       1 <0>        -0.1242
      3 C3          2.6345   -0.3129    2.2174 C.3       1 <0>        -0.1161
      4 C4          2.7506   -1.8357    2.3097 C.3       1 <0>        -0.1236
      5 C5          1.3534   -2.4473    2.4317 C.3       1 <0>        -0.0966
      6 C6          1.4594   -3.9731    2.3933 C.3       1 <0>        -0.1243
      7 H1          2.0121   -4.2766    1.5042 H         1 <0>         0.1044
      8 C7          0.0559   -4.5810    2.3536 C.3       1 <0>         0.1370
      9 N1         -0.6114   -4.1881    1.1100 N.am      1 <0>        -0.4743
     10 C8         -0.2574   -4.7642   -0.0558 C.2       1 <0>         0.4789
     11 O1         -0.8099   -4.4390   -1.0853 O.2       1 <0>        -0.5457
     12 O2         -1.6284   -3.2031    1.1329 O.3       1 <0>        -0.3312
     13 C9          2.1821   -4.4576    3.6238 C.2       1 <0>         0.5422
     14 O3          2.5738   -3.6609    4.4501 O.2       1 <0>        -0.5099
     15 N2          2.3931   -5.7762    3.8059 N.am      1 <0>        -0.6066
     16 C10         1.9782   -6.8483    2.8830 C.3       1 <0>         0.0924
     17 C11         2.9418   -8.0238    3.1818 C.3       1 <0>        -0.1317
     18 C12         3.1065   -7.9082    4.7203 C.3       1 <0>        -0.1202
     19 C13         3.0808   -6.3832    4.9549 C.3       1 <0>         0.2303
     20 H2          2.5366   -6.1604    5.8727 H         1 <0>         0.1109
     21 C14         4.4883   -5.8527    5.0486 C.2       1 <0>         0.2439
     22 N3          5.3004   -5.7209    4.0433 N.2       1 <0>        -0.4617
     23 C15         6.4793   -5.2141    4.4956 C.ar      1 <0>         0.0216
     24 C16         7.6847   -4.8740    3.8793 C.ar      1 <0>        -0.0611
     25 C17         8.7195   -4.3700    4.6348 C.ar      1 <0>        -0.1197
     26 C18         8.5714   -4.1989    6.0035 C.ar      1 <0>        -0.0916
     27 C19         7.3864   -4.5310    6.6258 C.ar      1 <0>        -0.0932
     28 C20         6.3334   -5.0391    5.8801 C.ar      1 <0>         0.0121
     29 O4          5.0800   -5.4433    6.1818 O.3       1 <0>        -0.2084
     30 H3          3.4287    2.2037    2.9002 H         1 <0>         0.0534
     31 H4          4.9110    2.2570    1.9161 H         1 <0>         0.0529
     32 H5          3.3244    2.0882    1.1271 H         1 <0>         0.0531
     33 H6          4.5185   -0.0838    1.1982 H         1 <0>         0.0586
     34 H7          4.6229    0.0317    2.9713 H         1 <0>         0.0594
     35 H8          2.1477    0.0694    3.1146 H         1 <0>         0.0611
     36 H9          2.0433   -0.0461    1.3414 H         1 <0>         0.0585
     37 H10         3.2374   -2.2181    1.4125 H         1 <0>         0.0535
     38 H11         3.3418   -2.1026    3.1857 H         1 <0>         0.0770
     39 H12         0.9026   -2.1380    3.3747 H         1 <0>         0.0735
     40 H13         0.7334   -2.1051    1.6031 H         1 <0>         0.0755
     41 H14         0.1292   -5.6676    2.3991 H         1 <0>         0.1009
     42 H15        -0.5207   -4.2198    3.2052 H         1 <0>         0.1047
     43 H16         0.5182   -5.5155   -0.0733 H         1 <0>         0.1513
     44 H17        -2.0093   -3.0107    0.2652 H         1 <0>         0.3983
     45 H18         0.9477   -7.1426    3.0821 H         1 <0>         0.0827
     46 H19         2.0873   -6.5219    1.8488 H         1 <0>         0.0834
     47 H20         2.4913   -8.9777    2.9077 H         1 <0>         0.0944
     48 H21         3.8968   -7.8846    2.6751 H         1 <0>         0.0882
     49 H22         2.2780   -8.3952    5.2345 H         1 <0>         0.0992
     50 H23         4.0602   -8.3291    5.0387 H         1 <0>         0.0893
     51 H24         7.8053   -5.0060    2.8142 H         1 <0>         0.1348
     52 H25         9.6525   -4.1065    4.1590 H         1 <0>         0.1382
     53 H26         9.3902   -3.8030    6.5859 H         1 <0>         0.1417
     54 H27         7.2787   -4.3957    7.6918 H         1 <0>         0.1357
@<TRIPOS>BOND
     1    1    2 1
     2    1   30 1
     3    1   31 1
     4    1   32 1
     5    2    3 1
     6    2   33 1
     7    2   34 1
     8    3    4 1
     9    3   35 1
    10    3   36 1
    11    4    5 1
    12    4   37 1
    13    4   38 1
    14    5    6 1
    15    5   39 1
    16    5   40 1
    17    6    7 1
    18    6    8 1
    19    6   13 1
    20    8    9 1
    21    8   41 1
    22    8   42 1
    23    9   10 am
    24    9   12 1
    25   10   11 2
    26   10   43 1
    27   12   44 1
    28   13   14 2
    29   13   15 am
    30   15   19 1
    31   15   16 1
    32   16   17 1
    33   16   45 1
    34   16   46 1
    35   17   18 1
    36   17   47 1
    37   17   48 1
    38   18   19 1
    39   18   49 1
    40   18   50 1
    41   19   20 1
    42   19   21 1
    43   21   29 1
    44   21   22 2
    45   22   23 1
    46   23   28 ar
    47   23   24 ar
    48   24   25 ar
    49   24   51 1
    50   25   26 ar
    51   25   52 1
    52   26   27 ar
    53   26   53 1
    54   27   28 ar
    55   27   54 1
    56   28   29 1
@<TRIPOS>MOLECULE
CHEMBL480220
   48    50     0     0     0
SMALL
USER_CHARGES

@<TRIPOS>ATOM
      1 C1         -4.7047   -0.7556    1.5045 C.3       1 <0>        -0.1491
      2 C2         -3.1948   -0.9084    1.3102 C.3       1 <0>        -0.1229
      3 C3         -2.9240   -1.9178    0.1927 C.3       1 <0>        -0.1026
      4 C4         -1.4210   -1.9777   -0.0873 C.3       1 <0>        -0.1243
      5 H1         -1.0502   -0.9744   -0.2968 H         1 <0>         0.0973
      6 C5         -1.1629   -2.8796   -1.2959 C.3       1 <0>         0.1473
      7 N1         -1.7561   -2.2755   -2.4915 N.am      1 <0>        -0.4744
      8 C6         -1.1615   -1.2176   -3.0777 C.2       1 <0>         0.4790
      9 O1         -1.6525   -0.7175   -4.0675 O.2       1 <0>        -0.5466
     10 O2         -2.9542   -2.8031   -3.0312 O.3       1 <0>        -0.3305
     11 C7         -0.7075   -2.5355    1.1172 C.2       1 <0>         0.5441
     12 O3         -1.2370   -3.3923    1.7928 O.2       1 <0>        -0.5163
     13 N2          0.5191   -2.0823    1.4437 N.am      1 <0>        -0.6053
     14 C8          1.3163   -1.1207    0.6605 C.3       1 <0>         0.0951
     15 C9          2.2770   -0.4723    1.6882 C.3       1 <0>        -0.1320
     16 C10         2.6106   -1.6776    2.6065 C.3       1 <0>        -0.1198
     17 C11         1.2810   -2.4600    2.6430 C.3       1 <0>         0.2299
     18 H2          1.4829   -3.5311    2.6318 H         1 <0>         0.1109
     19 C12         0.5025   -2.0953    3.8807 C.2       1 <0>         0.2420
     20 N3         -0.1145   -0.9669    4.0641 N.2       1 <0>        -0.4603
     21 C13        -0.7082   -0.9856    5.2881 C.ar      1 <0>         0.0214
     22 C14        -1.4856   -0.0698    5.9991 C.ar      1 <0>        -0.0607
     23 C15        -1.9501   -0.3970    7.2532 C.ar      1 <0>        -0.1197
     24 C16        -1.6499   -1.6298    7.8139 C.ar      1 <0>        -0.0913
     25 C17        -0.8826   -2.5442    7.1232 C.ar      1 <0>        -0.0932
     26 C18        -0.4072   -2.2317    5.8586 C.ar      1 <0>         0.0118
     27 O4          0.3426   -2.8921    4.9490 O.3       1 <0>        -0.2083
     28 H3         -4.8976   -0.0364    2.3006 H         1 <0>         0.0537
     29 H4         -5.1563   -0.4015    0.5777 H         1 <0>         0.0540
     30 H5         -5.1359   -1.7198    1.7735 H         1 <0>         0.0541
     31 H6         -2.7636    0.0558    1.0411 H         1 <0>         0.0584
     32 H7         -2.7432   -1.2624    2.2369 H         1 <0>         0.0613
     33 H8         -3.2759   -2.9027    0.4996 H         1 <0>         0.0781
     34 H9         -3.4499   -1.6094   -0.7108 H         1 <0>         0.0784
     35 H10        -0.0887   -2.9937   -1.4413 H         1 <0>         0.0976
     36 H11        -1.6119   -3.8575   -1.1220 H         1 <0>         0.1074
     37 H12        -0.2477   -0.8152   -2.6661 H         1 <0>         0.1519
     38 H13        -3.2685   -2.3390   -3.8192 H         1 <0>         0.3981
     39 H14         1.8823   -1.6389   -0.1135 H         1 <0>         0.0815
     40 H15         0.6692   -0.3644    0.2164 H         1 <0>         0.0839
     41 H16         3.1745   -0.0936    1.1992 H         1 <0>         0.0939
     42 H17         1.7757    0.3178    2.2473 H         1 <0>         0.0874
     43 H18         3.4069   -2.2833    2.1738 H         1 <0>         0.0990
     44 H19         2.8828   -1.3375    3.6057 H         1 <0>         0.0890
     45 H20        -1.7215    0.8916    5.5673 H         1 <0>         0.1348
     46 H21        -2.5516    0.3108    7.8041 H         1 <0>         0.1383
     47 H22        -2.0195   -1.8752    8.7986 H         1 <0>         0.1418
     48 H23        -0.6524   -3.5018    7.5664 H         1 <0>         0.1358
@<TRIPOS>BOND
     1    1    2 1
     2    1   28 1
     3    1   29 1
     4    1   30 1
     5    2    3 1
     6    2   31 1
     7    2   32 1
     8    3    4 1
     9    3   33 1
    10    3   34 1
    11    4    5 1
    12    4    6 1
    13    4   11 1
    14    6    7 1
    15    6   35 1
    16    6   36 1
    17    7    8 am
    18    7   10 1
    19    8    9 2
    20    8   37 1
    21   10   38 1
    22   11   12 2
    23   11   13 am
    24   13   17 1
    25   13   14 1
    26   14   15 1
    27   14   39 1
    28   14   40 1
    29   15   16 1
    30   15   41 1
    31   15   42 1
    32   16   17 1
    33   16   43 1
    34   16   44 1
    35   17   18 1
    36   17   19 1
    37   19   27 1
    38   19   20 2
    39   20   21 1
    40   21   26 ar
    41   21   22 ar
    42   22   23 ar
    43   22   45 1
    44   23   24 ar
    45   23   46 1
    46   24   25 ar
    47   24   47 1
    48   25   26 ar
    49   25   48 1
    50   26   27 1
@<TRIPOS>MOLECULE
CHEMBL518077
   52    55     0     0     0
SMALL
USER_CHARGES

@<TRIPOS>ATOM
      1 C1          2.2423   -5.8200    1.0671 C.ar      1 <0>        -0.1177
      2 C2          1.4123   -4.8311    1.5612 C.ar      1 <0>        -0.1210
      3 C3          1.7130   -3.5006    1.3372 C.ar      1 <0>        -0.1160
      4 C4          2.8439   -3.1589    0.6195 C.ar      1 <0>        -0.0907
      5 C5          3.6744   -4.1477    0.1261 C.ar      1 <0>        -0.0948
      6 C6          3.3730   -5.4783    0.3489 C.ar      1 <0>        -0.1125
      7 C7          3.1711   -1.7084    0.3744 C.3       1 <0>        -0.0623
      8 C8          3.9521   -1.1532    1.5672 C.3       1 <0>        -0.1179
      9 H1          3.3914   -1.3336    2.4844 H         1 <0>         0.0993
     10 C9          4.1607    0.3514    1.3845 C.3       1 <0>         0.1464
     11 N1          2.8663    1.0349    1.4466 N.am      1 <0>        -0.4753
     12 C10         2.2578    1.2191    2.6349 C.2       1 <0>         0.4790
     13 O1          1.1863    1.7849    2.6862 O.2       1 <0>        -0.5452
     14 O2          2.2547    1.5020    0.2580 O.3       1 <0>        -0.3302
     15 C11         5.2912   -1.8391    1.6540 C.2       1 <0>         0.5457
     16 O3          5.8096   -2.2861    0.6529 O.2       1 <0>        -0.5134
     17 N2          5.9127   -1.9556    2.8442 N.am      1 <0>        -0.6035
     18 C12         5.3958   -1.4659    4.1351 C.3       1 <0>         0.0951
     19 C13         6.0972   -2.3433    5.2018 C.3       1 <0>        -0.1313
     20 C14         7.5100   -2.5151    4.5838 C.3       1 <0>        -0.1201
     21 C15         7.2156   -2.5979    3.0713 C.3       1 <0>         0.2310
     22 H2          7.9908   -2.0706    2.5153 H         1 <0>         0.1096
     23 C16         7.1592   -4.0395    2.6356 C.2       1 <0>         0.2410
     24 N3          6.1886   -4.8594    2.9063 N.2       1 <0>        -0.4530
     25 C17         6.4721   -6.0712    2.3563 C.ar      1 <0>         0.0278
     26 C18         5.8069   -7.2980    2.3261 C.ar      1 <0>        -0.0583
     27 C19         6.3732   -8.3657    1.6665 C.ar      1 <0>        -0.1217
     28 C20         7.5997   -8.2296    1.0330 C.ar      1 <0>        -0.0924
     29 C21         8.2684   -7.0237    1.0551 C.ar      1 <0>        -0.0941
     30 C22         7.7123   -5.9375    1.7139 C.ar      1 <0>         0.0110
     31 O4          8.1019   -4.6583    1.9075 O.3       1 <0>        -0.2098
     32 H3          2.0098   -6.8594    1.2459 H         1 <0>         0.1173
     33 H4          0.5287   -5.0981    2.1219 H         1 <0>         0.1190
     34 H5          1.0641   -2.7281    1.7226 H         1 <0>         0.1163
     35 H6          4.5578   -3.8807   -0.4349 H         1 <0>         0.1235
     36 H7          4.0217   -6.2508   -0.0368 H         1 <0>         0.1133
     37 H8          3.7753   -1.6197   -0.5285 H         1 <0>         0.0863
     38 H9          2.2473   -1.1434    0.2503 H         1 <0>         0.0873
     39 H10         4.8083    0.7273    2.1766 H         1 <0>         0.0990
     40 H11         4.6246    0.5390    0.4162 H         1 <0>         0.1079
     41 H12         2.7243    0.8628    3.5415 H         1 <0>         0.1516
     42 H13         1.4430    2.0065    0.4054 H         1 <0>         0.3985
     43 H14         5.6572   -0.4170    4.2751 H         1 <0>         0.0804
     44 H15         4.3151   -1.5984    4.1858 H         1 <0>         0.0829
     45 H16         6.1501   -1.8261    6.1598 H         1 <0>         0.0934
     46 H17         5.5968   -3.3060    5.3064 H         1 <0>         0.0873
     47 H18         8.1379   -1.6538    4.8116 H         1 <0>         0.0983
     48 H19         7.9750   -3.4364    4.9348 H         1 <0>         0.0886
     49 H20         4.8521   -7.4093    2.8184 H         1 <0>         0.1328
     50 H21         5.8593   -9.3153    1.6426 H         1 <0>         0.1368
     51 H22         8.0343   -9.0742    0.5190 H         1 <0>         0.1404
     52 H23         9.2233   -6.9254    0.5602 H         1 <0>         0.1343
@<TRIPOS>BOND
     1    1    6 ar
     2    1    2 ar
     3    1   32 1
     4    2    3 ar
     5    2   33 1
     6    3    4 ar
     7    3   34 1
     8    4    5 ar
     9    4    7 1
    10    5    6 ar
    11    5   35 1
    12    6   36 1
    13    7    8 1
    14    7   37 1
    15    7   38 1
    16    8    9 1
    17    8   10 1
    18    8   15 1
    19   10   11 1
    20   10   39 1
    21   10   40 1
    22   11   12 am
    23   11   14 1
    24   12   13 2
    25   12   41 1
    26   14   42 1
    27   15   16 2
    28   15   17 am
    29   17   21 1
    30   17   18 1
    31   18   19 1
    32   18   43 1
    33   18   44 1
    34   19   20 1
    35   19   45 1
    36   19   46 1
    37   20   21 1
    38   20   47 1
    39   20   48 1
    40   21   22 1
    41   21   23 1
    42   23   31 1
    43   23   24 2
    44   24   25 1
    45   25   30 ar
    46   25   26 ar
    47   26   27 ar
    48   26   49 1
    49   27   28 ar
    50   27   50 1
    51   28   29 ar
    52   28   51 1
    53   29   30 ar
    54   29   52 1
    55   30   31 1
@<TRIPOS>MOLECULE
CHEMBL463859
   49    52     0     0     0
SMALL
USER_CHARGES

@<TRIPOS>ATOM
      1 C1          0.1979    1.8729   -0.1397 C.ar      1 <0>        -0.1199
      2 C2          1.4430    2.4841   -0.1223 C.ar      1 <0>        -0.0909
      3 C3          2.5944    1.7253   -0.1056 C.ar      1 <0>        -0.0952
      4 C4          2.5096    0.3412   -0.1056 C.ar      1 <0>         0.0112
      5 C5          1.2520   -0.2809   -0.1227 C.ar      1 <0>         0.0230
      6 C6          0.0951    0.4999   -0.1400 C.ar      1 <0>        -0.0592
      7 N1          1.4835   -1.6216   -0.1183 N.2       1 <0>        -0.4636
      8 C7          2.7664   -1.8249   -0.1002 C.2       1 <0>         0.2444
      9 O1          3.4231   -0.6543   -0.0920 O.3       1 <0>        -0.2068
     10 C8          3.4235   -3.1811   -0.0899 C.3       1 <0>         0.2308
     11 H1          2.6947   -3.9479   -0.3527 H         1 <0>         0.1257
     12 C9          4.0085   -3.4703    1.3085 C.3       1 <0>        -0.1260
     13 C10         5.3403   -4.1973    0.9846 C.3       1 <0>        -0.1299
     14 C11         5.7898   -3.4636   -0.3036 C.3       1 <0>         0.0931
     15 N2          4.5396   -3.2032   -1.0466 N.am      1 <0>        -0.6185
     16 C12         4.4372   -3.0170   -2.3775 C.2       1 <0>         0.5421
     17 O2          3.3447   -2.9007   -2.8913 O.2       1 <0>        -0.5055
     18 C13         5.6801   -2.9533   -3.2273 C.3       1 <0>        -0.1206
     19 H2          6.5232   -2.6342   -2.6146 H         1 <0>         0.0964
     20 C14         5.4691   -1.9526   -4.3653 C.3       1 <0>        -0.0715
     21 C15         5.3173   -0.5450   -3.7851 C.3       1 <0>        -0.1574
     22 C16         3.9810    0.1679   -4.0016 C.3       1 <0>        -0.1662
     23 C17         5.2229    0.6197   -4.7727 C.3       1 <0>        -0.1768
     24 C18         5.9695   -4.3372   -3.8122 C.3       1 <0>         0.1461
     25 N3          7.2407   -4.3038   -4.5396 N.am      1 <0>        -0.4749
     26 C19         8.4050   -4.2805   -3.8610 C.2       1 <0>         0.4791
     27 O3          9.4574   -4.2529   -4.4632 O.2       1 <0>        -0.5456
     28 O4          7.2462   -4.2959   -5.9556 O.3       1 <0>        -0.3303
     29 H3         -0.6967    2.4779   -0.1485 H         1 <0>         0.1388
     30 H4          1.5112    3.5619   -0.1223 H         1 <0>         0.1413
     31 H5          3.5604    2.2081   -0.0928 H         1 <0>         0.1334
     32 H6         -0.8767    0.0289   -0.1540 H         1 <0>         0.1367
     33 H7          4.1972   -2.5416    1.8472 H         1 <0>         0.0850
     34 H8          3.3434   -4.1194    1.8781 H         1 <0>         0.1006
     35 H9          6.0659   -4.0593    1.7862 H         1 <0>         0.0960
     36 H10         5.1703   -5.2566    0.7918 H         1 <0>         0.0872
     37 H11         6.2857   -2.5259   -0.0527 H         1 <0>         0.0781
     38 H12         6.4529   -4.0992   -0.8905 H         1 <0>         0.0840
     39 H13         6.3281   -1.9785   -5.0358 H         1 <0>         0.0824
     40 H14         4.5680   -2.2166   -4.9189 H         1 <0>         0.0810
     41 H15         5.8370   -0.3660   -2.8438 H         1 <0>         0.0975
     42 H16         3.2100   -0.3658   -4.5574 H         1 <0>         0.0951
     43 H17         3.6212    0.8162   -3.2026 H         1 <0>         0.0854
     44 H18         5.6801    1.5652   -4.4809 H         1 <0>         0.0927
     45 H19         5.2689    0.3833   -5.8357 H         1 <0>         0.0947
     46 H20         6.0319   -5.0670   -3.0050 H         1 <0>         0.0984
     47 H21         5.1676   -4.6181   -4.4949 H         1 <0>         0.1085
     48 H22         8.4008   -4.2865   -2.7811 H         1 <0>         0.1514
     49 H23         8.1309   -4.2733   -6.3453 H         1 <0>         0.3985
@<TRIPOS>BOND
     1    1    6 ar
     2    1    2 ar
     3    1   29 1
     4    2    3 ar
     5    2   30 1
     6    3    4 ar
     7    3   31 1
     8    4    9 1
     9    4    5 ar
    10    5    6 ar
    11    5    7 1
    12    6   32 1
    13    7    8 2
    14    8    9 1
    15    8   10 1
    16   10   11 1
    17   10   15 1
    18   10   12 1
    19   12   13 1
    20   12   33 1
    21   12   34 1
    22   13   14 1
    23   13   35 1
    24   13   36 1
    25   14   15 1
    26   14   37 1
    27   14   38 1
    28   15   16 am
    29   16   17 2
    30   16   18 1
    31   18   19 1
    32   18   20 1
    33   18   24 1
    34   20   21 1
    35   20   39 1
    36   20   40 1
    37   21   23 1
    38   21   22 1
    39   21   41 1
    40   22   23 1
    41   22   42 1
    42   22   43 1
    43   23   44 1
    44   23   45 1
    45   24   25 1
    46   24   46 1
    47   24   47 1
    48   25   26 am
    49   25   28 1
    50   26   27 2
    51   26   48 1
    52   28   49 1
@<TRIPOS>MOLECULE
CHEMBL417683
   42    44     0     0     0
SMALL
USER_CHARGES

@<TRIPOS>ATOM
      1 C1         -0.0225    1.3792    0.0080 C.ar      1 <0>        -0.0809
      2 C2          1.1591    2.0979    0.0008 C.ar      1 <0>        -0.1242
      3 C3          2.3707    1.4314   -0.0086 C.ar      1 <0>        -0.0555
      4 C4          2.3964    0.0466   -0.0140 C.ar      1 <0>        -0.1409
      5 C5          1.2095   -0.6854   -0.0144 C.ar      1 <0>         0.1645
      6 C6         -0.0022   -0.0013    0.0012 C.ar      1 <0>        -0.1363
      7 N1          1.2030   -2.0768   -0.0429 N.am      1 <0>        -0.5223
      8 C7          2.2196   -2.8684   -0.3683 C.2       1 <0>         0.5357
      9 O1          2.0832   -4.0663   -0.2356 O.2       1 <0>        -0.5018
     10 C8          3.5331   -2.3509   -0.8946 C.3       1 <0>        -0.0789
     11 S1          3.9398   -0.8116   -0.0151 S.3       1 <0>        -0.0410
     12 C9          3.4116   -2.0701   -2.3937 C.3       1 <0>        -0.1176
     13 C10         4.7578   -1.6704   -2.9405 C.2       1 <0>         0.5328
     14 O2          5.7197   -1.6156   -2.2038 O.2       1 <0>        -0.5006
     15 N2          4.8929   -1.3738   -4.2483 N.am      1 <0>        -0.5956
     16 O3          6.1578   -0.9983   -4.7622 O.3       1 <0>        -0.3138
     17 C11        -0.0527   -2.7362    0.3239 C.3       1 <0>         0.0726
     18 C12        -0.8959   -2.9325   -0.9096 C.2       1 <0>         0.4903
     19 O4         -0.4881   -2.5585   -1.9888 O.2       1 <0>        -0.4540
     20 N3         -2.1032   -3.5238   -0.8135 N.am      1 <0>        -0.6600
     21 C13        -2.9281   -3.6104   -1.9339 C.ar      1 <0>         0.3580
     22 C14        -4.2131   -4.1256   -1.8051 C.ar      1 <0>        -0.2051
     23 C15        -5.0213   -4.2059   -2.9252 C.ar      1 <0>        -0.0470
     24 C16        -4.5143   -3.7665   -4.1407 C.ar      1 <0>        -0.2021
     25 C17        -3.2287   -3.2661   -4.1956 C.ar      1 <0>         0.1314
     26 N4         -2.4828   -3.1966   -3.1096 N.ar      1 <0>        -0.4777
     27 H1         -0.9676    1.9015    0.0235 H         1 <0>         0.1324
     28 H2          1.1356    3.1776    0.0022 H         1 <0>         0.1349
     29 H3          3.2952    1.9897   -0.0114 H         1 <0>         0.1387
     30 H4         -0.9309   -0.5527    0.0084 H         1 <0>         0.1248
     31 H5          4.3147   -3.0902   -0.7195 H         1 <0>         0.1624
     32 H6          3.0639   -2.9680   -2.9046 H         1 <0>         0.1177
     33 H7          2.6991   -1.2612   -2.5552 H         1 <0>         0.1094
     34 H8          4.1236   -1.4177   -4.8375 H         1 <0>         0.4092
     35 H9          6.1557   -0.8048   -5.7096 H         1 <0>         0.3889
     36 H10         0.1637   -3.7050    0.7741 H         1 <0>         0.1345
     37 H11        -0.5935   -2.1160    1.0387 H         1 <0>         0.1246
     38 H12        -2.3982   -3.8891    0.0353 H         1 <0>         0.4196
     39 H13        -4.5753   -4.4588   -0.8438 H         1 <0>         0.1372
     40 H14        -6.0237   -4.6019   -2.8556 H         1 <0>         0.1395
     41 H15        -5.1192   -3.8158   -5.0340 H         1 <0>         0.1371
     42 H16        -2.8299   -2.9233   -5.1390 H         1 <0>         0.1591
@<TRIPOS>BOND
     1    1    6 ar
     2    1    2 ar
     3    1   27 1
     4    2    3 ar
     5    2   28 1
     6    3    4 ar
     7    3   29 1
     8    4   11 1
     9    4    5 ar
    10    5    6 ar
    11    5    7 1
    12    6   30 1
    13    7    8 am
    14    7   17 1
    15    8    9 2
    16    8   10 1
    17   10   11 1
    18   10   12 1
    19   10   31 1
    20   12   13 1
    21   12   32 1
    22   12   33 1
    23   13   14 2
    24   13   15 am
    25   15   16 1
    26   15   34 1
    27   16   35 1
    28   17   18 1
    29   17   36 1
    30   17   37 1
    31   18   19 2
    32   18   20 am
    33   20   21 1
    34   20   38 1
    35   21   26 ar
    36   21   22 ar
    37   22   23 ar
    38   22   39 1
    39   23   24 ar
    40   23   40 1
    41   24   25 ar
    42   24   41 1
    43   25   26 ar
    44   25   42 1
@<TRIPOS>MOLECULE
CHEMBL417683__1
   42    44     0     0     0
SMALL
USER_CHARGES

@<TRIPOS>ATOM
      1 C1         -0.0071    1.3739    0.0462 C.ar      1 <0>        -0.0804
      2 C2          1.1766    2.0890    0.0403 C.ar      1 <0>        -0.1245
      3 C3          2.3860    1.4191    0.0098 C.ar      1 <0>        -0.0551
      4 C4          2.4074    0.0344   -0.0116 C.ar      1 <0>        -0.1410
      5 C5          1.2184   -0.6942    0.0017 C.ar      1 <0>         0.1639
      6 C6          0.0088   -0.0065    0.0264 C.ar      1 <0>        -0.1387
      7 N1          1.2081   -2.0858    0.0040 N.am      1 <0>        -0.5226
      8 C7          2.2292   -2.8863    0.2915 C.2       1 <0>         0.5363
      9 O1          2.0863   -4.0810    0.1385 O.2       1 <0>        -0.5012
     10 C8          3.5558   -2.3826    0.7976 C.3       1 <0>        -0.0787
     11 S1          3.9476   -0.8280   -0.0615 S.3       1 <0>        -0.0412
     12 C9          3.4691   -2.1298    2.3041 C.3       1 <0>        -0.1171
     13 C10         4.8285   -1.7443    2.8279 C.2       1 <0>         0.5328
     14 O2          5.7737   -1.6782    2.0709 O.2       1 <0>        -0.5007
     15 N2          4.9939   -1.4730    4.1377 N.am      1 <0>        -0.5956
     16 O3          6.2712   -1.1108    4.6299 O.3       1 <0>        -0.3139
     17 C11        -0.0576   -2.7346   -0.3467 C.3       1 <0>         0.0736
     18 C12        -0.8217   -3.0582    0.9113 C.2       1 <0>         0.4926
     19 O4         -0.3550   -2.7747    1.9941 O.2       1 <0>        -0.4557
     20 N3         -2.0238   -3.6626    0.8329 N.am      1 <0>        -0.6603
     21 C13        -2.7794   -3.8637    1.9871 C.ar      1 <0>         0.3587
     22 C14        -3.9670   -4.5833    1.9162 C.ar      1 <0>        -0.2051
     23 C15        -4.7072   -4.7756    3.0692 C.ar      1 <0>        -0.0469
     24 C16        -4.2321   -4.2392    4.2584 C.ar      1 <0>        -0.2021
     25 C17        -3.0443   -3.5353    4.2555 C.ar      1 <0>         0.1316
     26 N4         -2.3570   -3.3726    3.1412 N.ar      1 <0>        -0.4787
     27 H1         -0.9506    1.8989    0.0709 H         1 <0>         0.1328
     28 H2          1.1566    3.1687    0.0592 H         1 <0>         0.1349
     29 H3          3.3121    1.9747    0.0023 H         1 <0>         0.1387
     30 H4         -0.9215   -0.5551    0.0304 H         1 <0>         0.1263
     31 H5          4.3309   -3.1206    0.5910 H         1 <0>         0.1621
     32 H6          2.7629   -1.3222    2.4970 H         1 <0>         0.1091
     33 H7          3.1301   -3.0363    2.8057 H         1 <0>         0.1178
     34 H8          4.2379   -1.5259    4.7432 H         1 <0>         0.4092
     35 H9          6.2911   -0.9353    5.5806 H         1 <0>         0.3888
     36 H10        -0.6497   -2.0636   -0.9690 H         1 <0>         0.1261
     37 H11         0.1453   -3.6544   -0.8953 H         1 <0>         0.1317
     38 H12        -2.3633   -3.9576   -0.0265 H         1 <0>         0.4195
     39 H13        -4.3072   -4.9865    0.9738 H         1 <0>         0.1372
     40 H14        -5.6337   -5.3300    3.0447 H         1 <0>         0.1396
     41 H15        -4.7860   -4.3709    5.1761 H         1 <0>         0.1371
     42 H16        -2.6710   -3.1159    5.1781 H         1 <0>         0.1591
@<TRIPOS>BOND
     1    1    6 ar
     2    1    2 ar
     3    1   27 1
     4    2    3 ar
     5    2   28 1
     6    3    4 ar
     7    3   29 1
     8    4   11 1
     9    4    5 ar
    10    5    6 ar
    11    5    7 1
    12    6   30 1
    13    7    8 am
    14    7   17 1
    15    8    9 2
    16    8   10 1
    17   10   11 1
    18   10   12 1
    19   10   31 1
    20   12   13 1
    21   12   32 1
    22   12   33 1
    23   13   14 2
    24   13   15 am
    25   15   16 1
    26   15   34 1
    27   16   35 1
    28   17   18 1
    29   17   36 1
    30   17   37 1
    31   18   19 2
    32   18   20 am
    33   20   21 1
    34   20   38 1
    35   21   26 ar
    36   21   22 ar
    37   22   23 ar
    38   22   39 1
    39   23   24 ar
    40   23   40 1
    41   24   25 ar
    42   24   41 1
    43   25   26 ar
    44   25   42 1
@<TRIPOS>MOLECULE
CHEMBL34426
   43    44     0     0     0
SMALL
USER_CHARGES

@<TRIPOS>ATOM
      1 C1         -0.0187    1.5258    0.0104 C.3       1 <0>        -0.1516
      2 C2          0.0021   -0.0041    0.0020 C.3       1 <0>        -0.0922
      3 C3          0.7182   -0.4975   -1.2568 C.3       1 <0>        -0.1471
      4 C4          0.7421   -0.5109    1.2415 C.3       1 <0>        -0.1307
      5 C5         -0.0416   -0.1236    2.4973 C.3       1 <0>         0.1016
      6 N1          0.6670   -0.6089    3.6841 N.am      1 <0>        -0.5547
      7 C6          0.3909   -1.8862    4.1798 C.ar      1 <0>         0.1693
      8 C7         -0.3218   -2.7922    3.4041 C.ar      1 <0>        -0.1579
      9 C8         -0.5816   -4.0590    3.8882 C.ar      1 <0>        -0.0865
     10 C9         -0.1323   -4.4270    5.1434 C.ar      1 <0>        -0.1447
     11 C10         0.5728   -3.5260    5.9198 C.ar      1 <0>        -0.0805
     12 C11         0.8290   -2.2548    5.4436 C.ar      1 <0>        -0.1312
     13 C12         1.5673   -1.2631    6.3057 C.3       1 <0>        -0.0740
     14 C13         2.4110   -0.3425    5.4236 C.3       1 <0>        -0.0879
     15 C14         1.5795    0.1769    4.2812 C.2       1 <0>         0.5155
     16 O1          1.7321    1.3176    3.8983 O.2       1 <0>        -0.4799
     17 C15         3.6017   -1.1243    4.8651 C.3       1 <0>        -0.1184
     18 C16         4.5002   -0.1899    4.0966 C.2       1 <0>         0.5082
     19 O2          4.2161    0.9856    4.0046 O.2       1 <0>        -0.4865
     20 N2          5.6194   -0.6605    3.5115 N.am      1 <0>        -0.6003
     21 O3          6.4636    0.2175    2.7893 O.3       1 <0>        -0.3170
     22 H1          1.0039    1.9031    0.0027 H         1 <0>         0.0567
     23 H2         -0.5459    1.8868   -0.8726 H         1 <0>         0.0555
     24 H3         -0.5289    1.8773    0.9072 H         1 <0>         0.0566
     25 H4         -1.0205   -0.3814    0.0098 H         1 <0>         0.0714
     26 H5          1.7408   -0.1202   -1.2645 H         1 <0>         0.0543
     27 H6          0.7330   -1.5874   -1.2628 H         1 <0>         0.0537
     28 H7          0.1910   -0.1364   -2.1398 H         1 <0>         0.0571
     29 H8          0.8346   -1.5958    1.1912 H         1 <0>         0.0659
     30 H9          1.7350   -0.0630    1.2804 H         1 <0>         0.0676
     31 H10        -0.1341    0.9613    2.5476 H         1 <0>         0.0964
     32 H11        -1.0345   -0.5716    2.4584 H         1 <0>         0.0837
     33 H12        -0.6726   -2.5058    2.4236 H         1 <0>         0.1292
     34 H13        -1.1366   -4.7632    3.2862 H         1 <0>         0.1268
     35 H14        -0.3323   -5.4202    5.5177 H         1 <0>         0.1252
     36 H15         0.9232   -3.8162    6.8993 H         1 <0>         0.1292
     37 H16         0.8493   -0.6674    6.8695 H         1 <0>         0.0899
     38 H17         2.2173   -1.7978    6.9982 H         1 <0>         0.0948
     39 H18         2.7756    0.4950    6.0184 H         1 <0>         0.1225
     40 H19         4.1605   -1.5714    5.6872 H         1 <0>         0.1155
     41 H20         3.2413   -1.9099    4.2011 H         1 <0>         0.1016
     42 H21         5.8466   -1.6006    3.5851 H         1 <0>         0.4062
     43 H22         7.2411   -0.2111    2.4060 H         1 <0>         0.3868
@<TRIPOS>BOND
     1    1    2 1
     2    1   22 1
     3    1   23 1
     4    1   24 1
     5    2    3 1
     6    2    4 1
     7    2   25 1
     8    3   26 1
     9    3   27 1
    10    3   28 1
    11    4    5 1
    12    4   29 1
    13    4   30 1
    14    5    6 1
    15    5   31 1
    16    5   32 1
    17    6   15 am
    18    6    7 1
    19    7   12 ar
    20    7    8 ar
    21    8    9 ar
    22    8   33 1
    23    9   10 ar
    24    9   34 1
    25   10   11 ar
    26   10   35 1
    27   11   12 ar
    28   11   36 1
    29   12   13 1
    30   13   14 1
    31   13   37 1
    32   13   38 1
    33   14   15 1
    34   14   17 1
    35   14   39 1
    36   15   16 2
    37   17   18 1
    38   17   40 1
    39   17   41 1
    40   18   19 2
    41   18   20 am
    42   20   21 1
    43   20   42 1
    44   21   43 1
@<TRIPOS>MOLECULE
CHEMBL34426__1
   43    44     0     0     0
SMALL
USER_CHARGES

@<TRIPOS>ATOM
      1 C1         -0.0187    1.5258    0.0104 C.3       1 <0>        -0.1508
      2 C2          0.0021   -0.0041    0.0020 C.3       1 <0>        -0.0919
      3 C3          0.7182   -0.4975   -1.2568 C.3       1 <0>        -0.1475
      4 C4          0.7421   -0.5109    1.2415 C.3       1 <0>        -0.1325
      5 C5         -0.0416   -0.1236    2.4973 C.3       1 <0>         0.1034
      6 N1          0.6670   -0.6089    3.6841 N.am      1 <0>        -0.5529
      7 C6          0.3909   -1.8862    4.1798 C.ar      1 <0>         0.1698
      8 C7         -0.3218   -2.7922    3.4041 C.ar      1 <0>        -0.1570
      9 C8         -0.5816   -4.0590    3.8882 C.ar      1 <0>        -0.0862
     10 C9         -0.1323   -4.4270    5.1434 C.ar      1 <0>        -0.1447
     11 C10         0.5720   -3.5257    5.9201 C.ar      1 <0>        -0.0799
     12 C11         0.8290   -2.2548    5.4436 C.ar      1 <0>        -0.1301
     13 C12         1.5673   -1.2631    6.3057 C.3       1 <0>        -0.0710
     14 C13         2.4110   -0.3425    5.4236 C.3       1 <0>        -0.0908
     15 C14         1.5795    0.1769    4.2812 C.2       1 <0>         0.5221
     16 O1          1.7321    1.3176    3.8983 O.2       1 <0>        -0.4941
     17 C15         2.9228    0.8330    6.2586 C.3       1 <0>        -0.1108
     18 C16         3.8535    1.6745    5.4239 C.2       1 <0>         0.5290
     19 O2          4.0847    1.3645    4.2743 O.2       1 <0>        -0.4998
     20 N2          4.4289    2.7715    5.9548 N.am      1 <0>        -0.6017
     21 O3          5.3034    3.5622    5.1705 O.3       1 <0>        -0.3183
     22 H1          1.0039    1.9031    0.0027 H         1 <0>         0.0569
     23 H2         -0.5459    1.8868   -0.8726 H         1 <0>         0.0550
     24 H3         -0.5289    1.8773    0.9072 H         1 <0>         0.0554
     25 H4         -1.0205   -0.3814    0.0098 H         1 <0>         0.0706
     26 H5          1.7408   -0.1202   -1.2645 H         1 <0>         0.0553
     27 H6          0.7330   -1.5874   -1.2628 H         1 <0>         0.0541
     28 H7          0.1910   -0.1364   -2.1398 H         1 <0>         0.0565
     29 H8          0.8346   -1.5958    1.1912 H         1 <0>         0.0666
     30 H9          1.7350   -0.0630    1.2804 H         1 <0>         0.0708
     31 H10        -0.1341    0.9613    2.5476 H         1 <0>         0.0958
     32 H11        -1.0345   -0.5716    2.4584 H         1 <0>         0.0829
     33 H12        -0.6726   -2.5058    2.4236 H         1 <0>         0.1296
     34 H13        -1.1366   -4.7632    3.2862 H         1 <0>         0.1274
     35 H14        -0.3323   -5.4202    5.5177 H         1 <0>         0.1257
     36 H15         0.9218   -3.8157    6.8999 H         1 <0>         0.1293
     37 H16         0.8493   -0.6674    6.8695 H         1 <0>         0.0855
     38 H17         2.2173   -1.7978    6.9982 H         1 <0>         0.0943
     39 H18         3.2593   -0.8994    5.0258 H         1 <0>         0.1172
     40 H19         2.0791    1.4405    6.5862 H         1 <0>         0.1042
     41 H20         3.4578    0.4544    7.1294 H         1 <0>         0.1115
     42 H21         4.2440    3.0195    6.8741 H         1 <0>         0.4054
     43 H22         5.6669    4.3273    5.6369 H         1 <0>         0.3855
@<TRIPOS>BOND
     1    1    2 1
     2    1   22 1
     3    1   23 1
     4    1   24 1
     5    2    3 1
     6    2    4 1
     7    2   25 1
     8    3   26 1
     9    3   27 1
    10    3   28 1
    11    4    5 1
    12    4   29 1
    13    4   30 1
    14    5    6 1
    15    5   31 1
    16    5   32 1
    17    6   15 am
    18    6    7 1
    19    7   12 ar
    20    7    8 ar
    21    8    9 ar
    22    8   33 1
    23    9   10 ar
    24    9   34 1
    25   10   11 ar
    26   10   35 1
    27   11   12 ar
    28   11   36 1
    29   12   13 1
    30   13   14 1
    31   13   37 1
    32   13   38 1
    33   14   15 1
    34   14   17 1
    35   14   39 1
    36   15   16 2
    37   17   18 1
    38   17   40 1
    39   17   41 1
    40   18   19 2
    41   18   20 am
    42   20   21 1
    43   20   42 1
    44   21   43 1
@<TRIPOS>MOLECULE
CHEMBL329677
   70    70     0     0     0
SMALL
USER_CHARGES

@<TRIPOS>ATOM
      1 C1          1.3210   -3.0740    2.9466 C.3       1 <0>        -0.1526
      2 C2          0.8432   -2.3930    1.6625 C.3       1 <0>        -0.1216
      3 C3          1.6211   -2.9512    0.4692 C.3       1 <0>        -0.1246
      4 C4          1.1432   -2.2702   -0.8148 C.3       1 <0>        -0.0962
      5 C5          2.0080   -2.7321   -1.9894 C.3       1 <0>        -0.1309
      6 H1          3.0593   -2.5668   -1.7537 H         1 <0>         0.1037
      7 C6          1.6348   -1.9361   -3.2416 C.3       1 <0>         0.1431
      8 N1          1.9718   -0.5245   -3.0413 N.am      1 <0>        -0.4748
      9 C7          3.2560   -0.1217   -3.1122 C.2       1 <0>         0.4789
     10 O1          3.5350    1.0469   -2.9464 O.2       1 <0>        -0.5465
     11 O2          0.9484    0.4166   -2.7734 O.3       1 <0>        -0.3314
     12 C8          1.7740   -4.1998   -2.2389 C.2       1 <0>         0.5258
     13 O3          0.9924   -4.8157   -1.5455 O.2       1 <0>        -0.5130
     14 N2          2.4332   -4.8280   -3.2325 N.am      1 <0>        -0.7147
     15 C9          2.2056   -6.2547   -3.4750 C.3       1 <0>         0.1351
     16 H2          2.0345   -6.7619   -2.5255 H         1 <0>         0.1118
     17 C10         3.4147   -6.8485   -4.1509 C.2       1 <0>         0.5218
     18 O4          4.1053   -6.1602   -4.8721 O.2       1 <0>        -0.5302
     19 N3          3.7284   -8.1443   -3.9538 N.am      1 <0>        -0.6087
     20 C11         2.8410   -9.0194   -3.1757 C.3       1 <0>         0.0968
     21 C12         3.6566   -9.6845   -2.0625 C.3       1 <0>        -0.1240
     22 C13         4.8631  -10.3984   -2.6764 C.3       1 <0>        -0.0790
     23 C14         5.7559   -9.3773   -3.3852 C.3       1 <0>        -0.1262
     24 C15         4.9613   -8.7102   -4.5181 C.3       1 <0>         0.1132
     25 C16         5.6491  -11.0825   -1.5877 C.2       1 <0>         0.4642
     26 O5          5.2822  -11.0068   -0.4390 O.2       1 <0>        -0.5021
     27 O6          6.7568  -11.7759   -1.8941 O.3       1 <0>        -0.3515
     28 C17         7.4524  -12.3986   -0.8123 C.3       1 <0>         0.0593
     29 C18         8.6789  -13.1369   -1.3522 C.3       1 <0>        -0.1529
     30 C19         0.9808   -6.4301   -4.3749 C.3       1 <0>        -0.0713
     31 C20         1.2425   -5.7653   -5.7278 C.3       1 <0>        -0.1435
     32 C21         0.7104   -7.9215   -4.5833 C.3       1 <0>        -0.1583
     33 C22        -0.2355   -5.7788   -3.7135 C.3       1 <0>        -0.1322
     34 H3          1.1516   -4.1482    2.8728 H         1 <0>         0.0539
     35 H4          2.3852   -2.8827    3.0849 H         1 <0>         0.0514
     36 H5          0.7668   -2.6763    3.7967 H         1 <0>         0.0527
     37 H6         -0.2210   -2.5843    1.5242 H         1 <0>         0.0613
     38 H7          1.0126   -1.3187    1.7363 H         1 <0>         0.0571
     39 H8          2.6852   -2.7599    0.6076 H         1 <0>         0.0528
     40 H9          1.4516   -4.0255    0.3954 H         1 <0>         0.0805
     41 H10         0.1032   -2.5372   -1.0023 H         1 <0>         0.0742
     42 H11         1.2267   -1.1889   -0.7053 H         1 <0>         0.0738
     43 H12         2.1880   -2.3239   -4.0969 H         1 <0>         0.0962
     44 H13         0.5650   -2.0314   -3.4273 H         1 <0>         0.1049
     45 H14         4.0366   -0.8395   -3.3166 H         1 <0>         0.1531
     46 H15         1.2674    1.3219   -2.6560 H         1 <0>         0.3982
     47 H16         3.0582   -4.3354   -3.7871 H         1 <0>         0.4082
     48 H17         2.0377   -8.4279   -2.7366 H         1 <0>         0.1015
     49 H18         2.4197   -9.7850   -3.8273 H         1 <0>         0.0834
     50 H19         4.0016   -8.9250   -1.3609 H         1 <0>         0.0795
     51 H20         3.0334  -10.4088   -1.5380 H         1 <0>         0.0908
     52 H21         4.5181  -11.1408   -3.3962 H         1 <0>         0.1141
     53 H22         6.0811   -8.6208   -2.6711 H         1 <0>         0.0745
     54 H23         6.6268   -9.8830   -3.8021 H         1 <0>         0.0935
     55 H24         4.7094   -9.4511   -5.2769 H         1 <0>         0.0770
     56 H25         5.5574   -7.9145   -4.9650 H         1 <0>         0.1017
     57 H26         7.7708  -11.6382   -0.0993 H         1 <0>         0.0677
     58 H27         6.7908  -13.1082   -0.3155 H         1 <0>         0.0682
     59 H28         9.2095  -13.6119   -0.5270 H         1 <0>         0.0807
     60 H29         8.3606  -13.8974   -2.0653 H         1 <0>         0.0674
     61 H30         9.3406  -12.4273   -1.8491 H         1 <0>         0.0672
     62 H31         2.1090   -6.2293   -6.1991 H         1 <0>         0.0600
     63 H32         0.3699   -5.8902   -6.3690 H         1 <0>         0.0595
     64 H33         1.4352   -4.7028   -5.5794 H         1 <0>         0.0571
     65 H34         0.4530   -8.3810   -3.6290 H         1 <0>         0.0648
     66 H35        -0.1171   -8.0466   -5.2817 H         1 <0>         0.0666
     67 H36         1.6026   -8.3995   -4.9878 H         1 <0>         0.0626
     68 H37        -0.0429   -4.7163   -3.5650 H         1 <0>         0.0543
     69 H38        -1.1081   -5.9038   -4.3546 H         1 <0>         0.0542
     70 H39        -0.4220   -6.2525   -2.7496 H         1 <0>         0.0680
@<TRIPOS>BOND
     1    1    2 1
     2    1   34 1
     3    1   35 1
     4    1   36 1
     5    2    3 1
     6    2   37 1
     7    2   38 1
     8    3    4 1
     9    3   39 1
    10    3   40 1
    11    4    5 1
    12    4   41 1
    13    4   42 1
    14    5    6 1
    15    5    7 1
    16    5   12 1
    17    7    8 1
    18    7   43 1
    19    7   44 1
    20    8    9 am
    21    8   11 1
    22    9   10 2
    23    9   45 1
    24   11   46 1
    25   12   13 2
    26   12   14 am
    27   14   15 1
    28   14   47 1
    29   15   16 1
    30   15   17 1
    31   15   30 1
    32   17   18 2
    33   17   19 am
    34   19   24 1
    35   19   20 1
    36   20   21 1
    37   20   48 1
    38   20   49 1
    39   21   22 1
    40   21   50 1
    41   21   51 1
    42   22   23 1
    43   22   25 1
    44   22   52 1
    45   23   24 1
    46   23   53 1
    47   23   54 1
    48   24   55 1
    49   24   56 1
    50   25   26 2
    51   25   27 1
    52   27   28 1
    53   28   29 1
    54   28   57 1
    55   28   58 1
    56   29   59 1
    57   29   60 1
    58   29   61 1
    59   30   31 1
    60   30   32 1
    61   30   33 1
    62   31   62 1
    63   31   63 1
    64   31   64 1
    65   32   65 1
    66   32   66 1
    67   32   67 1
    68   33   68 1
    69   33   69 1
    70   33   70 1
@<TRIPOS>MOLECULE
CHEMBL51705
   28    29     0     0     0
SMALL
USER_CHARGES

@<TRIPOS>ATOM
      1 C1         -0.0167    1.3784    0.0096 C.ar      1 <0>        -0.0762
      2 C2          1.1726    2.0747    0.0020 C.ar      1 <0>        -0.1340
      3 C3          2.3926    1.3964   -0.0079 C.ar      1 <0>         0.2002
      4 C4          2.4147    0.0155    0.0004 C.ar      1 <0>        -0.1280
      5 C5          1.2057   -0.6773   -0.0037 C.ar      1 <0>        -0.0508
      6 C6          0.0021   -0.0041    0.0020 C.ar      1 <0>        -0.1101
      7 Br1         1.2156   -2.5682   -0.0188 Br        1 <0>        -0.0349
      8 C7          3.6640   -0.8227    0.0388 C.3       1 <0>         0.1513
      9 N1          4.8509   -0.0578   -0.3534 N.pl3     1 <0>        -0.9767
     10 S1          5.0092    1.4671    0.3077 S.o2      1 <0>         2.7788
     11 O1          6.0050    2.1492   -0.4422 O.2       1 <0>        -0.9577
     12 O2          5.0767    1.3089    1.7183 O.2       1 <0>        -0.9479
     13 N2          3.5501    2.1884   -0.0404 N.pl3     1 <0>        -1.0485
     14 C8          5.8477   -0.6035   -1.2780 C.3       1 <0>         0.1285
     15 C9          5.4098   -0.3477   -2.6971 C.2       1 <0>         0.5000
     16 O3          4.3677    0.2332   -2.9147 O.2       1 <0>        -0.5017
     17 N3          6.1763   -0.7644   -3.7244 N.am      1 <0>        -0.5950
     18 O4          5.7648   -0.5241   -5.0578 O.3       1 <0>        -0.3164
     19 H1         -0.9571    1.9091    0.0259 H         1 <0>         0.1420
     20 H2          1.1606    3.1546    0.0034 H         1 <0>         0.1380
     21 H3         -0.9258   -0.5567    0.0006 H         1 <0>         0.1407
     22 H4          3.8054   -1.2020    1.0509 H         1 <0>         0.1018
     23 H5          3.5457   -1.6666   -0.6409 H         1 <0>         0.1125
     24 H6          3.5013    3.1320   -0.2597 H         1 <0>         0.4339
     25 H7          6.8092   -0.1210   -1.1019 H         1 <0>         0.1249
     26 H8          5.9448   -1.6769   -1.1156 H         1 <0>         0.1273
     27 H9          7.0098   -1.2290   -3.5503 H         1 <0>         0.4093
     28 H10         6.3788   -0.8593   -5.7254 H         1 <0>         0.3889
@<TRIPOS>BOND
     1    1    6 ar
     2    1    2 ar
     3    1   19 1
     4    2    3 ar
     5    2   20 1
     6    3   13 1
     7    3    4 ar
     8    4    5 ar
     9    4    8 1
    10    5    6 ar
    11    5    7 1
    12    6   21 1
    13    8    9 1
    14    8   22 1
    15    8   23 1
    16    9   10 1
    17    9   14 1
    18   10   11 2
    19   10   12 2
    20   10   13 1
    21   13   24 1
    22   14   15 1
    23   14   25 1
    24   14   26 1
    25   15   16 2
    26   15   17 am
    27   17   18 1
    28   17   27 1
    29   18   28 1
@<TRIPOS>MOLECULE
CHEMBL51705__1
   27    28     0     0     0
SMALL
USER_CHARGES

@<TRIPOS>ATOM
      1 C1         -0.0167    1.3784    0.0096 C.ar      1 <0>        -0.0826
      2 C2          1.1726    2.0747    0.0020 C.ar      1 <0>        -0.1547
      3 C3          2.3926    1.3964   -0.0079 C.ar      1 <0>         0.2750
      4 C4          2.4147    0.0155    0.0004 C.ar      1 <0>        -0.2123
      5 C5          1.2057   -0.6773   -0.0037 C.ar      1 <0>        -0.0278
      6 C6          0.0021   -0.0041    0.0020 C.ar      1 <0>        -0.1868
      7 Br1         1.2156   -2.5682   -0.0188 Br        1 <0>        -0.0904
      8 C7          3.6640   -0.8227    0.0388 C.3       1 <0>         0.1809
      9 N1          4.8509   -0.0578   -0.3534 N.pl3     1 <0>        -0.9961
     10 S1          5.0092    1.4671    0.3077 S.o2      1 <0>         2.6700
     11 O1          6.0050    2.1492   -0.4422 O.2       1 <0>        -1.0110
     12 O2          5.0767    1.3089    1.7183 O.2       1 <0>        -1.0368
     13 N2          3.5501    2.1884   -0.0404 N.2       1 <0>        -1.0347
     14 C8          5.8477   -0.6035   -1.2780 C.3       1 <0>         0.1379
     15 C9          5.4098   -0.3477   -2.6971 C.2       1 <0>         0.4959
     16 O3          4.3677    0.2332   -2.9147 O.2       1 <0>        -0.4837
     17 N3          6.1763   -0.7644   -3.7244 N.am      1 <0>        -0.6044
     18 O4          5.7648   -0.5241   -5.0578 O.3       1 <0>        -0.3236
     19 H1         -0.9571    1.9091    0.0259 H         1 <0>         0.1155
     20 H2          1.1606    3.1546    0.0034 H         1 <0>         0.1184
     21 H3         -0.9258   -0.5567    0.0006 H         1 <0>         0.1137
     22 H4          3.8054   -1.2020    1.0509 H         1 <0>         0.0664
     23 H5          3.5457   -1.6666   -0.6409 H         1 <0>         0.0814
     24 H6          6.8092   -0.1210   -1.1019 H         1 <0>         0.1086
     25 H7          5.9448   -1.6769   -1.1156 H         1 <0>         0.1007
     26 H8          7.0098   -1.2290   -3.5503 H         1 <0>         0.4024
     27 H9          6.3788   -0.8593   -5.7254 H         1 <0>         0.3783
@<TRIPOS>BOND
     1    1    6 ar
     2    1    2 ar
     3    1   19 1
     4    2    3 ar
     5    2   20 1
     6    3   13 1
     7    3    4 ar
     8    4    5 ar
     9    4    8 1
    10    5    6 ar
    11    5    7 1
    12    6   21 1
    13    8    9 1
    14    8   22 1
    15    8   23 1
    16    9   10 1
    17    9   14 1
    18   10   11 2
    19   10   12 2
    20   10   13 1
    21   14   15 1
    22   14   24 1
    23   14   25 1
    24   15   16 2
    25   15   17 am
    26   17   18 1
    27   17   26 1
    28   18   27 1
@<TRIPOS>MOLECULE
CHEMBL157738
   76    78     0     0     0
SMALL
USER_CHARGES

@<TRIPOS>ATOM
      1 C1         -0.7651    1.7170   -0.9700 C.3       1 <0>        -0.1535
      2 C2         -0.5500    0.2350   -0.6565 C.3       1 <0>        -0.0671
      3 C3         -0.2154    0.0710    0.8274 C.3       1 <0>        -0.1485
      4 C4         -1.8254   -0.5453   -0.9810 C.3       1 <0>        -0.1340
      5 C5          0.6060   -0.3027   -1.5024 C.3       1 <0>         0.1162
      6 H1          0.3211   -0.2939   -2.5545 H         1 <0>         0.1123
      7 C6          1.8208    0.5667   -1.3036 C.2       1 <0>         0.3979
      8 O1          1.8619    1.3487   -0.3770 O.2       1 <0>        -0.4368
      9 C7          2.9539    0.4675   -2.2309 C.ar      1 <0>        -0.2419
     10 C8          2.8628   -0.3477   -3.3668 C.ar      1 <0>        -0.0121
     11 C9          3.9193   -0.4368   -4.2272 C.ar      1 <0>        -0.2155
     12 C10         5.0865    0.2813   -3.9769 C.ar      1 <0>         0.2610
     13 C11         5.1814    1.0931   -2.8487 C.ar      1 <0>        -0.2175
     14 C12         4.1277    1.1921   -1.9859 C.ar      1 <0>        -0.0017
     15 N1          6.1589    0.1874   -4.8545 N.pl3     1 <0>        -0.6170
     16 C13         6.0267   -0.5429   -6.1226 C.3       1 <0>         0.1180
     17 C14         6.4535    0.3789   -7.2693 C.3       1 <0>        -0.1311
     18 C15         7.8619    0.9105   -6.9940 C.3       1 <0>         0.1059
     19 C16         7.8579    1.7229   -5.6971 C.3       1 <0>        -0.1709
     20 C17         7.4452    0.8215   -4.5353 C.3       1 <0>         0.1168
     21 O2          8.2759    1.7452   -8.0774 O.3       1 <0>        -0.5660
     22 N2          0.9148   -1.6746   -1.0916 N.am      1 <0>        -0.7142
     23 C18         0.2229   -2.7064   -1.6141 C.2       1 <0>         0.5248
     24 O3         -0.6554   -2.4992   -2.4243 O.2       1 <0>        -0.5116
     25 C19         0.5406   -4.1176   -1.1915 C.3       1 <0>        -0.1319
     26 H2          1.5780   -4.3454   -1.4363 H         1 <0>         0.1053
     27 C20        -0.3826   -5.0906   -1.9277 C.3       1 <0>        -0.0874
     28 C21         0.1417   -6.5179   -1.7587 C.3       1 <0>        -0.1138
     29 C22         1.4673   -6.6887   -2.5291 C.3       1 <0>        -0.1212
     30 C23         1.3942   -8.1281   -3.0964 C.3       1 <0>        -0.1244
     31 C24        -0.0979   -8.2657   -3.4884 C.3       1 <0>        -0.1253
     32 C25        -0.8535   -7.5207   -2.3686 C.3       1 <0>        -0.1168
     33 C26         0.3301   -4.2578    0.3175 C.3       1 <0>         0.1435
     34 N3          0.8114   -5.5695    0.7580 N.am      1 <0>        -0.4700
     35 C27         2.1281   -5.8539    0.7135 C.2       1 <0>         0.4777
     36 O4          2.5265   -6.9398    1.0782 O.2       1 <0>        -0.5424
     37 O5         -0.1067   -6.5385    1.2304 O.3       1 <0>        -0.3275
     38 H3          0.1041    2.2875   -0.6427 H         1 <0>         0.0743
     39 H4         -0.9004    1.8453   -2.0440 H         1 <0>         0.0513
     40 H5         -1.6521    2.0741   -0.4468 H         1 <0>         0.0592
     41 H6         -1.0966    0.3015    1.4262 H         1 <0>         0.0532
     42 H7          0.0951   -0.9562    1.0185 H         1 <0>         0.0475
     43 H8          0.5936    0.7508    1.0948 H         1 <0>         0.0775
     44 H9         -2.0638   -0.4284   -2.0382 H         1 <0>         0.0592
     45 H10        -1.6722   -1.6011   -0.7577 H         1 <0>         0.0571
     46 H11        -2.6489   -0.1622   -0.3784 H         1 <0>         0.0500
     47 H12         1.9584   -0.9051   -3.5613 H         1 <0>         0.1276
     48 H13         3.8500   -1.0652   -5.1028 H         1 <0>         0.1291
     49 H14         6.0882    1.6478   -2.6583 H         1 <0>         0.1291
     50 H15         4.2005    1.8251   -1.1139 H         1 <0>         0.1324
     51 H16         6.6673   -1.4247   -6.1049 H         1 <0>         0.0707
     52 H17         4.9890   -0.8453   -6.2637 H         1 <0>         0.0939
     53 H18         6.4520   -0.1800   -8.2051 H         1 <0>         0.0848
     54 H19         5.7572    1.2143   -7.3428 H         1 <0>         0.0760
     55 H20         8.5532    0.0735   -6.8960 H         1 <0>         0.0572
     56 H21         8.8560    2.1207   -5.5139 H         1 <0>         0.0798
     57 H22         7.1484    2.5457   -5.7854 H         1 <0>         0.0771
     58 H23         7.3432    1.4191   -3.6295 H         1 <0>         0.0913
     59 H24         8.2040    0.0535   -4.3853 H         1 <0>         0.0697
     60 H25         9.1617    2.1181   -7.9704 H         1 <0>         0.3805
     61 H26         1.6173   -1.8403   -0.4435 H         1 <0>         0.4020
     62 H27        -1.3883   -5.0214   -1.5131 H         1 <0>         0.0707
     63 H28        -0.4081   -4.8359   -2.9873 H         1 <0>         0.0772
     64 H29         0.2924   -6.7374   -0.7018 H         1 <0>         0.0984
     65 H30         1.5340   -5.9624   -3.3392 H         1 <0>         0.0649
     66 H31         2.3168   -6.5874   -1.8538 H         1 <0>         0.0556
     67 H32         2.0348   -8.2311   -3.9723 H         1 <0>         0.0633
     68 H33         1.6620   -8.8583   -2.3327 H         1 <0>         0.0650
     69 H34        -0.2839   -7.7941   -4.4533 H         1 <0>         0.0636
     70 H35        -0.3906   -9.3154   -3.5130 H         1 <0>         0.0622
     71 H36        -1.1851   -8.2273   -1.6078 H         1 <0>         0.0608
     72 H37        -1.7099   -6.9904   -2.7850 H         1 <0>         0.0630
     73 H38         0.8836   -3.4748    0.8358 H         1 <0>         0.0907
     74 H39        -0.7315   -4.1647    0.5464 H         1 <0>         0.1073
     75 H40         2.8283   -5.1148    0.3532 H         1 <0>         0.1492
     76 H41         0.3041   -7.3719    1.4982 H         1 <0>         0.3981
@<TRIPOS>BOND
     1    1    2 1
     2    1   38 1
     3    1   39 1
     4    1   40 1
     5    2    3 1
     6    2    4 1
     7    2    5 1
     8    3   41 1
     9    3   42 1
    10    3   43 1
    11    4   44 1
    12    4   45 1
    13    4   46 1
    14    5    6 1
    15    5    7 1
    16    5   22 1
    17    7    8 2
    18    7    9 1
    19    9   14 ar
    20    9   10 ar
    21   10   11 ar
    22   10   47 1
    23   11   12 ar
    24   11   48 1
    25   12   13 ar
    26   12   15 1
    27   13   14 ar
    28   13   49 1
    29   14   50 1
    30   15   20 1
    31   15   16 1
    32   16   17 1
    33   16   51 1
    34   16   52 1
    35   17   18 1
    36   17   53 1
    37   17   54 1
    38   18   19 1
    39   18   21 1
    40   18   55 1
    41   19   20 1
    42   19   56 1
    43   19   57 1
    44   20   58 1
    45   20   59 1
    46   21   60 1
    47   22   23 am
    48   22   61 1
    49   23   24 2
    50   23   25 1
    51   25   26 1
    52   25   27 1
    53   25   33 1
    54   27   28 1
    55   27   62 1
    56   27   63 1
    57   28   32 1
    58   28   29 1
    59   28   64 1
    60   29   30 1
    61   29   65 1
    62   29   66 1
    63   30   31 1
    64   30   67 1
    65   30   68 1
    66   31   32 1
    67   31   69 1
    68   31   70 1
    69   32   71 1
    70   32   72 1
    71   33   34 1
    72   33   73 1
    73   33   74 1
    74   34   35 am
    75   34   37 1
    76   35   36 2
    77   35   75 1
    78   37   76 1
@<TRIPOS>MOLECULE
CHEMBL156163
   81    83     0     0     0
SMALL
USER_CHARGES

@<TRIPOS>ATOM
      1 C1         -0.6063    1.7732   -1.0109 C.3       1 <0>        -0.1546
      2 C2         -0.5757    0.2903   -0.6354 C.3       1 <0>        -0.0677
      3 C3         -0.2857    0.1488    0.8602 C.3       1 <0>        -0.1499
      4 C4         -1.9306   -0.3447   -0.9545 C.3       1 <0>        -0.1340
      5 C5          0.5199   -0.4160   -1.4364 C.3       1 <0>         0.1175
      6 H1          0.2548   -0.4154   -2.4937 H         1 <0>         0.1165
      7 C6          1.8276    0.3083   -1.2461 C.2       1 <0>         0.3934
      8 O1          1.9501    1.1127   -0.3463 O.2       1 <0>        -0.4157
      9 C7          2.9529    0.0407   -2.1492 C.ar      1 <0>        -0.1514
     10 C8          2.7796   -0.7978   -3.2578 C.ar      1 <0>        -0.0711
     11 C9          3.8269   -1.0466   -4.0978 C.ar      1 <0>        -0.1110
     12 C10         5.0710   -0.4696   -3.8575 C.ar      1 <0>         0.1817
     13 C11         5.2552    0.3671   -2.7567 C.ar      1 <0>         0.0804
     14 C12         4.2023    0.6279   -1.9082 C.ar      1 <0>        -0.0880
     15 F1          6.4636    0.9254   -2.5263 F         1 <0>        -0.1268
     16 N1          6.1328   -0.7284   -4.7169 N.pl3     1 <0>        -0.6799
     17 C13         7.0319   -1.8688   -4.4838 C.3       1 <0>         0.1498
     18 C14         7.1359   -2.6796   -5.7800 C.3       1 <0>         0.0419
     19 N2          7.5329   -1.7902   -6.8796 N.3       1 <0>        -0.5257
     20 C15         6.5161   -0.7587   -7.1243 C.3       1 <0>         0.0381
     21 C16         6.3831    0.1273   -5.8867 C.3       1 <0>         0.1498
     22 C17         7.8107   -2.5561   -8.1020 C.3       1 <0>         0.0543
     23 C18         8.4552   -1.6387   -9.1432 C.3       1 <0>         0.0791
     24 O2          9.7321   -1.2050   -8.6706 O.3       1 <0>        -0.5588
     25 N3          0.6541   -1.7975   -0.9675 N.am      1 <0>        -0.7165
     26 C19        -0.1492   -2.7588   -1.4644 C.2       1 <0>         0.5258
     27 O3         -0.9832   -2.4803   -2.2998 O.2       1 <0>        -0.5094
     28 C20        -0.0112   -4.1798   -0.9820 C.3       1 <0>        -0.1320
     29 H2          0.9948   -4.5403   -1.1968 H         1 <0>         0.1058
     30 C21        -1.0336   -5.0635   -1.6995 C.3       1 <0>        -0.0875
     31 C22        -0.6854   -6.5356   -1.4700 C.3       1 <0>        -0.1135
     32 C23         0.6163   -6.8934   -2.2165 C.3       1 <0>        -0.1212
     33 C24         0.3759   -8.3349   -2.7298 C.3       1 <0>        -0.1245
     34 C25        -1.1188   -8.3085   -3.1351 C.3       1 <0>        -0.1254
     35 C26        -1.7886   -7.4354   -2.0540 C.3       1 <0>        -0.1168
     36 C27        -0.2607   -4.2329    0.5265 C.3       1 <0>         0.1435
     37 N4          0.0558   -5.5728    1.0271 N.am      1 <0>        -0.4704
     38 C28         1.3308   -6.0095    1.0242 C.2       1 <0>         0.4775
     39 O4          1.5928   -7.1188    1.4386 O.2       1 <0>        -0.5412
     40 O5         -0.9779   -6.4092    1.5139 O.3       1 <0>        -0.3273
     41 H3          0.3193    2.2492   -0.6871 H         1 <0>         0.0727
     42 H4         -0.7071    1.8724   -2.0916 H         1 <0>         0.0529
     43 H5         -1.4530    2.2545   -0.5213 H         1 <0>         0.0618
     44 H6         -1.1424    0.5056    1.4318 H         1 <0>         0.0556
     45 H7         -0.1018   -0.8992    1.0970 H         1 <0>         0.0489
     46 H8          0.5939    0.7391    1.1172 H         1 <0>         0.0769
     47 H9         -2.1372   -0.2439   -2.0200 H         1 <0>         0.0602
     48 H10        -1.9087   -1.4012   -0.6871 H         1 <0>         0.0578
     49 H11        -2.7111    0.1585   -0.3839 H         1 <0>         0.0518
     50 H12         1.8167   -1.2484   -3.4481 H         1 <0>         0.1367
     51 H13         3.6898   -1.6936   -4.9516 H         1 <0>         0.1364
     52 H14         4.3401    1.2791   -1.0576 H         1 <0>         0.1479
     53 H15         8.0192   -1.5046   -4.1996 H         1 <0>         0.0647
     54 H16         6.6280   -2.4973   -3.6902 H         1 <0>         0.0730
     55 H17         7.8826   -3.4644   -5.6592 H         1 <0>         0.0833
     56 H18         6.1690   -3.1288   -6.0065 H         1 <0>         0.0351
     57 H19         6.8134   -0.1503   -7.9785 H         1 <0>         0.0836
     58 H20         5.5578   -1.2346   -7.3322 H         1 <0>         0.0346
     59 H21         5.5503    0.8178   -6.0201 H         1 <0>         0.0725
     60 H22         7.3067    0.6871   -5.7399 H         1 <0>         0.0642
     61 H23         8.4900   -3.3764   -7.8704 H         1 <0>         0.0838
     62 H24         6.8783   -2.9575   -8.4990 H         1 <0>         0.0471
     63 H25         8.5799   -2.1830  -10.0794 H         1 <0>         0.0485
     64 H26         7.8156   -0.7719   -9.3093 H         1 <0>         0.0453
     65 H27        10.1991   -0.6186   -9.2814 H         1 <0>         0.3758
     66 H28         1.3211   -2.0202   -0.2994 H         1 <0>         0.4028
     67 H29        -2.0294   -4.8601   -1.3058 H         1 <0>         0.0711
     68 H30        -1.0141   -4.8478   -2.7677 H         1 <0>         0.0773
     69 H31        -0.5707   -6.7300   -0.4036 H         1 <0>         0.0983
     70 H32         0.7761   -6.2124   -3.0525 H         1 <0>         0.0646
     71 H33         1.4664   -6.8680   -1.5347 H         1 <0>         0.0558
     72 H34         1.0066   -8.5477   -3.5930 H         1 <0>         0.0634
     73 H35         0.5481   -9.0614   -1.9357 H         1 <0>         0.0653
     74 H36        -1.2392   -7.8562   -4.1195 H         1 <0>         0.0635
     75 H37        -1.5349   -9.3159   -3.1237 H         1 <0>         0.0624
     76 H38        -2.2086   -8.0671   -1.2713 H         1 <0>         0.0611
     77 H39        -2.5720   -6.8233   -2.5010 H         1 <0>         0.0630
     78 H40         0.3728   -3.4996    1.0256 H         1 <0>         0.0906
     79 H41        -1.3075   -4.0069    0.7298 H         1 <0>         0.1077
     80 H42         2.1192   -5.3716    0.6529 H         1 <0>         0.1492
     81 H43        -0.6724   -7.2733    1.8223 H         1 <0>         0.3984
@<TRIPOS>BOND
     1    1    2 1
     2    1   41 1
     3    1   42 1
     4    1   43 1
     5    2    3 1
     6    2    4 1
     7    2    5 1
     8    3   44 1
     9    3   45 1
    10    3   46 1
    11    4   47 1
    12    4   48 1
    13    4   49 1
    14    5    6 1
    15    5    7 1
    16    5   25 1
    17    7    8 2
    18    7    9 1
    19    9   14 ar
    20    9   10 ar
    21   10   11 ar
    22   10   50 1
    23   11   12 ar
    24   11   51 1
    25   12   13 ar
    26   12   16 1
    27   13   14 ar
    28   13   15 1
    29   14   52 1
    30   16   21 1
    31   16   17 1
    32   17   18 1
    33   17   53 1
    34   17   54 1
    35   18   19 1
    36   18   55 1
    37   18   56 1
    38   19   20 1
    39   19   22 1
    40   20   21 1
    41   20   57 1
    42   20   58 1
    43   21   59 1
    44   21   60 1
    45   22   23 1
    46   22   61 1
    47   22   62 1
    48   23   24 1
    49   23   63 1
    50   23   64 1
    51   24   65 1
    52   25   26 am
    53   25   66 1
    54   26   27 2
    55   26   28 1
    56   28   29 1
    57   28   30 1
    58   28   36 1
    59   30   31 1
    60   30   67 1
    61   30   68 1
    62   31   35 1
    63   31   32 1
    64   31   69 1
    65   32   33 1
    66   32   70 1
    67   32   71 1
    68   33   34 1
    69   33   72 1
    70   33   73 1
    71   34   35 1
    72   34   74 1
    73   34   75 1
    74   35   76 1
    75   35   77 1
    76   36   37 1
    77   36   78 1
    78   36   79 1
    79   37   38 am
    80   37   40 1
    81   38   39 2
    82   38   80 1
    83   40   81 1
@<TRIPOS>MOLECULE
CHEMBL156163__1
   82    84     0     0     0
SMALL
USER_CHARGES

@<TRIPOS>ATOM
      1 C1         -0.6063    1.7732   -1.0109 C.3       1 <0>        -0.1551
      2 C2         -0.5757    0.2903   -0.6354 C.3       1 <0>        -0.0684
      3 C3         -0.2857    0.1488    0.8602 C.3       1 <0>        -0.1513
      4 C4         -1.9306   -0.3447   -0.9545 C.3       1 <0>        -0.1352
      5 C5          0.5199   -0.4160   -1.4364 C.3       1 <0>         0.1187
      6 H1          0.2548   -0.4154   -2.4937 H         1 <0>         0.1168
      7 C6          1.8276    0.3083   -1.2461 C.2       1 <0>         0.3870
      8 O1          1.9501    1.1127   -0.3463 O.2       1 <0>        -0.4031
      9 C7          2.9529    0.0407   -2.1492 C.ar      1 <0>        -0.1293
     10 C8          2.7796   -0.7978   -3.2578 C.ar      1 <0>        -0.0713
     11 C9          3.8269   -1.0466   -4.0978 C.ar      1 <0>        -0.1028
     12 C10         5.0710   -0.4696   -3.8575 C.ar      1 <0>         0.1471
     13 C11         5.2552    0.3671   -2.7567 C.ar      1 <0>         0.0927
     14 C12         4.2023    0.6279   -1.9082 C.ar      1 <0>        -0.0879
     15 F1          6.4636    0.9254   -2.5263 F         1 <0>        -0.1257
     16 N1          6.1328   -0.7284   -4.7169 N.pl3     1 <0>        -0.6758
     17 C13         7.0329   -1.8687   -4.4851 C.3       1 <0>         0.1179
     18 C14         7.1506   -2.6672   -5.7875 C.3       1 <0>        -0.0218
     19 N2          7.5729   -1.7726   -6.8726 N.4       1 <0>        -0.3803
     20 C15         6.5359   -0.7630   -7.1205 C.3       1 <0>        -0.0267
     21 C16         6.3844    0.1266   -5.8873 C.3       1 <0>         0.1183
     22 C17         7.7917   -2.5575   -8.0948 C.3       1 <0>        -0.0051
     23 C18         8.3507   -1.6487   -9.1914 C.3       1 <0>         0.0446
     24 O2          9.6444   -1.1788   -8.8071 O.3       1 <0>        -0.5802
     25 N3          0.6541   -1.7975   -0.9675 N.am      1 <0>        -0.7190
     26 C19        -0.1492   -2.7588   -1.4644 C.2       1 <0>         0.5254
     27 O3         -0.9832   -2.4803   -2.2998 O.2       1 <0>        -0.5066
     28 C20        -0.0112   -4.1798   -0.9820 C.3       1 <0>        -0.1303
     29 H2          0.9948   -4.5403   -1.1968 H         1 <0>         0.1043
     30 C21        -1.0336   -5.0635   -1.6995 C.3       1 <0>        -0.0881
     31 C22        -0.6854   -6.5356   -1.4700 C.3       1 <0>        -0.1140
     32 C23         0.6163   -6.8934   -2.2165 C.3       1 <0>        -0.1192
     33 C24         0.3759   -8.3349   -2.7298 C.3       1 <0>        -0.1247
     34 C25        -1.1188   -8.3085   -3.1351 C.3       1 <0>        -0.1256
     35 C26        -1.7886   -7.4354   -2.0541 C.3       1 <0>        -0.1179
     36 C27        -0.2607   -4.2329    0.5265 C.3       1 <0>         0.1425
     37 N4          0.0558   -5.5728    1.0271 N.am      1 <0>        -0.4706
     38 C28         1.3308   -6.0095    1.0242 C.2       1 <0>         0.4766
     39 O4          1.5928   -7.1188    1.4386 O.2       1 <0>        -0.5390
     40 O5         -0.9779   -6.4092    1.5139 O.3       1 <0>        -0.3253
     41 H3          0.3193    2.2492   -0.6871 H         1 <0>         0.0710
     42 H4         -0.7071    1.8724   -2.0916 H         1 <0>         0.0528
     43 H5         -1.4530    2.2545   -0.5213 H         1 <0>         0.0649
     44 H6         -1.1424    0.5056    1.4318 H         1 <0>         0.0587
     45 H7         -0.1018   -0.8992    1.0970 H         1 <0>         0.0496
     46 H8          0.5939    0.7391    1.1172 H         1 <0>         0.0757
     47 H9         -2.1372   -0.2439   -2.0200 H         1 <0>         0.0605
     48 H10        -1.9087   -1.4012   -0.6871 H         1 <0>         0.0583
     49 H11        -2.7111    0.1585   -0.3839 H         1 <0>         0.0546
     50 H12         1.8167   -1.2484   -3.4481 H         1 <0>         0.1435
     51 H13         3.6898   -1.6936   -4.9516 H         1 <0>         0.1382
     52 H14         4.3401    1.2791   -1.0576 H         1 <0>         0.1542
     53 H15         8.0165   -1.5045   -4.1886 H         1 <0>         0.0837
     54 H16         6.6231   -2.5053   -3.7009 H         1 <0>         0.1181
     55 H17         7.8880   -3.4601   -5.6624 H         1 <0>         0.1394
     56 H18         6.1835   -3.1058   -6.0336 H         1 <0>         0.1315
     57 H19         6.8204   -0.1526   -7.9776 H         1 <0>         0.1378
     58 H20         5.5874   -1.2591   -7.3263 H         1 <0>         0.1318
     59 H21         5.5460    0.8085   -6.0297 H         1 <0>         0.1177
     60 H22         7.3014    0.6957   -5.7348 H         1 <0>         0.0831
     61 H23         8.5019   -3.3586   -7.8899 H         1 <0>         0.1389
     62 H24         6.8458   -2.9864   -8.4255 H         1 <0>         0.1414
     63 H25         8.4296   -2.2093  -10.1228 H         1 <0>         0.0956
     64 H26         7.6832   -0.7989   -9.3343 H         1 <0>         0.0715
     65 H27        10.0600   -0.5956   -9.4569 H         1 <0>         0.4100
     66 H28         1.3211   -2.0202   -0.2994 H         1 <0>         0.4027
     67 H29        -2.0294   -4.8601   -1.3058 H         1 <0>         0.0726
     68 H30        -1.0141   -4.8478   -2.7677 H         1 <0>         0.0766
     69 H31        -0.5707   -6.7300   -0.4036 H         1 <0>         0.0992
     70 H32         0.7761   -6.2124   -3.0525 H         1 <0>         0.0620
     71 H33         1.4664   -6.8680   -1.5347 H         1 <0>         0.0547
     72 H34         1.0066   -8.5477   -3.5930 H         1 <0>         0.0622
     73 H35         0.5481   -9.0614   -1.9357 H         1 <0>         0.0665
     74 H36        -1.2392   -7.8562   -4.1195 H         1 <0>         0.0630
     75 H37        -1.5349   -9.3159   -3.1237 H         1 <0>         0.0641
     76 H38        -2.2086   -8.0671   -1.2713 H         1 <0>         0.0629
     77 H39        -2.5720   -6.8233   -2.5010 H         1 <0>         0.0637
     78 H40         0.3728   -3.4996    1.0256 H         1 <0>         0.0899
     79 H41        -1.3075   -4.0069    0.7298 H         1 <0>         0.1089
     80 H42         2.1192   -5.3716    0.6529 H         1 <0>         0.1466
     81 H43        -0.6724   -7.2733    1.8223 H         1 <0>         0.3999
     82 H44         8.4327   -1.3130   -6.6125 H         1 <0>         0.4306
@<TRIPOS>BOND
     1    1    2 1
     2    1   41 1
     3    1   42 1
     4    1   43 1
     5    2    3 1
     6    2    4 1
     7    2    5 1
     8    3   44 1
     9    3   45 1
    10    3   46 1
    11    4   47 1
    12    4   48 1
    13    4   49 1
    14    5    6 1
    15    5    7 1
    16    5   25 1
    17    7    8 2
    18    7    9 1
    19    9   14 ar
    20    9   10 ar
    21   10   11 ar
    22   10   50 1
    23   11   12 ar
    24   11   51 1
    25   12   13 ar
    26   12   16 1
    27   13   14 ar
    28   13   15 1
    29   14   52 1
    30   16   21 1
    31   16   17 1
    32   17   18 1
    33   17   53 1
    34   17   54 1
    35   18   19 1
    36   18   55 1
    37   18   56 1
    38   19   20 1
    39   19   22 1
    40   19   82 1
    41   20   21 1
    42   20   57 1
    43   20   58 1
    44   21   59 1
    45   21   60 1
    46   22   23 1
    47   22   61 1
    48   22   62 1
    49   23   24 1
    50   23   63 1
    51   23   64 1
    52   24   65 1
    53   25   26 am
    54   25   66 1
    55   26   27 2
    56   26   28 1
    57   28   29 1
    58   28   30 1
    59   28   36 1
    60   30   31 1
    61   30   67 1
    62   30   68 1
    63   31   35 1
    64   31   32 1
    65   31   69 1
    66   32   33 1
    67   32   70 1
    68   32   71 1
    69   33   34 1
    70   33   72 1
    71   33   73 1
    72   34   35 1
    73   34   74 1
    74   34   75 1
    75   35   76 1
    76   35   77 1
    77   36   37 1
    78   36   78 1
    79   36   79 1
    80   37   38 am
    81   37   40 1
    82   38   39 2
    83   38   80 1
    84   40   81 1
@<TRIPOS>MOLECULE
CHEMBL301544
   31    32     0     0     0
SMALL
USER_CHARGES

@<TRIPOS>ATOM
      1 C1         -0.0166    1.3735    0.0096 C.ar      1 <0>        -0.0821
      2 C2          1.1772    2.0722    0.0019 C.ar      1 <0>        -0.0879
      3 C3          2.3743    1.3906   -0.0228 C.ar      1 <0>        -0.1416
      4 C4          2.4066   -0.0019   -0.0347 C.ar      1 <0>        -0.1097
      5 C5          1.2140   -0.6974   -0.0110 C.ar      1 <0>         0.1857
      6 C6          0.0021   -0.0041    0.0020 C.ar      1 <0>        -0.1148
      7 N1          1.1355   -2.0976    0.0265 N.pl3     1 <0>        -1.0526
      8 S1          2.5038   -2.9741   -0.3338 S.o2      1 <0>         2.7761
      9 O1          2.4437   -4.1767    0.4207 O.2       1 <0>        -0.9569
     10 O2          2.6557   -2.9547   -1.7465 O.2       1 <0>        -0.9361
     11 N2          3.7340   -2.0475    0.3107 N.pl3     1 <0>        -0.9756
     12 C7          3.7699   -0.6374   -0.0868 C.3       1 <0>         0.1334
     13 C8          4.7270   -2.6150    1.2262 C.3       1 <0>         0.1243
     14 C9          5.9488   -3.0300    0.4477 C.2       1 <0>         0.4946
     15 O3          5.9864   -2.8677   -0.7536 O.2       1 <0>        -0.5004
     16 N3          6.9996   -3.5815    1.0864 N.am      1 <0>        -0.5940
     17 O4          8.1476   -3.9714    0.3549 O.3       1 <0>        -0.3150
     18 C10         3.6680    2.1632   -0.0377 C.3       1 <0>         0.5071
     19 F1          3.3924    3.5347   -0.0225 F         1 <0>        -0.1696
     20 F2          4.4249    1.8271    1.0899 F         1 <0>        -0.1729
     21 F3          4.3879    1.8450   -1.1943 F         1 <0>        -0.1690
     22 H1         -0.9570    1.9043    0.0259 H         1 <0>         0.1469
     23 H2          1.1708    3.1521    0.0150 H         1 <0>         0.1482
     24 H3         -0.9285   -0.5522    0.0062 H         1 <0>         0.1432
     25 H4          0.3052   -2.5434    0.2563 H         1 <0>         0.4354
     26 H5          4.1558   -0.5655   -1.1036 H         1 <0>         0.1078
     27 H6          4.4385   -0.0972    0.5834 H         1 <0>         0.1165
     28 H7          5.0059   -1.8673    1.9686 H         1 <0>         0.1263
     29 H8          4.3032   -3.4849    1.7281 H         1 <0>         0.1328
     30 H9          6.9696   -3.7113    2.0472 H         1 <0>         0.4102
     31 H10         8.8484   -4.3567    0.8986 H         1 <0>         0.3896
@<TRIPOS>BOND
     1    1    6 ar
     2    1    2 ar
     3    1   22 1
     4    2    3 ar
     5    2   23 1
     6    3    4 ar
     7    3   18 1
     8    4   12 1
     9    4    5 ar
    10    5    6 ar
    11    5    7 1
    12    6   24 1
    13    7    8 1
    14    7   25 1
    15    8    9 2
    16    8   10 2
    17    8   11 1
    18   11   12 1
    19   11   13 1
    20   12   26 1
    21   12   27 1
    22   13   14 1
    23   13   28 1
    24   13   29 1
    25   14   15 2
    26   14   16 am
    27   16   17 1
    28   16   30 1
    29   17   31 1
    30   18   19 1
    31   18   20 1
    32   18   21 1
@<TRIPOS>MOLECULE
CHEMBL301544__1
   30    31     0     0     0
SMALL
USER_CHARGES

@<TRIPOS>ATOM
      1 C1         -0.0166    1.3735    0.0096 C.ar      1 <0>        -0.0892
      2 C2          1.1772    2.0722    0.0019 C.ar      1 <0>        -0.1651
      3 C3          2.3743    1.3906   -0.0228 C.ar      1 <0>        -0.1311
      4 C4          2.4066   -0.0019   -0.0347 C.ar      1 <0>        -0.1979
      5 C5          1.2140   -0.6974   -0.0110 C.ar      1 <0>         0.2610
      6 C6          0.0021   -0.0041    0.0020 C.ar      1 <0>        -0.1360
      7 N1          1.1355   -2.0976    0.0265 N.2       1 <0>        -1.0423
      8 S1          2.5038   -2.9741   -0.3338 S.o2      1 <0>         2.6733
      9 O1          2.4437   -4.1767    0.4207 O.2       1 <0>        -1.0134
     10 O2          2.6557   -2.9547   -1.7465 O.2       1 <0>        -1.0252
     11 N2          3.7340   -2.0475    0.3107 N.pl3     1 <0>        -0.9919
     12 C7          3.7699   -0.6374   -0.0868 C.3       1 <0>         0.1627
     13 C8          4.7270   -2.6150    1.2262 C.3       1 <0>         0.1311
     14 C9          5.9488   -3.0300    0.4477 C.2       1 <0>         0.4927
     15 O3          5.9864   -2.8677   -0.7536 O.2       1 <0>        -0.5003
     16 N3          6.9996   -3.5815    1.0864 N.am      1 <0>        -0.6007
     17 O4          8.1476   -3.9714    0.3549 O.3       1 <0>        -0.3245
     18 C10         3.6680    2.1632   -0.0377 C.3       1 <0>         0.5039
     19 F1          3.3924    3.5347   -0.0225 F         1 <0>        -0.1824
     20 F2          4.4249    1.8271    1.0899 F         1 <0>        -0.1815
     21 F3          4.3879    1.8450   -1.1943 F         1 <0>        -0.1781
     22 H1         -0.9570    1.9043    0.0259 H         1 <0>         0.1197
     23 H2          1.1708    3.1521    0.0150 H         1 <0>         0.1210
     24 H3         -0.9285   -0.5522    0.0062 H         1 <0>         0.1229
     25 H4          4.1558   -0.5655   -1.1036 H         1 <0>         0.0735
     26 H5          4.4385   -0.0972    0.5834 H         1 <0>         0.0840
     27 H6          5.0059   -1.8673    1.9686 H         1 <0>         0.1062
     28 H7          4.3032   -3.4849    1.7281 H         1 <0>         0.1211
     29 H8          6.9696   -3.7113    2.0472 H         1 <0>         0.4060
     30 H9          8.8484   -4.3567    0.8986 H         1 <0>         0.3806
@<TRIPOS>BOND
     1    1    6 ar
     2    1    2 ar
     3    1   22 1
     4    2    3 ar
     5    2   23 1
     6    3    4 ar
     7    3   18 1
     8    4   12 1
     9    4    5 ar
    10    5    6 ar
    11    5    7 1
    12    6   24 1
    13    7    8 1
    14    8    9 2
    15    8   10 2
    16    8   11 1
    17   11   12 1
    18   11   13 1
    19   12   25 1
    20   12   26 1
    21   13   14 1
    22   13   27 1
    23   13   28 1
    24   14   15 2
    25   14   16 am
    26   16   17 1
    27   16   29 1
    28   17   30 1
    29   18   19 1
    30   18   20 1
    31   18   21 1
@<TRIPOS>MOLECULE
CHEMBL78130
   36    37     0     0     0
SMALL
USER_CHARGES

@<TRIPOS>ATOM
      1 C1         -0.1264    1.1428    0.1529 C.ar      1 <0>        -0.1071
      2 C2          0.9887    1.9593    0.1810 C.ar      1 <0>        -0.1193
      3 C3          2.2536    1.4033    0.1399 C.ar      1 <0>        -0.0679
      4 C4          2.4035    0.0308    0.0712 C.ar      1 <0>        -0.0866
      5 C5          1.2884   -0.7857    0.0440 C.ar      1 <0>        -0.1308
      6 C6          0.0235   -0.2297    0.0837 C.ar      1 <0>        -0.1156
      7 C7          3.7825   -0.5752    0.0254 C.3       1 <0>        -0.5082
      8 C8          3.9438   -1.3789   -1.2665 C.3       1 <0>        -0.1148
      9 C9          3.9022   -0.4443   -2.4480 C.2       1 <0>         0.5331
     10 O1          3.8631    0.7550   -2.2714 O.2       1 <0>        -0.5015
     11 N1          3.9084   -0.9411   -3.7008 N.am      1 <0>        -0.5980
     12 O2          3.8694   -0.0630   -4.8109 O.3       1 <0>        -0.3153
     13 S1          4.0085   -1.6724    1.4522 S.o2      1 <0>         2.4983
     14 O3          3.9712   -0.9213    2.6579 O.2       1 <0>        -0.9208
     15 O4          3.2140   -2.8409    1.3018 O.2       1 <0>        -0.9261
     16 C10         5.6718   -2.2404    1.3276 C.ar      1 <0>        -0.6639
     17 C11         5.9454   -3.4484    0.7139 C.ar      1 <0>        -0.0276
     18 C12         7.2503   -3.8941    0.6161 C.ar      1 <0>        -0.1386
     19 C13         8.2816   -3.1316    1.1318 C.ar      1 <0>        -0.0622
     20 C14         8.0080   -1.9231    1.7447 C.ar      1 <0>        -0.1367
     21 C15         6.7035   -1.4754    1.8387 C.ar      1 <0>        -0.0232
     22 H1         -1.1146    1.5769    0.1896 H         1 <0>         0.1268
     23 H2          0.8716    3.0316    0.2347 H         1 <0>         0.1282
     24 H3          3.1248    2.0413    0.1612 H         1 <0>         0.1291
     25 H4          1.4055   -1.8580   -0.0100 H         1 <0>         0.1367
     26 H5         -0.8477   -0.8676    0.0621 H         1 <0>         0.1294
     27 H6          4.5293    0.2182    0.0553 H         1 <0>         0.1579
     28 H7          4.8993   -1.9031   -1.2514 H         1 <0>         0.1143
     29 H8          3.1332   -2.1031   -1.3474 H         1 <0>         0.1209
     30 H9          3.9397   -1.9003   -3.8420 H         1 <0>         0.4088
     31 H10         3.8773   -0.5114   -5.6676 H         1 <0>         0.3890
     32 H11         5.1397   -4.0442    0.3110 H         1 <0>         0.1453
     33 H12         7.4640   -4.8382    0.1372 H         1 <0>         0.1357
     34 H13         9.3010   -3.4801    1.0560 H         1 <0>         0.1333
     35 H14         8.8137   -1.3275    2.1479 H         1 <0>         0.1358
     36 H15         6.4902   -0.5296    2.3143 H         1 <0>         0.1416
@<TRIPOS>BOND
     1    1    6 ar
     2    1    2 ar
     3    1   22 1
     4    2    3 ar
     5    2   23 1
     6    3    4 ar
     7    3   24 1
     8    4    5 ar
     9    4    7 1
    10    5    6 ar
    11    5   25 1
    12    6   26 1
    13    7    8 1
    14    7   13 1
    15    7   27 1
    16    8    9 1
    17    8   28 1
    18    8   29 1
    19    9   10 2
    20    9   11 am
    21   11   12 1
    22   11   30 1
    23   12   31 1
    24   13   14 2
    25   13   15 2
    26   13   16 1
    27   16   21 ar
    28   16   17 ar
    29   17   18 ar
    30   17   32 1
    31   18   19 ar
    32   18   33 1
    33   19   20 ar
    34   19   34 1
    35   20   21 ar
    36   20   35 1
    37   21   36 1
@<TRIPOS>MOLECULE
CHEMBL78130__1
   36    37     0     0     0
SMALL
USER_CHARGES

@<TRIPOS>ATOM
      1 C1          0.3031    1.9968    0.1033 C.ar      1 <0>        -0.1071
      2 C2          1.5791    2.5275    0.1377 C.ar      1 <0>        -0.1209
      3 C3          2.6775    1.6913    0.0669 C.ar      1 <0>        -0.0653
      4 C4          2.5000    0.3244   -0.0378 C.ar      1 <0>        -0.0860
      5 C5          1.2241   -0.2063   -0.0712 C.ar      1 <0>        -0.1272
      6 C6          0.1256    0.6300   -0.0019 C.ar      1 <0>        -0.1173
      7 C7          3.6976   -0.5871   -0.1160 C.3       1 <0>        -0.5068
      8 C8          3.6729   -1.5637    1.0616 C.3       1 <0>        -0.1163
      9 C9          3.8707   -0.8043    2.3482 C.2       1 <0>         0.5317
     10 O1          3.9355    0.4067    2.3338 O.2       1 <0>        -0.4984
     11 N1          3.9758   -1.4709    3.5148 N.am      1 <0>        -0.5985
     12 O2          4.1616   -0.7574    4.7237 O.3       1 <0>        -0.3153
     13 S1          3.6496   -1.5163   -1.6732 S.o2      1 <0>         2.4982
     14 O3          2.5066   -2.3600   -1.7047 O.2       1 <0>        -0.9241
     15 O4          3.9459   -0.6568   -2.7653 O.2       1 <0>        -0.9223
     16 C10         5.0205   -2.6196   -1.5845 C.ar      1 <0>        -0.6638
     17 C11         6.2574   -2.2246   -2.0588 C.ar      1 <0>        -0.0226
     18 C12         7.3330   -3.0902   -1.9893 C.ar      1 <0>        -0.1367
     19 C13         7.1717   -4.3507   -1.4450 C.ar      1 <0>        -0.0623
     20 C14         5.9350   -4.7453   -0.9699 C.ar      1 <0>        -0.1386
     21 C15         4.8605   -3.8782   -1.0355 C.ar      1 <0>        -0.0287
     22 H1         -0.5551    2.6498    0.1631 H         1 <0>         0.1261
     23 H2          1.7177    3.5954    0.2195 H         1 <0>         0.1274
     24 H3          3.6744    2.1060    0.0930 H         1 <0>         0.1277
     25 H4          1.0854   -1.2742   -0.1534 H         1 <0>         0.1381
     26 H5         -0.8713    0.2153   -0.0284 H         1 <0>         0.1288
     27 H6          4.6101    0.0076   -0.0757 H         1 <0>         0.1563
     28 H7          2.7121   -2.0778    1.0872 H         1 <0>         0.1226
     29 H8          4.4730   -2.2945    0.9444 H         1 <0>         0.1120
     30 H9          3.9240   -2.4394    3.5264 H         1 <0>         0.4083
     31 H10         4.2258   -1.3207    5.5070 H         1 <0>         0.3889
     32 H11         6.3834   -1.2399   -2.4840 H         1 <0>         0.1430
     33 H12         8.2992   -2.7819   -2.3605 H         1 <0>         0.1358
     34 H13         8.0119   -5.0272   -1.3914 H         1 <0>         0.1333
     35 H14         5.8090   -5.7302   -0.5450 H         1 <0>         0.1357
     36 H15         3.8952   -4.1851   -0.6609 H         1 <0>         0.1440
@<TRIPOS>BOND
     1    1    6 ar
     2    1    2 ar
     3    1   22 1
     4    2    3 ar
     5    2   23 1
     6    3    4 ar
     7    3   24 1
     8    4    5 ar
     9    4    7 1
    10    5    6 ar
    11    5   25 1
    12    6   26 1
    13    7    8 1
    14    7   13 1
    15    7   27 1
    16    8    9 1
    17    8   28 1
    18    8   29 1
    19    9   10 2
    20    9   11 am
    21   11   12 1
    22   11   30 1
    23   12   31 1
    24   13   14 2
    25   13   15 2
    26   13   16 1
    27   16   21 ar
    28   16   17 ar
    29   17   18 ar
    30   17   32 1
    31   18   19 ar
    32   18   33 1
    33   19   20 ar
    34   19   34 1
    35   20   21 ar
    36   20   35 1
    37   21   36 1
@<TRIPOS>MOLECULE
CHEMBL35042
   48    50     0     0     0
SMALL
USER_CHARGES

@<TRIPOS>ATOM
      1 C1         -0.0166    1.3765    0.0096 C.ar      1 <0>        -0.0829
      2 C2          1.1657    2.0938    0.0022 C.ar      1 <0>        -0.1266
      3 C3          2.3766    1.4260   -0.0083 C.ar      1 <0>        -0.0565
      4 C4          2.4008    0.0412   -0.0145 C.ar      1 <0>        -0.1452
      5 C5          1.2131   -0.6895   -0.0146 C.ar      1 <0>         0.1612
      6 C6          0.0021   -0.0041    0.0020 C.ar      1 <0>        -0.1444
      7 N1          1.2051   -2.0808   -0.0439 N.am      1 <0>        -0.5391
      8 C7          2.2206   -2.8734   -0.3704 C.2       1 <0>         0.5262
      9 O1          2.0829   -4.0713   -0.2383 O.2       1 <0>        -0.5010
     10 C8          3.5343   -2.3571   -0.8971 C.3       1 <0>        -0.0829
     11 S1          3.9432   -0.8187   -0.0170 S.3       1 <0>        -0.0439
     12 C9          3.4123   -2.0752   -2.3959 C.3       1 <0>        -0.1185
     13 C10         4.7586   -1.6767   -2.9433 C.2       1 <0>         0.5313
     14 O2          5.7210   -1.6233   -2.2071 O.2       1 <0>        -0.4979
     15 N2          4.8933   -1.3795   -4.2510 N.am      1 <0>        -0.5962
     16 O3          6.1583   -1.0051   -4.7653 O.3       1 <0>        -0.3132
     17 C11        -0.0512   -2.7391    0.3232 C.3       1 <0>         0.0895
     18 C12        -0.9082   -2.9368   -0.9288 C.3       1 <0>        -0.1308
     19 C13        -2.2202   -3.6242   -0.5454 C.3       1 <0>        -0.0835
     20 C14        -3.0349   -2.6991    0.3608 C.3       1 <0>        -0.1185
     21 C15        -4.3469   -3.3865    0.7442 C.3       1 <0>        -0.1205
     22 C16        -5.1489   -3.6966   -0.5213 C.3       1 <0>        -0.1206
     23 C17        -4.3342   -4.6218   -1.4275 C.3       1 <0>        -0.1207
     24 C18        -3.0222   -3.9343   -1.8109 C.3       1 <0>        -0.1125
     25 H1         -0.9612    1.8998    0.0260 H         1 <0>         0.1326
     26 H2          1.1434    3.1736    0.0042 H         1 <0>         0.1337
     27 H3          3.3017    1.9833   -0.0113 H         1 <0>         0.1369
     28 H4         -0.9272   -0.5544    0.0094 H         1 <0>         0.1368
     29 H5          4.3152   -3.0973   -0.7228 H         1 <0>         0.1609
     30 H6          3.0634   -2.9724   -2.9071 H         1 <0>         0.1170
     31 H7          2.7006   -1.2654   -2.5566 H         1 <0>         0.1063
     32 H8          4.1237   -1.4222   -4.8398 H         1 <0>         0.4081
     33 H9          6.1560   -0.8110   -5.7127 H         1 <0>         0.3892
     34 H10         0.1644   -3.7084    0.7727 H         1 <0>         0.1011
     35 H11        -0.5909   -2.1187    1.0387 H         1 <0>         0.0920
     36 H12        -1.1237   -1.9675   -1.3783 H         1 <0>         0.0697
     37 H13        -0.3685   -3.5572   -1.6443 H         1 <0>         0.0693
     38 H14        -2.0031   -4.5522   -0.0163 H         1 <0>         0.0749
     39 H15        -2.4635   -2.4782    1.2624 H         1 <0>         0.0624
     40 H16        -3.2520   -1.7711   -0.1682 H         1 <0>         0.0632
     41 H17        -4.1298   -4.3145    1.2733 H         1 <0>         0.0622
     42 H18        -4.9273   -2.7274    1.3898 H         1 <0>         0.0621
     43 H19        -6.0836   -4.1864   -0.2482 H         1 <0>         0.0609
     44 H20        -5.3660   -2.7687   -1.0503 H         1 <0>         0.0609
     45 H21        -4.1171   -5.5497   -0.8984 H         1 <0>         0.0620
     46 H22        -4.9056   -4.8427   -2.3291 H         1 <0>         0.0616
     47 H23        -3.2393   -3.0064   -2.3399 H         1 <0>         0.0618
     48 H24        -2.4418   -4.5934   -2.4565 H         1 <0>         0.0615
@<TRIPOS>BOND
     1    1    6 ar
     2    1    2 ar
     3    1   25 1
     4    2    3 ar
     5    2   26 1
     6    3    4 ar
     7    3   27 1
     8    4   11 1
     9    4    5 ar
    10    5    6 ar
    11    5    7 1
    12    6   28 1
    13    7    8 am
    14    7   17 1
    15    8    9 2
    16    8   10 1
    17   10   11 1
    18   10   12 1
    19   10   29 1
    20   12   13 1
    21   12   30 1
    22   12   31 1
    23   13   14 2
    24   13   15 am
    25   15   16 1
    26   15   32 1
    27   16   33 1
    28   17   18 1
    29   17   34 1
    30   17   35 1
    31   18   19 1
    32   18   36 1
    33   18   37 1
    34   19   24 1
    35   19   20 1
    36   19   38 1
    37   20   21 1
    38   20   39 1
    39   20   40 1
    40   21   22 1
    41   21   41 1
    42   21   42 1
    43   22   23 1
    44   22   43 1
    45   22   44 1
    46   23   24 1
    47   23   45 1
    48   23   46 1
    49   24   47 1
    50   24   48 1
@<TRIPOS>MOLECULE
CHEMBL35042__1
   48    50     0     0     0
SMALL
USER_CHARGES

@<TRIPOS>ATOM
      1 C1         -0.0332    1.3697    0.0820 C.ar      1 <0>        -0.0826
      2 C2          1.1456    2.0929    0.0764 C.ar      1 <0>        -0.1267
      3 C3          2.3593    1.4317    0.0338 C.ar      1 <0>        -0.0564
      4 C4          2.3901    0.0474   -0.0001 C.ar      1 <0>        -0.1452
      5 C5          1.2062   -0.6894    0.0128 C.ar      1 <0>         0.1611
      6 C6         -0.0079   -0.0104    0.0498 C.ar      1 <0>        -0.1442
      7 N1          1.2055   -2.0811    0.0027 N.am      1 <0>        -0.5391
      8 C7          2.2335   -2.8770    0.2778 C.2       1 <0>         0.5261
      9 O1          2.0979   -4.0713    0.1149 O.2       1 <0>        -0.5005
     10 C8          3.5592   -2.3687    0.7817 C.3       1 <0>        -0.0829
     11 S1          3.9360   -0.8039   -0.0655 S.3       1 <0>        -0.0440
     12 C9          3.4785   -2.1300    2.2908 C.3       1 <0>        -0.1185
     13 C10         4.8379   -1.7398    2.8111 C.2       1 <0>         0.5313
     14 O2          5.7788   -1.6604    2.0498 O.2       1 <0>        -0.4979
     15 N2          5.0083   -1.4790    4.1224 N.am      1 <0>        -0.5962
     16 O3          6.2856   -1.1123    4.6112 O.3       1 <0>        -0.3131
     17 C11        -0.0576   -2.7355   -0.3473 C.3       1 <0>         0.0904
     18 C12        -0.8354   -3.0592    0.9299 C.3       1 <0>        -0.1300
     19 C13        -2.1545   -3.7426    0.5643 C.3       1 <0>        -0.0833
     20 C14        -3.0385   -2.7635   -0.2108 C.3       1 <0>        -0.1184
     21 C15        -4.3577   -3.4470   -0.5763 C.3       1 <0>        -0.1205
     22 C16        -5.0777   -3.8825    0.7015 C.3       1 <0>        -0.1206
     23 C17        -4.1937   -4.8616    1.4765 C.3       1 <0>        -0.1207
     24 C18        -2.8745   -4.1781    1.8421 C.3       1 <0>        -0.1125
     25 H1         -0.9801    1.8879    0.1162 H         1 <0>         0.1326
     26 H2          1.1182    3.1722    0.1050 H         1 <0>         0.1337
     27 H3          3.2816    1.9936    0.0265 H         1 <0>         0.1369
     28 H4         -0.9344   -0.5654    0.0536 H         1 <0>         0.1362
     29 H5          4.3383   -3.0995    0.5646 H         1 <0>         0.1609
     30 H6          2.7679   -1.3289    2.4944 H         1 <0>         0.1063
     31 H7          3.1483   -3.0431    2.7860 H         1 <0>         0.1170
     32 H8          4.2558   -1.5424    4.7312 H         1 <0>         0.4082
     33 H9          6.3092   -0.9452    5.5634 H         1 <0>         0.3892
     34 H10        -0.6502   -2.0696   -0.9746 H         1 <0>         0.0932
     35 H11         0.1493   -3.6577   -0.8903 H         1 <0>         0.0986
     36 H12        -0.2428   -3.7251    1.5572 H         1 <0>         0.0699
     37 H13        -1.0422   -2.1370    1.4729 H         1 <0>         0.0686
     38 H14        -1.9515   -4.6168   -0.0543 H         1 <0>         0.0749
     39 H15        -3.2415   -1.8893    0.4079 H         1 <0>         0.0632
     40 H16        -2.5256   -2.4532   -1.1211 H         1 <0>         0.0622
     41 H17        -4.9875   -2.7494   -1.1285 H         1 <0>         0.0620
     42 H18        -4.1547   -4.3212   -1.1950 H         1 <0>         0.0622
     43 H19        -5.2806   -3.0083    1.3201 H         1 <0>         0.0609
     44 H20        -6.0175   -4.3694    0.4410 H         1 <0>         0.0609
     45 H21        -4.7066   -5.1719    2.3869 H         1 <0>         0.0616
     46 H22        -3.9907   -5.7358    0.8579 H         1 <0>         0.0620
     47 H23        -2.2447   -4.8757    2.3943 H         1 <0>         0.0616
     48 H24        -3.0775   -3.3040    2.4607 H         1 <0>         0.0617
@<TRIPOS>BOND
     1    1    6 ar
     2    1    2 ar
     3    1   25 1
     4    2    3 ar
     5    2   26 1
     6    3    4 ar
     7    3   27 1
     8    4   11 1
     9    4    5 ar
    10    5    6 ar
    11    5    7 1
    12    6   28 1
    13    7    8 am
    14    7   17 1
    15    8    9 2
    16    8   10 1
    17   10   11 1
    18   10   12 1
    19   10   29 1
    20   12   13 1
    21   12   30 1
    22   12   31 1
    23   13   14 2
    24   13   15 am
    25   15   16 1
    26   15   32 1
    27   16   33 1
    28   17   18 1
    29   17   34 1
    30   17   35 1
    31   18   19 1
    32   18   36 1
    33   18   37 1
    34   19   24 1
    35   19   20 1
    36   19   38 1
    37   20   21 1
    38   20   39 1
    39   20   40 1
    40   21   22 1
    41   21   41 1
    42   21   42 1
    43   22   23 1
    44   22   43 1
    45   22   44 1
    46   23   24 1
    47   23   45 1
    48   23   46 1
    49   24   47 1
    50   24   48 1
@<TRIPOS>MOLECULE
CHEMBL34024
   43    45     0     0     0
SMALL
USER_CHARGES

@<TRIPOS>ATOM
      1 C1         -0.0166    1.3765    0.0096 C.ar      1 <0>        -0.0816
      2 C2          1.1657    2.0938    0.0022 C.ar      1 <0>        -0.1288
      3 C3          2.3766    1.4260   -0.0083 C.ar      1 <0>        -0.0549
      4 C4          2.4008    0.0412   -0.0145 C.ar      1 <0>        -0.1450
      5 C5          1.2131   -0.6895   -0.0146 C.ar      1 <0>         0.1643
      6 C6          0.0021   -0.0041    0.0020 C.ar      1 <0>        -0.1495
      7 N1          1.2051   -2.0808   -0.0439 N.am      1 <0>        -0.5387
      8 C7          2.2206   -2.8734   -0.3704 C.2       1 <0>         0.5306
      9 O1          2.0829   -4.0713   -0.2383 O.2       1 <0>        -0.4837
     10 C8          3.5343   -2.3571   -0.8971 C.3       1 <0>        -0.0802
     11 S1          3.9432   -0.8187   -0.0170 S.3       1 <0>        -0.0473
     12 C9          3.4123   -2.0752   -2.3959 C.3       1 <0>        -0.1157
     13 C10         4.7586   -1.6767   -2.9433 C.2       1 <0>         0.5311
     14 O2          5.7210   -1.6233   -2.2071 O.2       1 <0>        -0.4986
     15 N2          4.8933   -1.3795   -4.2510 N.am      1 <0>        -0.5965
     16 O3          6.1583   -1.0051   -4.7653 O.3       1 <0>        -0.3137
     17 C11        -0.0512   -2.7391    0.3232 C.3       1 <0>         0.0991
     18 C12        -0.9082   -2.9368   -0.9288 C.3       1 <0>         0.0738
     19 C13        -2.2700   -3.5113   -0.5298 C.3       1 <0>        -0.1497
     20 C14        -3.0993   -3.7626   -1.7929 C.3       1 <0>        -0.1207
     21 C15        -2.3225   -4.7002   -2.7223 C.3       1 <0>        -0.1576
     22 C16        -0.9587   -4.0798   -3.0366 C.3       1 <0>         0.0602
     23 O4         -0.2519   -3.8435   -1.8172 O.3       1 <0>        -0.3637
     24 H1         -0.9612    1.8998    0.0260 H         1 <0>         0.1322
     25 H2          1.1434    3.1736    0.0042 H         1 <0>         0.1334
     26 H3          3.3017    1.9833   -0.0113 H         1 <0>         0.1368
     27 H4         -0.9272   -0.5544    0.0094 H         1 <0>         0.1325
     28 H5          4.3152   -3.0973   -0.7228 H         1 <0>         0.1596
     29 H6          3.0634   -2.9724   -2.9071 H         1 <0>         0.1182
     30 H7          2.7006   -1.2654   -2.5566 H         1 <0>         0.1045
     31 H8          4.1237   -1.4222   -4.8398 H         1 <0>         0.4078
     32 H9          6.1560   -0.8110   -5.7127 H         1 <0>         0.3887
     33 H10         0.1644   -3.7084    0.7727 H         1 <0>         0.1103
     34 H11        -0.5909   -2.1187    1.0387 H         1 <0>         0.1040
     35 H12        -1.0499   -1.9779   -1.4274 H         1 <0>         0.0630
     36 H13        -2.1267   -4.4504    0.0047 H         1 <0>         0.0776
     37 H14        -2.7908   -2.8012    0.1126 H         1 <0>         0.0759
     38 H15        -4.0485   -4.2237   -1.5201 H         1 <0>         0.0709
     39 H16        -3.2848   -2.8165   -2.3015 H         1 <0>         0.0634
     40 H17        -2.1803   -5.6633   -2.2321 H         1 <0>         0.0734
     41 H18        -2.8808   -4.8405   -3.6478 H         1 <0>         0.0737
     42 H19        -0.3845   -4.7624   -3.6631 H         1 <0>         0.0940
     43 H20        -1.1012   -3.1359   -3.5628 H         1 <0>         0.0470
@<TRIPOS>BOND
     1    1    6 ar
     2    1    2 ar
     3    1   24 1
     4    2    3 ar
     5    2   25 1
     6    3    4 ar
     7    3   26 1
     8    4   11 1
     9    4    5 ar
    10    5    6 ar
    11    5    7 1
    12    6   27 1
    13    7    8 am
    14    7   17 1
    15    8    9 2
    16    8   10 1
    17   10   11 1
    18   10   12 1
    19   10   28 1
    20   12   13 1
    21   12   29 1
    22   12   30 1
    23   13   14 2
    24   13   15 am
    25   15   16 1
    26   15   31 1
    27   16   32 1
    28   17   18 1
    29   17   33 1
    30   17   34 1
    31   18   23 1
    32   18   19 1
    33   18   35 1
    34   19   20 1
    35   19   36 1
    36   19   37 1
    37   20   21 1
    38   20   38 1
    39   20   39 1
    40   21   22 1
    41   21   40 1
    42   21   41 1
    43   22   23 1
    44   22   42 1
    45   22   43 1
@<TRIPOS>MOLECULE
CHEMBL34024__1
   43    45     0     0     0
SMALL
USER_CHARGES

@<TRIPOS>ATOM
      1 C1         -0.0166    1.3765    0.0096 C.ar      1 <0>        -0.0903
      2 C2          1.1657    2.0938    0.0022 C.ar      1 <0>        -0.1255
      3 C3          2.3766    1.4260   -0.0083 C.ar      1 <0>        -0.0648
      4 C4          2.4008    0.0412   -0.0145 C.ar      1 <0>        -0.1434
      5 C5          1.2131   -0.6895   -0.0146 C.ar      1 <0>         0.1582
      6 C6          0.0021   -0.0041    0.0020 C.ar      1 <0>        -0.1169
      7 N1          1.2051   -2.0808   -0.0439 N.am      1 <0>        -0.5323
      8 C7          2.2206   -2.8734   -0.3704 C.2       1 <0>         0.5263
      9 O1          2.0829   -4.0713   -0.2383 O.2       1 <0>        -0.5077
     10 C8          3.5343   -2.3571   -0.8971 C.3       1 <0>        -0.0813
     11 S1          3.9432   -0.8187   -0.0170 S.3       1 <0>        -0.0484
     12 C9          3.4123   -2.0752   -2.3959 C.3       1 <0>        -0.1178
     13 C10         4.7586   -1.6767   -2.9433 C.2       1 <0>         0.5316
     14 O2          5.7210   -1.6233   -2.2071 O.2       1 <0>        -0.4978
     15 N2          4.8933   -1.3795   -4.2510 N.am      1 <0>        -0.5964
     16 O3          6.1583   -1.0051   -4.7653 O.3       1 <0>        -0.3133
     17 C11        -0.0512   -2.7391    0.3232 C.3       1 <0>         0.1000
     18 C12        -0.9082   -2.9368   -0.9288 C.3       1 <0>         0.0735
     19 C13        -2.2216   -3.6233   -0.5452 C.3       1 <0>        -0.1474
     20 C14        -3.0990   -3.7633   -1.7930 C.3       1 <0>        -0.1216
     21 C15        -3.3245   -2.3766   -2.4033 C.3       1 <0>        -0.1566
     22 C16        -1.9684   -1.7382   -2.7151 C.3       1 <0>         0.0582
     23 O4         -1.1909   -1.6661   -1.5183 O.3       1 <0>        -0.3679
     24 H1         -0.9612    1.8998    0.0260 H         1 <0>         0.1293
     25 H2          1.1434    3.1736    0.0042 H         1 <0>         0.1306
     26 H3          3.3017    1.9833   -0.0113 H         1 <0>         0.1341
     27 H4         -0.9272   -0.5544    0.0094 H         1 <0>         0.1533
     28 H5          4.3152   -3.0973   -0.7228 H         1 <0>         0.1600
     29 H6          3.0634   -2.9724   -2.9071 H         1 <0>         0.1150
     30 H7          2.7006   -1.2654   -2.5566 H         1 <0>         0.1074
     31 H8          4.1237   -1.4222   -4.8398 H         1 <0>         0.4079
     32 H9          6.1560   -0.8110   -5.7127 H         1 <0>         0.3889
     33 H10         0.1644   -3.7084    0.7727 H         1 <0>         0.1152
     34 H11        -0.5909   -2.1187    1.0387 H         1 <0>         0.0983
     35 H12        -0.3688   -3.5575   -1.6442 H         1 <0>         0.0643
     36 H13        -2.0103   -4.6112   -0.1358 H         1 <0>         0.0780
     37 H14        -2.7423   -3.0228    0.2007 H         1 <0>         0.0759
     38 H15        -2.6000   -4.4047   -2.5195 H         1 <0>         0.0635
     39 H16        -4.0585   -4.2006   -1.5170 H         1 <0>         0.0708
     40 H17        -3.9018   -2.4728   -3.3228 H         1 <0>         0.0735
     41 H18        -3.8674   -1.7508   -1.6950 H         1 <0>         0.0728
     42 H19        -1.4431   -2.3433   -3.4540 H         1 <0>         0.0478
     43 H20        -2.1217   -0.7339   -3.1101 H         1 <0>         0.0950
@<TRIPOS>BOND
     1    1    6 ar
     2    1    2 ar
     3    1   24 1
     4    2    3 ar
     5    2   25 1
     6    3    4 ar
     7    3   26 1
     8    4   11 1
     9    4    5 ar
    10    5    6 ar
    11    5    7 1
    12    6   27 1
    13    7    8 am
    14    7   17 1
    15    8    9 2
    16    8   10 1
    17   10   11 1
    18   10   12 1
    19   10   28 1
    20   12   13 1
    21   12   29 1
    22   12   30 1
    23   13   14 2
    24   13   15 am
    25   15   16 1
    26   15   31 1
    27   16   32 1
    28   17   18 1
    29   17   33 1
    30   17   34 1
    31   18   23 1
    32   18   19 1
    33   18   35 1
    34   19   20 1
    35   19   36 1
    36   19   37 1
    37   20   21 1
    38   20   38 1
    39   20   39 1
    40   21   22 1
    41   21   40 1
    42   21   41 1
    43   22   23 1
    44   22   42 1
    45   22   43 1
@<TRIPOS>MOLECULE
CHEMBL34024__2
   43    45     0     0     0
SMALL
USER_CHARGES

@<TRIPOS>ATOM
      1 C1          0.0002    1.3818   -0.0612 C.ar      1 <0>        -0.0814
      2 C2          1.1861    2.0933   -0.0704 C.ar      1 <0>        -0.1290
      3 C3          2.3937    1.4196   -0.0677 C.ar      1 <0>        -0.0556
      4 C4          2.4112    0.0348   -0.0527 C.ar      1 <0>        -0.1446
      5 C5          1.2200   -0.6900   -0.0358 C.ar      1 <0>         0.1644
      6 C6          0.0123    0.0013   -0.0447 C.ar      1 <0>        -0.1502
      7 N1          1.2055   -2.0811    0.0027 N.am      1 <0>        -0.5378
      8 C7          2.2204   -2.8765    0.3242 C.2       1 <0>         0.5272
      9 O1          2.0758   -4.0745    0.2006 O.2       1 <0>        -0.4825
     10 C8          3.5419   -2.3633    0.8342 C.3       1 <0>        -0.0806
     11 S1          3.9494   -0.8327   -0.0601 S.3       1 <0>        -0.0446
     12 C9          3.4365   -2.0710    2.3323 C.3       1 <0>        -0.1190
     13 C10         4.7902   -1.6756    2.8635 C.2       1 <0>         0.5312
     14 O2          5.7452   -1.6318    2.1172 O.2       1 <0>        -0.4979
     15 N2          4.9395   -1.3706    4.1677 N.am      1 <0>        -0.5965
     16 O3          6.2115   -0.9990    4.6668 O.3       1 <0>        -0.3136
     17 C11        -0.0576   -2.7355   -0.3473 C.3       1 <0>         0.0976
     18 C12        -0.1593   -2.8674   -1.8682 C.3       1 <0>         0.0767
     19 C13        -1.5302   -3.4379   -2.2407 C.3       1 <0>        -0.1483
     20 C14        -1.6019   -3.6233   -3.7595 C.3       1 <0>        -0.1207
     21 C15        -0.4530   -4.5324   -4.2066 C.3       1 <0>        -0.1571
     22 C16         0.8764   -3.9196   -3.7582 C.3       1 <0>         0.0605
     23 O4          0.8647   -3.7455   -2.3399 O.3       1 <0>        -0.3608
     24 H1         -0.9419    1.9098   -0.0624 H         1 <0>         0.1324
     25 H2          1.1690    3.1732   -0.0799 H         1 <0>         0.1332
     26 H3          3.3215    1.9723   -0.0777 H         1 <0>         0.1365
     27 H4         -0.9197   -0.5445   -0.0385 H         1 <0>         0.1343
     28 H5          4.3173   -3.1085    0.6570 H         1 <0>         0.1598
     29 H6          2.7304   -1.2567    2.4948 H         1 <0>         0.1060
     30 H7          3.0883   -2.9631    2.8529 H         1 <0>         0.1173
     31 H8          4.1757   -1.4056    4.7645 H         1 <0>         0.4081
     32 H9          6.2197   -0.7988    5.6128 H         1 <0>         0.3889
     33 H10        -0.0916   -3.7260    0.1064 H         1 <0>         0.1095
     34 H11        -0.8910   -2.1379    0.0221 H         1 <0>         0.1039
     35 H12        -0.0367   -1.8864   -2.3272 H         1 <0>         0.0609
     36 H13        -1.6698   -4.4008   -1.7492 H         1 <0>         0.0761
     37 H14        -2.3110   -2.7480   -1.9207 H         1 <0>         0.0746
     38 H15        -2.5543   -4.0814   -4.0264 H         1 <0>         0.0702
     39 H16        -1.5119   -2.6540   -4.2498 H         1 <0>         0.0634
     40 H17        -0.5708   -5.5173   -3.7549 H         1 <0>         0.0726
     41 H18        -0.4634   -4.6251   -5.2926 H         1 <0>         0.0735
     42 H19         1.6949   -4.5836   -4.0363 H         1 <0>         0.0943
     43 H20         1.0123   -2.9524   -4.2421 H         1 <0>         0.0473
@<TRIPOS>BOND
     1    1    6 ar
     2    1    2 ar
     3    1   24 1
     4    2    3 ar
     5    2   25 1
     6    3    4 ar
     7    3   26 1
     8    4   11 1
     9    4    5 ar
    10    5    6 ar
    11    5    7 1
    12    6   27 1
    13    7    8 am
    14    7   17 1
    15    8    9 2
    16    8   10 1
    17   10   11 1
    18   10   12 1
    19   10   28 1
    20   12   13 1
    21   12   29 1
    22   12   30 1
    23   13   14 2
    24   13   15 am
    25   15   16 1
    26   15   31 1
    27   16   32 1
    28   17   18 1
    29   17   33 1
    30   17   34 1
    31   18   23 1
    32   18   19 1
    33   18   35 1
    34   19   20 1
    35   19   36 1
    36   19   37 1
    37   20   21 1
    38   20   38 1
    39   20   39 1
    40   21   22 1
    41   21   40 1
    42   21   41 1
    43   22   23 1
    44   22   42 1
    45   22   43 1
@<TRIPOS>MOLECULE
CHEMBL34024__3
   43    45     0     0     0
SMALL
USER_CHARGES

@<TRIPOS>ATOM
      1 C1         -0.0811    1.3390    0.3123 C.ar      1 <0>        -0.0816
      2 C2          1.0862    2.0807    0.3138 C.ar      1 <0>        -0.1290
      3 C3          2.3077    1.4429    0.1990 C.ar      1 <0>        -0.0549
      4 C4          2.3580    0.0633    0.0862 C.ar      1 <0>        -0.1451
      5 C5          1.1860   -0.6924    0.0913 C.ar      1 <0>         0.1649
      6 C6         -0.0364   -0.0365    0.2015 C.ar      1 <0>        -0.1497
      7 N1          1.2055   -2.0811    0.0027 N.am      1 <0>        -0.5376
      8 C7          2.2528   -2.8742    0.2028 C.2       1 <0>         0.5321
      9 O1          2.1302   -4.0596   -0.0234 O.2       1 <0>        -0.4850
     10 C8          3.5853   -2.3732    0.6963 C.3       1 <0>        -0.0800
     11 S1          3.9136   -0.7574   -0.0716 S.3       1 <0>        -0.0476
     12 C9          3.5457   -2.2208    2.2182 C.3       1 <0>        -0.1153
     13 C10         4.9140   -1.8381    2.7204 C.2       1 <0>         0.5310
     14 O2          5.8306   -1.7008    1.9382 O.2       1 <0>        -0.4988
     15 N2          5.1192   -1.6484    4.0389 N.am      1 <0>        -0.5966
     16 O3          6.4049   -1.2888    4.5109 O.3       1 <0>        -0.3138
     17 C11        -0.0576   -2.7355   -0.3473 C.3       1 <0>         0.0993
     18 C12        -0.8354   -3.0592    0.9299 C.3       1 <0>         0.0742
     19 C13        -2.1547   -3.7444    0.5644 C.3       1 <0>        -0.1496
     20 C14        -2.8995   -4.1192    1.8494 C.3       1 <0>        -0.1206
     21 C15        -1.9982   -5.0131    2.7066 C.3       1 <0>        -0.1575
     22 C16        -0.6849   -4.2789    2.9893 C.3       1 <0>         0.0605
     23 O4         -0.0587   -3.9322    1.7525 O.3       1 <0>        -0.3644
     24 H1         -1.0342    1.8389    0.4029 H         1 <0>         0.1321
     25 H2          1.0437    3.1561    0.4041 H         1 <0>         0.1334
     26 H3          3.2209    2.0194    0.1971 H         1 <0>         0.1368
     27 H4         -0.9541   -0.6059    0.2006 H         1 <0>         0.1324
     28 H5          4.3682   -3.0778    0.4160 H         1 <0>         0.1593
     29 H6          2.8296   -1.4442    2.4870 H         1 <0>         0.1045
     30 H7          3.2438   -3.1656    2.6702 H         1 <0>         0.1183
     31 H8          4.3861   -1.7582    4.6646 H         1 <0>         0.4078
     32 H9          6.4542   -1.1749    5.4699 H         1 <0>         0.3886
     33 H10        -0.6502   -2.0696   -0.9746 H         1 <0>         0.1037
     34 H11         0.1493   -3.6577   -0.8903 H         1 <0>         0.1095
     35 H12        -1.0427   -2.1370    1.4728 H         1 <0>         0.0630
     36 H13        -2.7674   -3.0633   -0.0263 H         1 <0>         0.0760
     37 H14        -1.9493   -4.6454   -0.0136 H         1 <0>         0.0775
     38 H15        -3.1487   -3.2143    2.4035 H         1 <0>         0.0634
     39 H16        -3.8133   -4.6573    1.5974 H         1 <0>         0.0709
     40 H17        -2.4989   -5.2395    3.6479 H         1 <0>         0.0736
     41 H18        -1.7896   -5.9398    2.1719 H         1 <0>         0.0733
     42 H19        -0.8904   -3.3728    3.5593 H         1 <0>         0.0472
     43 H20        -0.0223   -4.9270    3.5631 H         1 <0>         0.0937
@<TRIPOS>BOND
     1    1    6 ar
     2    1    2 ar
     3    1   24 1
     4    2    3 ar
     5    2   25 1
     6    3    4 ar
     7    3   26 1
     8    4   11 1
     9    4    5 ar
    10    5    6 ar
    11    5    7 1
    12    6   27 1
    13    7    8 am
    14    7   17 1
    15    8    9 2
    16    8   10 1
    17   10   11 1
    18   10   12 1
    19   10   28 1
    20   12   13 1
    21   12   29 1
    22   12   30 1
    23   13   14 2
    24   13   15 am
    25   15   16 1
    26   15   31 1
    27   16   32 1
    28   17   18 1
    29   17   33 1
    30   17   34 1
    31   18   23 1
    32   18   19 1
    33   18   35 1
    34   19   20 1
    35   19   36 1
    36   19   37 1
    37   20   21 1
    38   20   38 1
    39   20   39 1
    40   21   22 1
    41   21   40 1
    42   21   41 1
    43   22   23 1
    44   22   42 1
    45   22   43 1
@<TRIPOS>MOLECULE
CHEMBL160493
   69    70     0     0     0
SMALL
USER_CHARGES

@<TRIPOS>ATOM
      1 C1          1.1074   -1.9547   -3.1629 C.3       1 <0>        -0.1522
      2 C2          0.1127   -1.4823   -2.1006 C.3       1 <0>        -0.1223
      3 C3         -1.0914   -2.4258   -2.0739 C.3       1 <0>        -0.1233
      4 C4         -2.0860   -1.9535   -1.0117 C.3       1 <0>        -0.0971
      5 C5         -3.3468   -2.8181   -1.0732 C.3       1 <0>        -0.1312
      6 H1         -3.7321   -2.8267   -2.0928 H         1 <0>         0.1038
      7 C6         -4.4068   -2.2418   -0.1323 C.3       1 <0>         0.1427
      8 N1         -4.7937   -0.9058   -0.5923 N.am      1 <0>        -0.4744
      9 C7         -5.5796   -0.7685   -1.6785 C.2       1 <0>         0.4787
     10 O1         -5.8999    0.3375   -2.0594 O.2       1 <0>        -0.5463
     11 O2         -4.3420    0.2413    0.1043 O.3       1 <0>        -0.3310
     12 C8         -3.0119   -4.2254   -0.6508 C.2       1 <0>         0.5249
     13 O3         -1.8767   -4.5089   -0.3320 O.2       1 <0>        -0.5081
     14 N2         -3.9741   -5.1689   -0.6274 N.am      1 <0>        -0.7148
     15 C9         -3.6485   -6.5370   -0.2168 C.3       1 <0>         0.1164
     16 H2         -2.6434   -6.7885   -0.5553 H         1 <0>         0.1122
     17 C10        -4.6388   -7.4941   -0.8286 C.2       1 <0>         0.3982
     18 O4         -5.5081   -7.9886   -0.1420 O.2       1 <0>        -0.4361
     19 C11        -4.5514   -7.8281   -2.2549 C.ar      1 <0>        -0.2415
     20 C12        -3.4837   -7.3481   -3.0248 C.ar      1 <0>        -0.0112
     21 C13        -3.4060   -7.6616   -4.3515 C.ar      1 <0>        -0.2153
     22 C14        -4.3865   -8.4575   -4.9398 C.ar      1 <0>         0.2605
     23 C15        -5.4498   -8.9370   -4.1780 C.ar      1 <0>        -0.2172
     24 C16        -5.5324   -8.6327   -2.8495 C.ar      1 <0>        -0.0010
     25 N3         -4.3038   -8.7736   -6.2897 N.pl3     1 <0>        -0.6200
     26 C17        -3.1255   -8.3946   -7.0856 C.3       1 <0>         0.0803
     27 C18        -2.6292   -9.6359   -7.8358 C.3       1 <0>         0.0453
     28 O5         -3.7194  -10.2193   -8.5536 O.3       1 <0>        -0.3772
     29 C19        -4.7849  -10.6854   -7.7222 C.3       1 <0>         0.0451
     30 C20        -5.3891   -9.5028   -6.9648 C.3       1 <0>         0.0793
     31 C21        -3.7140   -6.6410    1.3083 C.3       1 <0>        -0.0671
     32 C22        -5.0864   -6.1695    1.7931 C.3       1 <0>        -0.1503
     33 C23        -3.4961   -8.0955    1.7300 C.3       1 <0>        -0.1524
     34 C24        -2.6250   -5.7621    1.9266 C.3       1 <0>        -0.1332
     35 H3          1.9652   -1.2824   -3.1819 H         1 <0>         0.0525
     36 H4          1.4420   -2.9641   -2.9240 H         1 <0>         0.0538
     37 H5          0.6235   -1.9539   -4.1396 H         1 <0>         0.0512
     38 H6          0.5966   -1.4830   -1.1239 H         1 <0>         0.0613
     39 H7         -0.2219   -0.4728   -2.3396 H         1 <0>         0.0570
     40 H8         -1.5753   -2.4251   -3.0506 H         1 <0>         0.0530
     41 H9         -0.7567   -3.4353   -1.8350 H         1 <0>         0.0803
     42 H10        -1.6326   -2.0419   -0.0244 H         1 <0>         0.0743
     43 H11        -2.3499   -0.9125   -1.1983 H         1 <0>         0.0732
     44 H12        -5.2815   -2.8922   -0.1285 H         1 <0>         0.0946
     45 H13        -3.9994   -2.1749    0.8765 H         1 <0>         0.1053
     46 H14        -5.9242   -1.6434   -2.2098 H         1 <0>         0.1521
     47 H15        -4.6486    1.0770   -0.2734 H         1 <0>         0.3983
     48 H16        -4.8821   -4.9421   -0.8823 H         1 <0>         0.4017
     49 H17        -2.7234   -6.7307   -2.5696 H         1 <0>         0.1283
     50 H18        -2.5836   -7.2917   -4.9457 H         1 <0>         0.1284
     51 H19        -6.2079   -9.5534   -4.6381 H         1 <0>         0.1292
     52 H20        -6.3547   -9.0084   -2.2587 H         1 <0>         0.1333
     53 H21        -3.3995   -7.6188   -7.8005 H         1 <0>         0.0769
     54 H22        -2.3401   -8.0259   -6.4260 H         1 <0>         0.0963
     55 H23        -1.8446   -9.3488   -8.5358 H         1 <0>         0.1086
     56 H24        -2.2347  -10.3592   -7.1221 H         1 <0>         0.0577
     57 H25        -5.5511  -11.1532   -8.3404 H         1 <0>         0.1087
     58 H26        -4.3982  -11.4124   -7.0080 H         1 <0>         0.0573
     59 H27        -6.1019   -9.8675   -6.2252 H         1 <0>         0.0971
     60 H28        -5.8949   -8.8403   -7.6673 H         1 <0>         0.0771
     61 H29        -5.8486   -6.8799    1.4730 H         1 <0>         0.0800
     62 H30        -5.0846   -6.1042    2.8812 H         1 <0>         0.0528
     63 H31        -5.3037   -5.1885    1.3707 H         1 <0>         0.0471
     64 H32        -2.4867   -8.4050    1.4594 H         1 <0>         0.0523
     65 H33        -3.6265   -8.1845    2.8086 H         1 <0>         0.0601
     66 H34        -4.2200   -8.7333    1.2227 H         1 <0>         0.0703
     67 H35        -2.7802   -4.7259    1.6261 H         1 <0>         0.0560
     68 H36        -2.6716   -5.8362    3.0131 H         1 <0>         0.0498
     69 H37        -1.6473   -6.0980    1.5812 H         1 <0>         0.0602
@<TRIPOS>BOND
     1    1    2 1
     2    1   35 1
     3    1   36 1
     4    1   37 1
     5    2    3 1
     6    2   38 1
     7    2   39 1
     8    3    4 1
     9    3   40 1
    10    3   41 1
    11    4    5 1
    12    4   42 1
    13    4   43 1
    14    5    6 1
    15    5    7 1
    16    5   12 1
    17    7    8 1
    18    7   44 1
    19    7   45 1
    20    8    9 am
    21    8   11 1
    22    9   10 2
    23    9   46 1
    24   11   47 1
    25   12   13 2
    26   12   14 am
    27   14   15 1
    28   14   48 1
    29   15   16 1
    30   15   17 1
    31   15   31 1
    32   17   18 2
    33   17   19 1
    34   19   24 ar
    35   19   20 ar
    36   20   21 ar
    37   20   49 1
    38   21   22 ar
    39   21   50 1
    40   22   23 ar
    41   22   25 1
    42   23   24 ar
    43   23   51 1
    44   24   52 1
    45   25   30 1
    46   25   26 1
    47   26   27 1
    48   26   53 1
    49   26   54 1
    50   27   28 1
    51   27   55 1
    52   27   56 1
    53   28   29 1
    54   29   30 1
    55   29   57 1
    56   29   58 1
    57   30   59 1
    58   30   60 1
    59   31   32 1
    60   31   33 1
    61   31   34 1
    62   32   61 1
    63   32   62 1
    64   32   63 1
    65   33   64 1
    66   33   65 1
    67   33   66 1
    68   34   67 1
    69   34   68 1
    70   34   69 1
@<TRIPOS>MOLECULE
CHEMBL284794
   29    30     0     0     0
SMALL
USER_CHARGES

@<TRIPOS>ATOM
      1 C1         -0.0166    1.3718    0.0096 C.ar      1 <0>        -0.1319
      2 C2          1.1732    2.0797    0.0020 C.ar      1 <0>        -0.0890
      3 C3          2.3764    1.4087   -0.0121 C.ar      1 <0>        -0.1477
      4 C4          2.4154    0.0127   -0.0193 C.ar      1 <0>         0.1610
      5 C5          1.2199   -0.7014   -0.0132 C.ar      1 <0>        -0.0841
      6 C6          0.0021   -0.0041    0.0020 C.ar      1 <0>        -0.0835
      7 C7          1.1581   -2.1701   -0.0225 C.2       1 <0>        -0.1038
      8 C8          1.9428   -2.9432   -0.7300 C.2       1 <0>        -0.1381
      9 C9          3.0215   -2.3757   -1.6131 C.3       1 <0>        -0.0608
     10 C10         4.0160   -1.6479   -0.7487 C.2       1 <0>         0.5333
     11 O1          5.1625   -2.0413   -0.7059 O.2       1 <0>        -0.5056
     12 N1          3.6681   -0.5834   -0.0307 N.am      1 <0>        -0.6653
     13 C11         2.4032   -1.4007   -2.6171 C.3       1 <0>        -0.1313
     14 C12         3.4642   -0.9284   -3.5775 C.2       1 <0>         0.5157
     15 O2          4.6028   -1.3320   -3.4695 O.2       1 <0>        -0.5011
     16 N2          3.1478   -0.0577   -4.5563 N.am      1 <0>        -0.5973
     17 O3          4.1448    0.3861   -5.4586 O.3       1 <0>        -0.3163
     18 H1         -0.9589    1.8993    0.0259 H         1 <0>         0.1304
     19 H2          1.1581    3.1596    0.0069 H         1 <0>         0.1307
     20 H3          3.2999    1.9687   -0.0180 H         1 <0>         0.1299
     21 H4         -0.9285   -0.5521    0.0078 H         1 <0>         0.1328
     22 H5          0.4129   -2.6449    0.5985 H         1 <0>         0.1291
     23 H6          1.8133   -4.0142   -0.6784 H         1 <0>         0.1358
     24 H7          3.5220   -3.1846   -2.1453 H         1 <0>         0.1262
     25 H8          4.3505   -0.1893    0.5349 H         1 <0>         0.4087
     26 H9          1.6100   -1.9034   -3.1705 H         1 <0>         0.1157
     27 H10         1.9884   -0.5449   -2.0844 H         1 <0>         0.1110
     28 H11         2.2372    0.2651   -4.6426 H         1 <0>         0.4076
     29 H12         3.8232    1.0085   -6.1251 H         1 <0>         0.3879
@<TRIPOS>BOND
     1    1    6 ar
     2    1    2 ar
     3    1   18 1
     4    2    3 ar
     5    2   19 1
     6    3    4 ar
     7    3   20 1
     8    4   12 1
     9    4    5 ar
    10    5    6 ar
    11    5    7 1
    12    6   21 1
    13    7    8 2
    14    7   22 1
    15    8    9 1
    16    8   23 1
    17    9   10 1
    18    9   13 1
    19    9   24 1
    20   10   11 2
    21   10   12 am
    22   12   25 1
    23   13   14 1
    24   13   26 1
    25   13   27 1
    26   14   15 2
    27   14   16 am
    28   16   17 1
    29   16   28 1
    30   17   29 1
@<TRIPOS>MOLECULE
CHEMBL284794__1
   28    29     0     0     0
SMALL
USER_CHARGES

@<TRIPOS>ATOM
      1 C1         -0.0166    1.3721    0.0096 C.ar      1 <0>        -0.2024
      2 C2          1.1719    2.0838    0.0021 C.ar      1 <0>        -0.0953
      3 C3          2.3767    1.4189   -0.0089 C.ar      1 <0>        -0.1688
      4 C4          2.4194    0.0163   -0.0136 C.ar      1 <0>         0.2380
      5 C5          1.2186   -0.7016   -0.0139 C.ar      1 <0>        -0.1734
      6 C6          0.0021   -0.0041    0.0020 C.ar      1 <0>        -0.0771
      7 C7          1.1580   -2.1697   -0.0373 C.2       1 <0>        -0.0999
      8 C8          1.9609   -2.9255   -0.7503 C.2       1 <0>        -0.1491
      9 C9          3.0476   -2.3210   -1.5996 C.3       1 <0>        -0.0772
     10 C10         4.0023   -1.5871   -0.6985 C.2       1 <0>         0.4757
     11 O1          5.2761   -2.0207   -0.6094 O.3       1 <0>        -0.6801
     12 N1          3.6490   -0.5654   -0.0141 N.2       1 <0>        -0.6837
     13 C11         2.4330   -1.3440   -2.6039 C.3       1 <0>        -0.1188
     14 C12         3.5065   -0.8350   -3.5311 C.2       1 <0>         0.5156
     15 O2          4.6505   -1.2163   -3.4014 O.2       1 <0>        -0.4851
     16 N2          3.1953    0.0437   -4.5044 N.am      1 <0>        -0.6056
     17 O3          4.2040    0.5219   -5.3755 O.3       1 <0>        -0.3238
     18 H1         -0.9596    1.8982    0.0259 H         1 <0>         0.1042
     19 H2          1.1529    3.1636    0.0044 H         1 <0>         0.1058
     20 H3          3.2982    1.9821   -0.0142 H         1 <0>         0.1119
     21 H4         -0.9287   -0.5518    0.0080 H         1 <0>         0.1041
     22 H5          0.4081   -2.6564    0.5687 H         1 <0>         0.1030
     23 H6          1.8402   -3.9985   -0.7269 H         1 <0>         0.1110
     24 H7          3.5787   -3.1099   -2.1323 H         1 <0>         0.0894
     25 H8          1.6642   -1.8547   -3.1838 H         1 <0>         0.0915
     26 H9          1.9875   -0.5053   -2.0689 H         1 <0>         0.1104
     27 H10         2.2803    0.3486   -4.6081 H         1 <0>         0.4022
     28 H11         3.8853    1.1476   -6.0404 H         1 <0>         0.3775
@<TRIPOS>BOND
     1    1    6 ar
     2    1    2 ar
     3    1   18 1
     4    2    3 ar
     5    2   19 1
     6    3    4 ar
     7    3   20 1
     8    4   12 1
     9    4    5 ar
    10    5    6 ar
    11    5    7 1
    12    6   21 1
    13    7    8 2
    14    7   22 1
    15    8    9 1
    16    8   23 1
    17    9   10 1
    18    9   13 1
    19    9   24 1
    20   10   11 1
    21   10   12 2
    22   13   14 1
    23   13   25 1
    24   13   26 1
    25   14   15 2
    26   14   16 am
    27   16   17 1
    28   16   27 1
    29   17   28 1
@<TRIPOS>MOLECULE
CHEMBL284794__2
   29    30     0     0     0
SMALL
USER_CHARGES

@<TRIPOS>ATOM
      1 C1         -0.0166    1.3718    0.0096 C.ar      1 <0>        -0.1319
      2 C2          1.1732    2.0797    0.0020 C.ar      1 <0>        -0.0890
      3 C3          2.3764    1.4087   -0.0140 C.ar      1 <0>        -0.1477
      4 C4          2.4154    0.0127   -0.0226 C.ar      1 <0>         0.1611
      5 C5          1.2199   -0.7014   -0.0135 C.ar      1 <0>        -0.0841
      6 C6          0.0021   -0.0041    0.0020 C.ar      1 <0>        -0.0835
      7 C7          1.1581   -2.1701   -0.0189 C.2       1 <0>        -0.1037
      8 C8          1.9562   -2.9507    0.6652 C.2       1 <0>        -0.1382
      9 C9          3.0509   -2.3925    1.5344 C.3       1 <0>        -0.0608
     10 C10         4.0295   -1.6556    0.6596 C.2       1 <0>         0.5334
     11 O1          5.1748   -2.0489    0.5911 O.2       1 <0>        -0.5054
     12 N1          3.6680   -0.5834   -0.0415 N.am      1 <0>        -0.6656
     13 C11         2.4513   -1.4283    2.5599 C.3       1 <0>        -0.1313
     14 C12         3.5298   -0.9663    3.5056 C.2       1 <0>         0.5157
     15 O2          4.6662   -1.3686    3.3725 O.2       1 <0>        -0.5012
     16 N2          3.2316   -0.1060    4.4993 N.am      1 <0>        -0.5973
     17 O3          4.2450    0.3281    5.3879 O.3       1 <0>        -0.3163
     18 H1         -0.9589    1.8993    0.0259 H         1 <0>         0.1304
     19 H2          1.1581    3.1596    0.0084 H         1 <0>         0.1307
     20 H3          3.2998    1.9687   -0.0204 H         1 <0>         0.1298
     21 H4         -0.9285   -0.5521    0.0081 H         1 <0>         0.1328
     22 H5          0.4007   -2.6383   -0.6300 H         1 <0>         0.1291
     23 H6          1.8256   -4.0211    0.6046 H         1 <0>         0.1358
     24 H7          3.5610   -3.2070    2.0487 H         1 <0>         0.1262
     25 H8          4.3393   -0.1835   -0.6163 H         1 <0>         0.4087
     26 H9          2.0269   -0.5670    2.0440 H         1 <0>         0.1110
     27 H10         1.6683   -1.9369    3.1224 H         1 <0>         0.1158
     28 H11         2.3227    0.2158    4.6058 H         1 <0>         0.4076
     29 H12         3.9357    0.9435    6.0667 H         1 <0>         0.3879
@<TRIPOS>BOND
     1    1    6 ar
     2    1    2 ar
     3    1   18 1
     4    2    3 ar
     5    2   19 1
     6    3    4 ar
     7    3   20 1
     8    4   12 1
     9    4    5 ar
    10    5    6 ar
    11    5    7 1
    12    6   21 1
    13    7    8 2
    14    7   22 1
    15    8    9 1
    16    8   23 1
    17    9   10 1
    18    9   13 1
    19    9   24 1
    20   10   11 2
    21   10   12 am
    22   12   25 1
    23   13   14 1
    24   13   26 1
    25   13   27 1
    26   14   15 2
    27   14   16 am
    28   16   17 1
    29   16   28 1
    30   17   29 1
@<TRIPOS>MOLECULE
CHEMBL284794__3
   28    29     0     0     0
SMALL
USER_CHARGES

@<TRIPOS>ATOM
      1 C1         -0.0166    1.3721    0.0096 C.ar      1 <0>        -0.2024
      2 C2          1.1719    2.0838    0.0021 C.ar      1 <0>        -0.0953
      3 C3          2.3766    1.4190   -0.0180 C.ar      1 <0>        -0.1688
      4 C4          2.4193    0.0164   -0.0299 C.ar      1 <0>         0.2380
      5 C5          1.2187   -0.7016   -0.0135 C.ar      1 <0>        -0.1736
      6 C6          0.0021   -0.0041    0.0020 C.ar      1 <0>        -0.0771
      7 C7          1.1583   -2.1699   -0.0055 C.2       1 <0>        -0.0998
      8 C8          1.9752   -2.9336    0.6829 C.2       1 <0>        -0.1492
      9 C9          3.0782   -2.3386    1.5176 C.3       1 <0>        -0.0769
     10 C10         4.0156   -1.5950    0.6063 C.2       1 <0>         0.4756
     11 O1          5.2871   -2.0283    0.4873 O.3       1 <0>        -0.6797
     12 N1          3.6486   -0.5652   -0.0609 N.2       1 <0>        -0.6839
     13 C11         2.4834   -1.3725    2.5442 C.3       1 <0>        -0.1189
     14 C12         3.5748   -0.8739    3.4560 C.2       1 <0>         0.5156
     15 O2          4.7160   -1.2538    3.3001 O.2       1 <0>        -0.4852
     16 N2          3.2827   -0.0059    4.4447 N.am      1 <0>        -0.6056
     17 O3          4.3082    0.4626    5.3015 O.3       1 <0>        -0.3238
     18 H1         -0.9596    1.8982    0.0259 H         1 <0>         0.1041
     19 H2          1.1530    3.1635    0.0116 H         1 <0>         0.1057
     20 H3          3.2981    1.9822   -0.0249 H         1 <0>         0.1119
     21 H4         -0.9287   -0.5518    0.0079 H         1 <0>         0.1041
     22 H5          0.3960   -2.6498   -0.6014 H         1 <0>         0.1030
     23 H6          1.8536   -4.0062    0.6501 H         1 <0>         0.1110
     24 H7          3.6192   -3.1333    2.0313 H         1 <0>         0.0894
     25 H8          2.0279   -0.5280    2.0271 H         1 <0>         0.1105
     26 H9          1.7258   -1.8895    3.1332 H         1 <0>         0.0915
     27 H10         2.3700    0.2980    4.5695 H         1 <0>         0.4022
     28 H11         4.0026    1.0810    5.9792 H         1 <0>         0.3775
@<TRIPOS>BOND
     1    1    6 ar
     2    1    2 ar
     3    1   18 1
     4    2    3 ar
     5    2   19 1
     6    3    4 ar
     7    3   20 1
     8    4   12 1
     9    4    5 ar
    10    5    6 ar
    11    5    7 1
    12    6   21 1
    13    7    8 2
    14    7   22 1
    15    8    9 1
    16    8   23 1
    17    9   10 1
    18    9   13 1
    19    9   24 1
    20   10   11 1
    21   10   12 2
    22   13   14 1
    23   13   25 1
    24   13   26 1
    25   14   15 2
    26   14   16 am
    27   16   17 1
    28   16   27 1
    29   17   28 1
@<TRIPOS>MOLECULE
CHEMBL33924
   45    47     0     0     0
SMALL
USER_CHARGES

@<TRIPOS>ATOM
      1 C1         -0.0166    1.3765    0.0096 C.ar      1 <0>        -0.0828
      2 C2          1.1657    2.0938    0.0022 C.ar      1 <0>        -0.1271
      3 C3          2.3766    1.4260   -0.0083 C.ar      1 <0>        -0.0565
      4 C4          2.4008    0.0412   -0.0145 C.ar      1 <0>        -0.1455
      5 C5          1.2131   -0.6895   -0.0146 C.ar      1 <0>         0.1621
      6 C6          0.0021   -0.0041    0.0020 C.ar      1 <0>        -0.1441
      7 N1          1.2051   -2.0808   -0.0439 N.am      1 <0>        -0.5373
      8 C7          2.2206   -2.8734   -0.3704 C.2       1 <0>         0.5270
      9 O1          2.0829   -4.0713   -0.2383 O.2       1 <0>        -0.4975
     10 C8          3.5343   -2.3571   -0.8971 C.3       1 <0>        -0.0831
     11 S1          3.9432   -0.8187   -0.0170 S.3       1 <0>        -0.0446
     12 C9          3.4123   -2.0752   -2.3959 C.3       1 <0>        -0.1187
     13 C10         4.7586   -1.6767   -2.9433 C.2       1 <0>         0.5314
     14 O2          5.7210   -1.6233   -2.2071 O.2       1 <0>        -0.4978
     15 N2          4.8933   -1.3795   -4.2510 N.am      1 <0>        -0.5962
     16 O3          6.1583   -1.0051   -4.7653 O.3       1 <0>        -0.3131
     17 C11        -0.0512   -2.7391    0.3232 C.3       1 <0>         0.0938
     18 C12        -0.9082   -2.9368   -0.9288 C.3       1 <0>        -0.1031
     19 C13        -0.2054   -3.9076   -1.8798 C.3       1 <0>        -0.1080
     20 C14        -1.0624   -4.1053   -3.1318 C.3       1 <0>        -0.1196
     21 C15        -2.4238   -4.6781   -2.7327 C.3       1 <0>        -0.1210
     22 C16        -3.1266   -3.7073   -1.7816 C.3       1 <0>        -0.1176
     23 C17        -2.2696   -3.5096   -0.5297 C.3       1 <0>        -0.1123
     24 H1         -0.9612    1.8998    0.0260 H         1 <0>         0.1325
     25 H2          1.1434    3.1736    0.0042 H         1 <0>         0.1335
     26 H3          3.3017    1.9833   -0.0113 H         1 <0>         0.1366
     27 H4         -0.9272   -0.5544    0.0094 H         1 <0>         0.1361
     28 H5          4.3152   -3.0973   -0.7228 H         1 <0>         0.1605
     29 H6          3.0634   -2.9724   -2.9071 H         1 <0>         0.1164
     30 H7          2.7006   -1.2654   -2.5566 H         1 <0>         0.1061
     31 H8          4.1237   -1.4222   -4.8398 H         1 <0>         0.4080
     32 H9          6.1560   -0.8110   -5.7127 H         1 <0>         0.3892
     33 H10         0.1644   -3.7084    0.7727 H         1 <0>         0.1021
     34 H11        -0.5909   -2.1187    1.0387 H         1 <0>         0.0901
     35 H12        -1.0495   -1.9779   -1.4275 H         1 <0>         0.0762
     36 H13         0.7645   -3.4995   -2.1641 H         1 <0>         0.0511
     37 H14        -0.0641   -4.8664   -1.3811 H         1 <0>         0.0717
     38 H15        -1.2037   -3.1464   -3.6305 H         1 <0>         0.0586
     39 H16        -0.5617   -4.7969   -3.8093 H         1 <0>         0.0613
     40 H17        -3.0343   -4.8189   -3.6246 H         1 <0>         0.0613
     41 H18        -2.2825   -5.6370   -2.2339 H         1 <0>         0.0627
     42 H19        -3.2679   -2.7484   -2.2803 H         1 <0>         0.0614
     43 H20        -4.0965   -4.1154   -1.4973 H         1 <0>         0.0642
     44 H21        -2.1283   -4.4684   -0.0309 H         1 <0>         0.0673
     45 H22        -2.7703   -2.8180    0.1479 H         1 <0>         0.0647
@<TRIPOS>BOND
     1    1    6 ar
     2    1    2 ar
     3    1   24 1
     4    2    3 ar
     5    2   25 1
     6    3    4 ar
     7    3   26 1
     8    4   11 1
     9    4    5 ar
    10    5    6 ar
    11    5    7 1
    12    6   27 1
    13    7    8 am
    14    7   17 1
    15    8    9 2
    16    8   10 1
    17   10   11 1
    18   10   12 1
    19   10   28 1
    20   12   13 1
    21   12   29 1
    22   12   30 1
    23   13   14 2
    24   13   15 am
    25   15   16 1
    26   15   31 1
    27   16   32 1
    28   17   18 1
    29   17   33 1
    30   17   34 1
    31   18   23 1
    32   18   19 1
    33   18   35 1
    34   19   20 1
    35   19   36 1
    36   19   37 1
    37   20   21 1
    38   20   38 1
    39   20   39 1
    40   21   22 1
    41   21   40 1
    42   21   41 1
    43   22   23 1
    44   22   42 1
    45   22   43 1
    46   23   44 1
    47   23   45 1
@<TRIPOS>MOLECULE
CHEMBL33924__1
   45    47     0     0     0
SMALL
USER_CHARGES

@<TRIPOS>ATOM
      1 C1         -0.1218    1.2947    0.5421 C.ar      1 <0>        -0.0829
      2 C2          1.0339    2.0542    0.5520 C.ar      1 <0>        -0.1271
      3 C3          2.2608    1.4440    0.3663 C.ar      1 <0>        -0.0566
      4 C4          2.3281    0.0739    0.1742 C.ar      1 <0>        -0.1455
      5 C5          1.1681   -0.7000    0.1703 C.ar      1 <0>         0.1622
      6 C6         -0.0601   -0.0715    0.3524 C.ar      1 <0>        -0.1446
      7 N1          1.2055   -2.0811    0.0027 N.am      1 <0>        -0.5371
      8 C7          2.2699   -2.8669    0.1274 C.2       1 <0>         0.5273
      9 O1          2.1582   -4.0395   -0.1618 O.2       1 <0>        -0.4985
     10 C8          3.6088   -2.3725    0.6100 C.3       1 <0>        -0.0831
     11 S1          3.8903   -0.7110   -0.0745 S.3       1 <0>        -0.0445
     12 C9          3.6121   -2.3064    2.1385 C.3       1 <0>        -0.1187
     13 C10         4.9889   -1.9300    2.6221 C.2       1 <0>         0.5314
     14 O2          5.8798   -1.7340    1.8228 O.2       1 <0>        -0.4977
     15 N2          5.2302   -1.8113    3.9428 N.am      1 <0>        -0.5962
     16 O3          6.5239   -1.4577    4.3971 O.3       1 <0>        -0.3131
     17 C11        -0.0576   -2.7355   -0.3473 C.3       1 <0>         0.0929
     18 C12        -0.8354   -3.0592    0.9299 C.3       1 <0>        -0.1045
     19 C13        -0.0595   -4.0903    1.7520 C.3       1 <0>        -0.1083
     20 C14        -0.8373   -4.4140    3.0291 C.3       1 <0>        -0.1192
     21 C15        -2.2089   -4.9831    2.6606 C.3       1 <0>        -0.1211
     22 C16        -2.9847   -3.9520    1.8385 C.3       1 <0>        -0.1177
     23 C17        -2.2069   -3.6283    0.5614 C.3       1 <0>        -0.1125
     24 H1         -1.0791    1.7730    0.6882 H         1 <0>         0.1324
     25 H2          0.9782    3.1220    0.7042 H         1 <0>         0.1334
     26 H3          3.1650    2.0346    0.3707 H         1 <0>         0.1366
     27 H4         -0.9689   -0.6550    0.3457 H         1 <0>         0.1370
     28 H5          4.3935   -3.0473    0.2678 H         1 <0>         0.1605
     29 H6          2.8929   -1.5580    2.4714 H         1 <0>         0.1061
     30 H7          3.3378   -3.2799    2.5449 H         1 <0>         0.1164
     31 H8          4.5177   -1.9681    4.5820 H         1 <0>         0.4081
     32 H9          6.5999   -1.3969    5.3592 H         1 <0>         0.3891
     33 H10        -0.6502   -2.0696   -0.9746 H         1 <0>         0.0890
     34 H11         0.1493   -3.6577   -0.8903 H         1 <0>         0.1044
     35 H12        -0.9650   -2.1498    1.5166 H         1 <0>         0.0778
     36 H13         0.0702   -4.9997    1.1652 H         1 <0>         0.0707
     37 H14         0.9176   -3.6848    2.0145 H         1 <0>         0.0506
     38 H15        -0.2846   -5.1485    3.6148 H         1 <0>         0.0614
     39 H16        -0.9670   -3.5046    3.6159 H         1 <0>         0.0591
     40 H17        -2.0792   -5.8925    2.0739 H         1 <0>         0.0627
     41 H18        -2.7629   -5.2137    3.5705 H         1 <0>         0.0615
     42 H19        -3.9618   -4.3574    1.5760 H         1 <0>         0.0644
     43 H20        -3.1144   -3.0426    2.4253 H         1 <0>         0.0615
     44 H21        -2.7597   -2.8937   -0.0243 H         1 <0>         0.0650
     45 H22        -2.0773   -4.5377   -0.0254 H         1 <0>         0.0674
@<TRIPOS>BOND
     1    1    6 ar
     2    1    2 ar
     3    1   24 1
     4    2    3 ar
     5    2   25 1
     6    3    4 ar
     7    3   26 1
     8    4   11 1
     9    4    5 ar
    10    5    6 ar
    11    5    7 1
    12    6   27 1
    13    7    8 am
    14    7   17 1
    15    8    9 2
    16    8   10 1
    17   10   11 1
    18   10   12 1
    19   10   28 1
    20   12   13 1
    21   12   29 1
    22   12   30 1
    23   13   14 2
    24   13   15 am
    25   15   16 1
    26   15   31 1
    27   16   32 1
    28   17   18 1
    29   17   33 1
    30   17   34 1
    31   18   23 1
    32   18   19 1
    33   18   35 1
    34   19   20 1
    35   19   36 1
    36   19   37 1
    37   20   21 1
    38   20   38 1
    39   20   39 1
    40   21   22 1
    41   21   40 1
    42   21   41 1
    43   22   23 1
    44   22   42 1
    45   22   43 1
    46   23   44 1
    47   23   45 1
@<TRIPOS>MOLECULE
CHEMBL156546
   63    65     0     0     0
SMALL
USER_CHARGES

@<TRIPOS>ATOM
      1 C1         -0.2376    1.3798    0.2664 C.3       1 <0>        -0.1488
      2 C2         -0.2404   -0.1480    0.1835 C.3       1 <0>        -0.0677
      3 C3          0.4196   -0.7279    1.4361 C.3       1 <0>        -0.1468
      4 C4         -1.6821   -0.6509    0.0874 C.3       1 <0>        -0.1308
      5 C5          0.5387   -0.5929   -1.0559 C.3       1 <0>         0.1158
      6 H1          0.0685   -0.1797   -1.9482 H         1 <0>         0.1226
      7 C6          1.9588   -0.0975   -0.9612 C.2       1 <0>         0.4346
      8 O1          2.8542   -0.8702   -0.6875 O.2       1 <0>        -0.4280
      9 C7          2.2490    1.2707   -1.1918 C.2       1 <0>        -0.0701
     10 C8          3.4887    1.8316   -1.1400 C.2       1 <0>        -0.0829
     11 C9          3.3288    3.2097   -1.4313 C.ar      1 <0>        -0.1544
     12 C10         4.2156    4.2881   -1.5271 C.ar      1 <0>        -0.0541
     13 C11         3.7406    5.5311   -1.8330 C.ar      1 <0>        -0.1386
     14 C12         2.3839    5.7338   -2.0492 C.ar      1 <0>        -0.0705
     15 C13         1.4932    4.6861   -1.9595 C.ar      1 <0>        -0.1152
     16 C14         1.9531    3.4114   -1.6503 C.ar      1 <0>         0.0779
     17 O2          1.3392    2.2204   -1.5028 O.3       1 <0>        -0.1618
     18 N1          0.5360   -2.0557   -1.1352 N.am      1 <0>        -0.7197
     19 C15        -0.4983   -2.6973   -1.7140 C.2       1 <0>         0.5255
     20 O3         -1.4269   -2.0637   -2.1691 O.2       1 <0>        -0.5145
     21 C16        -0.5010   -4.2021   -1.7956 C.3       1 <0>        -0.1323
     22 H2          0.3673   -4.5367   -2.3633 H         1 <0>         0.1057
     23 C17        -1.7788   -4.6727   -2.4934 C.3       1 <0>        -0.0867
     24 C18        -1.6436   -6.1515   -2.8619 C.3       1 <0>        -0.1174
     25 C19        -0.5797   -6.3260   -3.9653 C.3       1 <0>        -0.1217
     26 C20        -1.1466   -7.4524   -4.8647 C.3       1 <0>        -0.1243
     27 C21        -2.6649   -7.1466   -4.8794 C.3       1 <0>        -0.1255
     28 C22        -2.9694   -6.6732   -3.4431 C.3       1 <0>        -0.1162
     29 C23        -0.4448   -4.7896   -0.3840 C.3       1 <0>         0.1439
     30 N2         -0.2791   -6.2428   -0.4661 N.am      1 <0>        -0.4702
     31 C24         0.8957   -6.7654   -0.8701 C.2       1 <0>         0.4778
     32 O4          1.0328   -7.9685   -0.9381 O.2       1 <0>        -0.5423
     33 O5         -1.3533   -7.0985   -0.1211 O.3       1 <0>        -0.3266
     34 H3          0.7895    1.7381    0.3349 H         1 <0>         0.0596
     35 H4         -0.7078    1.7929   -0.6260 H         1 <0>         0.0679
     36 H5         -0.7926    1.6967    1.1494 H         1 <0>         0.0633
     37 H6         -0.1354   -0.4109    2.3191 H         1 <0>         0.0647
     38 H7          0.4177   -1.8163    1.3771 H         1 <0>         0.0591
     39 H8          1.4468   -0.3696    1.5046 H         1 <0>         0.0526
     40 H9         -2.1523   -0.2378   -0.8050 H         1 <0>         0.0676
     41 H10        -1.6841   -1.7393    0.0283 H         1 <0>         0.0551
     42 H11        -2.2371   -0.3340    0.9704 H         1 <0>         0.0545
     43 H12         4.4160    1.3239   -0.9194 H         1 <0>         0.1694
     44 H13         5.2718    4.1377   -1.3594 H         1 <0>         0.1331
     45 H14         4.4251    6.3632   -1.9069 H         1 <0>         0.1348
     46 H15         2.0231    6.7228   -2.2900 H         1 <0>         0.1407
     47 H16         0.4401    4.8551   -2.1289 H         1 <0>         0.1383
     48 H17         1.2787   -2.5625   -0.7713 H         1 <0>         0.4074
     49 H18        -2.6282   -4.5414   -1.8231 H         1 <0>         0.0705
     50 H19        -1.9359   -4.0857   -3.3983 H         1 <0>         0.0760
     51 H20        -1.3679   -6.7317   -1.9813 H         1 <0>         0.1033
     52 H21        -0.4661   -5.4037   -4.5350 H         1 <0>         0.0641
     53 H22         0.3737   -6.6276   -3.5316 H         1 <0>         0.0556
     54 H23        -0.7303   -7.3903   -5.8702 H         1 <0>         0.0632
     55 H24        -0.9540   -8.4313   -4.4255 H         1 <0>         0.0651
     56 H25        -2.8881   -6.3568   -5.5967 H         1 <0>         0.0633
     57 H26        -3.2332   -8.0469   -5.1129 H         1 <0>         0.0621
     58 H27        -3.3367   -7.5072   -2.8451 H         1 <0>         0.0608
     59 H28        -3.7091   -5.8729   -3.4626 H         1 <0>         0.0623
     60 H29         0.3978   -4.3577    0.1559 H         1 <0>         0.0930
     61 H30        -1.3707   -4.5586    0.1427 H         1 <0>         0.1067
     62 H31         1.7149   -6.1128   -1.1333 H         1 <0>         0.1509
     63 H32        -1.1494   -8.0399   -0.2067 H         1 <0>         0.3983
@<TRIPOS>BOND
     1    1    2 1
     2    1   34 1
     3    1   35 1
     4    1   36 1
     5    2    3 1
     6    2    4 1
     7    2    5 1
     8    3   37 1
     9    3   38 1
    10    3   39 1
    11    4   40 1
    12    4   41 1
    13    4   42 1
    14    5    6 1
    15    5    7 1
    16    5   18 1
    17    7    8 2
    18    7    9 1
    19    9   17 1
    20    9   10 2
    21   10   11 1
    22   10   43 1
    23   11   16 ar
    24   11   12 ar
    25   12   13 ar
    26   12   44 1
    27   13   14 ar
    28   13   45 1
    29   14   15 ar
    30   14   46 1
    31   15   16 ar
    32   15   47 1
    33   16   17 1
    34   18   19 am
    35   18   48 1
    36   19   20 2
    37   19   21 1
    38   21   22 1
    39   21   23 1
    40   21   29 1
    41   23   24 1
    42   23   49 1
    43   23   50 1
    44   24   28 1
    45   24   25 1
    46   24   51 1
    47   25   26 1
    48   25   52 1
    49   25   53 1
    50   26   27 1
    51   26   54 1
    52   26   55 1
    53   27   28 1
    54   27   56 1
    55   27   57 1
    56   28   58 1
    57   28   59 1
    58   29   30 1
    59   29   60 1
    60   29   61 1
    61   30   31 am
    62   30   33 1
    63   31   32 2
    64   31   62 1
    65   33   63 1
@<TRIPOS>MOLECULE
CHEMBL299946
   28    29     0     0     0
SMALL
USER_CHARGES

@<TRIPOS>ATOM
      1 C1         -0.0167    1.3784    0.0096 C.ar      1 <0>        -0.0693
      2 C2          1.1726    2.0747    0.0020 C.ar      1 <0>        -0.1452
      3 C3          2.3927    1.3966   -0.0079 C.ar      1 <0>         0.2060
      4 C4          2.4150    0.0158    0.0004 C.ar      1 <0>        -0.1470
      5 C5          1.2060   -0.6773   -0.0037 C.ar      1 <0>         0.0068
      6 C6          0.0021   -0.0041    0.0020 C.ar      1 <0>        -0.1306
      7 Cl1         1.2152   -2.4133   -0.0175 Cl        1 <0>        -0.0554
      8 C7          3.6646   -0.8222    0.0388 C.3       1 <0>         0.1569
      9 N1          4.8513   -0.0571   -0.3534 N.pl3     1 <0>        -0.9774
     10 S1          5.0093    1.4678    0.3077 S.o2      1 <0>         2.7793
     11 O1          6.0049    2.1502   -0.4421 O.2       1 <0>        -0.9579
     12 O2          5.0768    1.3097    1.7183 O.2       1 <0>        -0.9480
     13 N2          3.5500    2.1888   -0.0404 N.pl3     1 <0>        -1.0482
     14 C8          5.8478   -0.6022   -1.2787 C.3       1 <0>         0.1287
     15 C9          5.4093   -0.3455   -2.6975 C.2       1 <0>         0.5000
     16 O3          4.3671    0.2355   -2.9144 O.2       1 <0>        -0.5018
     17 N3          6.1754   -0.7617   -3.7253 N.am      1 <0>        -0.5951
     18 O4          5.7634   -0.5205   -5.0584 O.3       1 <0>        -0.3164
     19 H1         -0.9571    1.9091    0.0259 H         1 <0>         0.1422
     20 H2          1.1605    3.1547    0.0034 H         1 <0>         0.1375
     21 H3         -0.9258   -0.5568    0.0009 H         1 <0>         0.1412
     22 H4          3.8060   -1.2015    1.0509 H         1 <0>         0.0999
     23 H5          3.5464   -1.6661   -0.6409 H         1 <0>         0.1098
     24 H6          3.5011    3.1324   -0.2597 H         1 <0>         0.4341
     25 H7          6.8093   -0.1198   -1.1027 H         1 <0>         0.1247
     26 H8          5.9449   -1.6757   -1.1170 H         1 <0>         0.1271
     27 H9          7.0090   -1.2264   -3.5518 H         1 <0>         0.4093
     28 H10         6.3772   -0.8553   -5.7264 H         1 <0>         0.3889
@<TRIPOS>BOND
     1    1    6 ar
     2    1    2 ar
     3    1   19 1
     4    2    3 ar
     5    2   20 1
     6    3   13 1
     7    3    4 ar
     8    4    5 ar
     9    4    8 1
    10    5    6 ar
    11    5    7 1
    12    6   21 1
    13    8    9 1
    14    8   22 1
    15    8   23 1
    16    9   10 1
    17    9   14 1
    18   10   11 2
    19   10   12 2
    20   10   13 1
    21   13   24 1
    22   14   15 1
    23   14   25 1
    24   14   26 1
    25   15   16 2
    26   15   17 am
    27   17   18 1
    28   17   27 1
    29   18   28 1
@<TRIPOS>MOLECULE
CHEMBL299946__1
   27    28     0     0     0
SMALL
USER_CHARGES

@<TRIPOS>ATOM
      1 C1         -0.0167    1.3784    0.0096 C.ar      1 <0>        -0.0766
      2 C2          1.1726    2.0747    0.0020 C.ar      1 <0>        -0.1648
      3 C3          2.3927    1.3966   -0.0079 C.ar      1 <0>         0.2799
      4 C4          2.4150    0.0158    0.0004 C.ar      1 <0>        -0.2311
      5 C5          1.2060   -0.6773   -0.0037 C.ar      1 <0>         0.0263
      6 C6          0.0021   -0.0041    0.0020 C.ar      1 <0>        -0.2074
      7 Cl1         1.2152   -2.4133   -0.0175 Cl        1 <0>        -0.1061
      8 C7          3.6646   -0.8222    0.0388 C.3       1 <0>         0.1864
      9 N1          4.8513   -0.0571   -0.3534 N.pl3     1 <0>        -0.9969
     10 S1          5.0093    1.4678    0.3077 S.o2      1 <0>         2.6706
     11 O1          6.0049    2.1502   -0.4421 O.2       1 <0>        -1.0112
     12 O2          5.0768    1.3097    1.7183 O.2       1 <0>        -1.0368
     13 N2          3.5500    2.1888   -0.0404 N.2       1 <0>        -1.0342
     14 C8          5.8478   -0.6022   -1.2787 C.3       1 <0>         0.1382
     15 C9          5.4093   -0.3455   -2.6975 C.2       1 <0>         0.4958
     16 O3          4.3671    0.2355   -2.9144 O.2       1 <0>        -0.4836
     17 N3          6.1754   -0.7617   -3.7253 N.am      1 <0>        -0.6045
     18 O4          5.7634   -0.5205   -5.0584 O.3       1 <0>        -0.3237
     19 H1         -0.9571    1.9091    0.0259 H         1 <0>         0.1157
     20 H2          1.1605    3.1547    0.0034 H         1 <0>         0.1180
     21 H3         -0.9258   -0.5568    0.0009 H         1 <0>         0.1140
     22 H4          3.8060   -1.2015    1.0509 H         1 <0>         0.0645
     23 H5          3.5464   -1.6661   -0.6409 H         1 <0>         0.0781
     24 H6          6.8093   -0.1198   -1.1027 H         1 <0>         0.1085
     25 H7          5.9449   -1.6757   -1.1170 H         1 <0>         0.1004
     26 H8          7.0090   -1.2264   -3.5518 H         1 <0>         0.4024
     27 H9          6.3772   -0.8553   -5.7264 H         1 <0>         0.3783
@<TRIPOS>BOND
     1    1    6 ar
     2    1    2 ar
     3    1   19 1
     4    2    3 ar
     5    2   20 1
     6    3   13 1
     7    3    4 ar
     8    4    5 ar
     9    4    8 1
    10    5    6 ar
    11    5    7 1
    12    6   21 1
    13    8    9 1
    14    8   22 1
    15    8   23 1
    16    9   10 1
    17    9   14 1
    18   10   11 2
    19   10   12 2
    20   10   13 1
    21   14   15 1
    22   14   24 1
    23   14   25 1
    24   15   16 2
    25   15   17 am
    26   17   18 1
    27   17   26 1
    28   18   27 1
@<TRIPOS>MOLECULE
CHEMBL54449
   38    40     0     0     0
SMALL
USER_CHARGES

@<TRIPOS>ATOM
      1 C1         -0.0167    1.3784    0.0096 C.ar      1 <0>        -0.0783
      2 C2          1.1726    2.0747    0.0020 C.ar      1 <0>        -0.1372
      3 C3          2.3926    1.3964   -0.0079 C.ar      1 <0>         0.2012
      4 C4          2.4147    0.0155    0.0004 C.ar      1 <0>        -0.1285
      5 C5          1.2057   -0.6773   -0.0037 C.ar      1 <0>        -0.0511
      6 C6          0.0021   -0.0041    0.0020 C.ar      1 <0>        -0.1111
      7 Br1         1.2156   -2.5682   -0.0188 Br        1 <0>        -0.0372
      8 C7          3.6640   -0.8227    0.0388 C.3       1 <0>         0.1516
      9 N1          4.8509   -0.0578   -0.3534 N.pl3     1 <0>        -0.9772
     10 S1          5.0092    1.4671    0.3077 S.o2      1 <0>         2.7753
     11 O1          5.0742    1.3091    1.7184 O.2       1 <0>        -0.9476
     12 O2          6.0067    2.1484   -0.4406 O.2       1 <0>        -0.9571
     13 N2          3.5501    2.1884   -0.0404 N.pl3     1 <0>        -0.9308
     14 C8          3.4764    3.6135   -0.3716 C.3       1 <0>         0.1449
     15 C9          3.1501    4.4143    0.8906 C.3       1 <0>        -0.1906
     16 C10         1.8252    5.1789    0.9194 C.3       1 <0>        -0.1755
     17 C11         3.1448    5.9401    0.7776 C.3       1 <0>        -0.1672
     18 C12         5.8477   -0.6035   -1.2780 C.3       1 <0>         0.1277
     19 C13         5.4098   -0.3477   -2.6971 C.2       1 <0>         0.5004
     20 O3          4.3677    0.2332   -2.9147 O.2       1 <0>        -0.5004
     21 N3          6.1763   -0.7644   -3.7244 N.am      1 <0>        -0.5951
     22 O4          5.7648   -0.5241   -5.0578 O.3       1 <0>        -0.3162
     23 H1         -0.9571    1.9091    0.0259 H         1 <0>         0.1400
     24 H2          1.1606    3.1546    0.0034 H         1 <0>         0.1440
     25 H3         -0.9258   -0.5567    0.0006 H         1 <0>         0.1392
     26 H4          3.8054   -1.2020    1.0509 H         1 <0>         0.1004
     27 H5          3.5457   -1.6666   -0.6409 H         1 <0>         0.1122
     28 H6          4.4345    3.9431   -0.7735 H         1 <0>         0.1056
     29 H7          2.6959    3.7738   -1.1154 H         1 <0>         0.0960
     30 H8          3.5015    3.9802    1.8267 H         1 <0>         0.1130
     31 H9          1.1860    5.1115    0.0391 H         1 <0>         0.0992
     32 H10         1.3046    5.2478    1.8745 H         1 <0>         0.0999
     33 H11         3.4923    6.5098    1.6395 H         1 <0>         0.1010
     34 H12         3.3738    6.3734   -0.1960 H         1 <0>         0.1005
     35 H13         6.8092   -0.1210   -1.1019 H         1 <0>         0.1239
     36 H14         5.9448   -1.6769   -1.1156 H         1 <0>         0.1273
     37 H15         7.0098   -1.2290   -3.5503 H         1 <0>         0.4091
     38 H16         6.3788   -0.8593   -5.7254 H         1 <0>         0.3887
@<TRIPOS>BOND
     1    1    6 ar
     2    1    2 ar
     3    1   23 1
     4    2    3 ar
     5    2   24 1
     6    3   13 1
     7    3    4 ar
     8    4    5 ar
     9    4    8 1
    10    5    6 ar
    11    5    7 1
    12    6   25 1
    13    8    9 1
    14    8   26 1
    15    8   27 1
    16    9   10 1
    17    9   18 1
    18   10   11 2
    19   10   12 2
    20   10   13 1
    21   13   14 1
    22   14   15 1
    23   14   28 1
    24   14   29 1
    25   15   17 1
    26   15   16 1
    27   15   30 1
    28   16   17 1
    29   16   31 1
    30   16   32 1
    31   17   33 1
    32   17   34 1
    33   18   19 1
    34   18   35 1
    35   18   36 1
    36   19   20 2
    37   19   21 am
    38   21   22 1
    39   21   37 1
    40   22   38 1
@<TRIPOS>MOLECULE
CHEMBL34553
   43    45     0     0     0
SMALL
USER_CHARGES

@<TRIPOS>ATOM
      1 C1          0.0142    1.3605    0.0254 C.ar      1 <0>        -0.0804
      2 C2          1.2006    2.0712    0.0170 C.ar      1 <0>        -0.1230
      3 C3          2.4076    1.3966   -0.0013 C.ar      1 <0>        -0.0551
      4 C4          2.4239    0.0117   -0.0142 C.ar      1 <0>        -0.1404
      5 C5          1.2321   -0.7122   -0.0134 C.ar      1 <0>         0.1624
      6 C6          0.0251   -0.0200    0.0111 C.ar      1 <0>        -0.1376
      7 N1          1.2161   -2.1033   -0.0494 N.am      1 <0>        -0.5226
      8 C7          2.2258   -2.9001   -0.3835 C.2       1 <0>         0.5354
      9 O1          2.0818   -4.0977   -0.2566 O.2       1 <0>        -0.5011
     10 C8          3.5405   -2.3887   -0.9126 C.3       1 <0>        -0.0796
     11 S1          3.9614   -0.8569   -0.0266 S.3       1 <0>        -0.0389
     12 C9          3.4145   -2.0988   -2.4096 C.3       1 <0>        -0.1180
     13 C10         4.7610   -1.7053   -2.9601 C.2       1 <0>         0.5324
     14 O2          5.7264   -1.6610   -2.2273 O.2       1 <0>        -0.4999
     15 N2          4.8925   -1.4026   -4.2669 N.am      1 <0>        -0.5956
     16 O3          6.1577   -1.0328   -4.7841 O.3       1 <0>        -0.3134
     17 C11        -0.0425   -2.7562    0.3192 C.3       1 <0>         0.0742
     18 C12        -0.8923   -2.9402   -0.9116 C.2       1 <0>         0.5041
     19 O4         -0.4866   -2.5630   -1.9906 O.2       1 <0>        -0.4999
     20 N3         -2.1032   -3.5238   -0.8135 N.am      1 <0>        -0.6659
     21 C13        -2.9318   -3.6108   -1.9390 C.ar      1 <0>         0.1441
     22 C14        -2.3777   -3.7987   -3.1976 C.ar      1 <0>        -0.1326
     23 C15        -3.1989   -3.8848   -4.3076 C.ar      1 <0>         0.1131
     24 C16        -4.5727   -3.7836   -4.1637 C.ar      1 <0>        -0.1372
     25 C17        -5.1273   -3.5960   -2.9113 C.ar      1 <0>        -0.1029
     26 C18        -4.3117   -3.5149   -1.7973 C.ar      1 <0>         0.0651
     27 F1         -4.8549   -3.3372   -0.5731 F         1 <0>        -0.1306
     28 F2         -2.6603   -4.0672   -5.5330 F         1 <0>        -0.1288
     29 H1         -0.9273    1.8891    0.0478 H         1 <0>         0.1333
     30 H2          1.1845    3.1511    0.0243 H         1 <0>         0.1355
     31 H3          3.3359    1.9486   -0.0051 H         1 <0>         0.1392
     32 H4         -0.9072   -0.5651    0.0193 H         1 <0>         0.1246
     33 H5          4.3178   -3.1341   -0.7449 H         1 <0>         0.1632
     34 H6          3.0586   -2.9916   -2.9238 H         1 <0>         0.1174
     35 H7          2.7068   -1.2843   -2.5637 H         1 <0>         0.1091
     36 H8          4.1204   -1.4380   -4.8530 H         1 <0>         0.4090
     37 H9          6.1530   -0.8342   -5.7305 H         1 <0>         0.3893
     38 H10         0.1692   -3.7289    0.7633 H         1 <0>         0.1387
     39 H11        -0.5760   -2.1363    1.0398 H         1 <0>         0.1287
     40 H12        -2.4007   -3.8836    0.0368 H         1 <0>         0.4204
     41 H13        -1.3065   -3.8773   -3.3103 H         1 <0>         0.1607
     42 H14        -5.2119   -3.8511   -5.0316 H         1 <0>         0.1500
     43 H15        -6.1989   -3.5167   -2.8022 H         1 <0>         0.1535
@<TRIPOS>BOND
     1    1    6 ar
     2    1    2 ar
     3    1   29 1
     4    2    3 ar
     5    2   30 1
     6    3    4 ar
     7    3   31 1
     8    4   11 1
     9    4    5 ar
    10    5    6 ar
    11    5    7 1
    12    6   32 1
    13    7    8 am
    14    7   17 1
    15    8    9 2
    16    8   10 1
    17   10   11 1
    18   10   12 1
    19   10   33 1
    20   12   13 1
    21   12   34 1
    22   12   35 1
    23   13   14 2
    24   13   15 am
    25   15   16 1
    26   15   36 1
    27   16   37 1
    28   17   18 1
    29   17   38 1
    30   17   39 1
    31   18   19 2
    32   18   20 am
    33   20   21 1
    34   20   40 1
    35   21   26 ar
    36   21   22 ar
    37   22   23 ar
    38   22   41 1
    39   23   24 ar
    40   23   28 1
    41   24   25 ar
    42   24   42 1
    43   25   26 ar
    44   25   43 1
    45   26   27 1
@<TRIPOS>MOLECULE
CHEMBL34553__1
   43    45     0     0     0
SMALL
USER_CHARGES

@<TRIPOS>ATOM
      1 C1         -0.1004    1.4064    0.0204 C.ar      1 <0>        -0.0799
      2 C2          1.0700    2.1431    0.0105 C.ar      1 <0>        -0.1236
      3 C3          2.2914    1.4954   -0.0172 C.ar      1 <0>        -0.0541
      4 C4          2.3383    0.1112   -0.0317 C.ar      1 <0>        -0.1406
      5 C5          1.1629   -0.6390   -0.0144 C.ar      1 <0>         0.1624
      6 C6         -0.0591    0.0264    0.0074 C.ar      1 <0>        -0.1418
      7 N1          1.1782   -2.0305   -0.0051 N.am      1 <0>        -0.5235
      8 C7          2.2139   -2.8107    0.2858 C.2       1 <0>         0.5358
      9 O1          2.0929   -4.0086    0.1388 O.2       1 <0>        -0.4994
     10 C8          3.5312   -2.2802    0.7890 C.3       1 <0>        -0.0793
     11 S1          3.8941   -0.7229   -0.0780 S.3       1 <0>        -0.0391
     12 C9          3.4403   -2.0216    2.2942 C.3       1 <0>        -0.1174
     13 C10         4.7926   -1.6086    2.8155 C.2       1 <0>         0.5324
     14 O2          5.7362   -1.5289    2.0578 O.2       1 <0>        -0.5000
     15 N2          4.9534   -1.3278    4.1239 N.am      1 <0>        -0.5956
     16 O3          6.2241   -0.9397    4.6137 O.3       1 <0>        -0.3134
     17 C11        -0.0755   -2.7043   -0.3521 C.3       1 <0>         0.0750
     18 C12        -0.8331   -3.0358    0.9078 C.2       1 <0>         0.5050
     19 O4         -0.3711   -2.7385    1.9891 O.2       1 <0>        -0.4992
     20 N3         -2.0238   -3.6626    0.8329 N.am      1 <0>        -0.6670
     21 C13        -2.7829   -3.8647    1.9923 C.ar      1 <0>         0.1475
     22 C14        -2.7598   -2.9228    3.0114 C.ar      1 <0>        -0.1333
     23 C15        -3.5110   -3.1250    4.1554 C.ar      1 <0>         0.1145
     24 C16        -4.2855   -4.2658    4.2841 C.ar      1 <0>        -0.1380
     25 C17        -4.3101   -5.2059    3.2707 C.ar      1 <0>        -0.1015
     26 C18        -3.5656   -5.0065    2.1223 C.ar      1 <0>         0.0651
     27 F1         -3.5945   -5.9230    1.1301 F         1 <0>        -0.1299
     28 F2         -3.4888   -2.2088    5.1481 F         1 <0>        -0.1288
     29 H1         -1.0534    1.9141    0.0430 H         1 <0>         0.1338
     30 H2          1.0301    3.2223    0.0241 H         1 <0>         0.1356
     31 H3          3.2071    2.0678   -0.0278 H         1 <0>         0.1392
     32 H4         -0.9792   -0.5391    0.0146 H         1 <0>         0.1260
     33 H5          4.3197   -3.0048    0.5857 H         1 <0>         0.1629
     34 H6          2.7195   -1.2261    2.4833 H         1 <0>         0.1087
     35 H7          3.1182   -2.9317    2.8004 H         1 <0>         0.1177
     36 H8          4.1988   -1.3916    4.7299 H         1 <0>         0.4090
     37 H9          6.2410   -0.7592    5.5636 H         1 <0>         0.3892
     38 H10        -0.6801   -2.0473   -0.9774 H         1 <0>         0.1305
     39 H11         0.1441   -3.6228   -0.8963 H         1 <0>         0.1355
     40 H12        -2.3551   -3.9738   -0.0240 H         1 <0>         0.4203
     41 H13        -2.1556   -2.0331    2.9117 H         1 <0>         0.1552
     42 H14        -4.8712   -4.4216    5.1780 H         1 <0>         0.1503
     43 H15        -4.9144   -6.0950    3.3741 H         1 <0>         0.1536
@<TRIPOS>BOND
     1    1    6 ar
     2    1    2 ar
     3    1   29 1
     4    2    3 ar
     5    2   30 1
     6    3    4 ar
     7    3   31 1
     8    4   11 1
     9    4    5 ar
    10    5    6 ar
    11    5    7 1
    12    6   32 1
    13    7    8 am
    14    7   17 1
    15    8    9 2
    16    8   10 1
    17   10   11 1
    18   10   12 1
    19   10   33 1
    20   12   13 1
    21   12   34 1
    22   12   35 1
    23   13   14 2
    24   13   15 am
    25   15   16 1
    26   15   36 1
    27   16   37 1
    28   17   18 1
    29   17   38 1
    30   17   39 1
    31   18   19 2
    32   18   20 am
    33   20   21 1
    34   20   40 1
    35   21   26 ar
    36   21   22 ar
    37   22   23 ar
    38   22   41 1
    39   23   24 ar
    40   23   28 1
    41   24   25 ar
    42   24   42 1
    43   25   26 ar
    44   25   43 1
    45   26   27 1
@<TRIPOS>MOLECULE
CHEMBL156547
   61    62     0     0     0
SMALL
USER_CHARGES

@<TRIPOS>ATOM
      1 C1         -0.6066    1.7734   -1.0109 C.3       1 <0>        -0.1541
      2 C2         -0.5759    0.2905   -0.6355 C.3       1 <0>        -0.0676
      3 C3         -0.2861    0.1490    0.8601 C.3       1 <0>        -0.1496
      4 C4         -1.9307   -0.3446   -0.9548 C.3       1 <0>        -0.1342
      5 C5          0.5199   -0.4157   -1.4364 C.3       1 <0>         0.1160
      6 H1          0.2548   -0.4150   -2.4937 H         1 <0>         0.1150
      7 C6          1.8275    0.3087   -1.2458 C.2       1 <0>         0.3939
      8 O1          1.9498    1.1129   -0.3460 O.2       1 <0>        -0.4212
      9 C7          2.9537    0.0410   -2.1495 C.ar      1 <0>        -0.1863
     10 C8          2.7812   -0.7971   -3.2580 C.ar      1 <0>        -0.0491
     11 C9          3.8359   -1.0434   -4.0989 C.ar      1 <0>        -0.1590
     12 C10         5.0754   -0.4629   -3.8522 C.ar      1 <0>         0.1473
     13 C11         5.2522    0.3699   -2.7525 C.ar      1 <0>        -0.1596
     14 C12         4.2024    0.6277   -1.9089 C.ar      1 <0>        -0.0390
     15 O2          6.1158   -0.7102   -4.6870 O.3       1 <0>        -0.4976
     16 N1          0.6541   -1.7971   -0.9675 N.am      1 <0>        -0.7163
     17 C13        -0.1491   -2.7585   -1.4645 C.2       1 <0>         0.5255
     18 O3         -0.9830   -2.4801   -2.3000 O.2       1 <0>        -0.5100
     19 C14        -0.0111   -4.1796   -0.9821 C.3       1 <0>        -0.1323
     20 H2          0.9950   -4.5400   -1.1967 H         1 <0>         0.1060
     21 C15        -1.0333   -5.0633   -1.6997 C.3       1 <0>        -0.0876
     22 C16        -0.6851   -6.5354   -1.4702 C.3       1 <0>        -0.1135
     23 C17         0.6167   -6.8930   -2.2166 C.3       1 <0>        -0.1216
     24 C18         0.3765   -8.3345   -2.7300 C.3       1 <0>        -0.1245
     25 C19        -1.1181   -8.3083   -3.1355 C.3       1 <0>        -0.1254
     26 C20        -1.7881   -7.4352   -2.0545 C.3       1 <0>        -0.1167
     27 C21        -0.2609   -4.2326    0.5264 C.3       1 <0>         0.1438
     28 N2          0.0556   -5.5726    1.0270 N.am      1 <0>        -0.4705
     29 C22         1.3307   -6.0092    1.0243 C.2       1 <0>         0.4776
     30 O4          1.5927   -7.1185    1.4387 O.2       1 <0>        -0.5414
     31 O5         -0.9781   -6.4090    1.5136 O.3       1 <0>        -0.3274
     32 H3          0.3189    2.2495   -0.6870 H         1 <0>         0.0728
     33 H4         -0.7073    1.8726   -2.0917 H         1 <0>         0.0523
     34 H5         -1.4534    2.2547   -0.5215 H         1 <0>         0.0614
     35 H6         -1.1430    0.5057    1.4316 H         1 <0>         0.0551
     36 H7         -0.1023   -0.8990    1.0970 H         1 <0>         0.0486
     37 H8          0.5933    0.7393    1.1173 H         1 <0>         0.0769
     38 H9         -2.1372   -0.2437   -2.0203 H         1 <0>         0.0600
     39 H10        -1.9089   -1.4010   -0.6874 H         1 <0>         0.0578
     40 H11        -2.7114    0.1586   -0.3843 H         1 <0>         0.0515
     41 H12         1.8193   -1.2490   -3.4500 H         1 <0>         0.1347
     42 H13         3.7039   -1.6897   -4.9541 H         1 <0>         0.1368
     43 H14         6.2169    0.8177   -2.5649 H         1 <0>         0.1375
     44 H15         4.3394    1.2784   -1.0579 H         1 <0>         0.1397
     45 H16         6.1887   -0.0845   -5.4207 H         1 <0>         0.3995
     46 H17         1.3210   -2.0199   -0.2993 H         1 <0>         0.4026
     47 H18        -2.0292   -4.8599   -1.3062 H         1 <0>         0.0710
     48 H19        -1.0137   -4.8476   -2.7680 H         1 <0>         0.0774
     49 H20        -0.5704   -6.7298   -0.4039 H         1 <0>         0.0982
     50 H21         0.7766   -6.2121   -3.0526 H         1 <0>         0.0650
     51 H22         1.4667   -6.8676   -1.5347 H         1 <0>         0.0558
     52 H23         1.0073   -8.5473   -3.5931 H         1 <0>         0.0637
     53 H24         0.5486   -9.0611   -1.9359 H         1 <0>         0.0652
     54 H25        -1.2384   -7.8559   -4.1198 H         1 <0>         0.0636
     55 H26        -1.5342   -9.3157   -3.1242 H         1 <0>         0.0624
     56 H27        -2.2082   -8.0670   -1.2718 H         1 <0>         0.0610
     57 H28        -2.5715   -6.8232   -2.5015 H         1 <0>         0.0629
     58 H29         0.3725   -3.4993    1.0256 H         1 <0>         0.0904
     59 H30        -1.3077   -4.0068    0.7295 H         1 <0>         0.1076
     60 H31         2.1192   -5.3712    0.6531 H         1 <0>         0.1494
     61 H32        -0.6725   -7.2731    1.8220 H         1 <0>         0.3984
@<TRIPOS>BOND
     1    1    2 1
     2    1   32 1
     3    1   33 1
     4    1   34 1
     5    2    3 1
     6    2    4 1
     7    2    5 1
     8    3   35 1
     9    3   36 1
    10    3   37 1
    11    4   38 1
    12    4   39 1
    13    4   40 1
    14    5    6 1
    15    5    7 1
    16    5   16 1
    17    7    8 2
    18    7    9 1
    19    9   14 ar
    20    9   10 ar
    21   10   11 ar
    22   10   41 1
    23   11   12 ar
    24   11   42 1
    25   12   13 ar
    26   12   15 1
    27   13   14 ar
    28   13   43 1
    29   14   44 1
    30   15   45 1
    31   16   17 am
    32   16   46 1
    33   17   18 2
    34   17   19 1
    35   19   20 1
    36   19   21 1
    37   19   27 1
    38   21   22 1
    39   21   47 1
    40   21   48 1
    41   22   26 1
    42   22   23 1
    43   22   49 1
    44   23   24 1
    45   23   50 1
    46   23   51 1
    47   24   25 1
    48   24   52 1
    49   24   53 1
    50   25   26 1
    51   25   54 1
    52   25   55 1
    53   26   56 1
    54   26   57 1
    55   27   28 1
    56   27   58 1
    57   27   59 1
    58   28   29 am
    59   28   31 1
    60   29   30 2
    61   29   60 1
    62   31   61 1
@<TRIPOS>MOLECULE
CHEMBL464060
   49    51     0     0     0
SMALL
USER_CHARGES

@<TRIPOS>ATOM
      1 C1         -4.2531    2.1505   -0.6454 C.3       1 <0>        -0.1530
      2 C2         -3.8631    0.8477   -1.3466 C.3       1 <0>        -0.1223
      3 C3         -3.5596   -0.2246   -0.2983 C.3       1 <0>        -0.1209
      4 C4         -3.1695   -1.5273   -0.9994 C.3       1 <0>        -0.0958
      5 C5         -2.8660   -2.5996    0.0489 C.3       1 <0>        -0.1052
      6 H1         -3.7197   -2.7051    0.7184 H         1 <0>         0.1109
      7 C6         -1.6512   -2.1955    0.8437 C.2       1 <0>         0.5437
      8 O1         -0.7568   -1.5737    0.3103 O.2       1 <0>        -0.4908
      9 N1         -1.5585   -2.5249    2.1473 N.am      1 <0>        -0.5981
     10 O2         -0.4688   -2.0559    2.9204 O.3       1 <0>        -0.3134
     11 C7         -2.6018   -3.9141   -0.6391 C.2       1 <0>         0.5493
     12 O3         -1.4738   -4.2066   -0.9753 O.2       1 <0>        -0.5082
     13 N2         -3.6189   -4.7647   -0.8807 N.am      1 <0>        -0.5995
     14 C8         -5.0165   -4.5770   -0.4508 C.3       1 <0>         0.0949
     15 C9         -5.6113   -6.0065   -0.4004 C.3       1 <0>        -0.1297
     16 C10        -4.9226   -6.6736   -1.6202 C.3       1 <0>        -0.1241
     17 C11        -3.5197   -6.0304   -1.6222 C.3       1 <0>         0.2190
     18 H2         -2.8089   -6.6939   -1.1296 H         1 <0>         0.0986
     19 C12        -3.0781   -5.7618   -3.0378 C.2       1 <0>         0.2750
     20 N3         -2.4389   -6.6572   -3.8379 N.pl3     1 <0>        -0.5943
     21 H3         -2.1916   -7.5650   -3.6020 H         1 <0>         0.4217
     22 C13        -2.2076   -6.0345   -5.0482 C.ar      1 <0>         0.0504
     23 C14        -1.6073   -6.4253   -6.2374 C.ar      1 <0>        -0.1128
     24 C15        -1.5350   -5.5376   -7.2897 C.ar      1 <0>        -0.0996
     25 C16        -2.0575   -4.2578   -7.1674 C.ar      1 <0>        -0.1276
     26 C17        -2.6518   -3.8559   -6.0049 C.ar      1 <0>        -0.0625
     27 C18        -2.7369   -4.7388   -4.9250 C.ar      1 <0>         0.0484
     28 N4         -3.2577   -4.6416   -3.6748 N.2       1 <0>        -0.4714
     29 H4         -4.4694    2.9144   -1.3923 H         1 <0>         0.0549
     30 H5         -5.1379    1.9819   -0.0315 H         1 <0>         0.0530
     31 H6         -3.4301    2.4833   -0.0130 H         1 <0>         0.0538
     32 H7         -4.6862    0.5150   -1.9790 H         1 <0>         0.0633
     33 H8         -2.9784    1.0163   -1.9605 H         1 <0>         0.0643
     34 H9         -2.7365    0.1082    0.3341 H         1 <0>         0.0661
     35 H10        -4.4443   -0.3932    0.3157 H         1 <0>         0.0635
     36 H11        -3.9926   -1.8601   -1.6318 H         1 <0>         0.0858
     37 H12        -2.2848   -1.3587   -1.6134 H         1 <0>         0.0871
     38 H13        -2.2383   -3.0833    2.5559 H         1 <0>         0.4052
     39 H14        -0.4885   -2.3439    3.8433 H         1 <0>         0.3878
     40 H15        -5.0511   -4.1167    0.5366 H         1 <0>         0.0832
     41 H16        -5.5571   -3.9665   -1.1741 H         1 <0>         0.0812
     42 H17        -5.3382   -6.5108    0.5266 H         1 <0>         0.0829
     43 H18        -6.6937   -5.9840   -0.5268 H         1 <0>         0.0939
     44 H19        -4.8544   -7.7527   -1.4820 H         1 <0>         0.0928
     45 H20        -5.4538   -6.4345   -2.5414 H         1 <0>         0.0864
     46 H21        -1.1984   -7.4199   -6.3376 H         1 <0>         0.1228
     47 H22        -1.0683   -5.8402   -8.2155 H         1 <0>         0.1309
     48 H23        -1.9934   -3.5725   -7.9996 H         1 <0>         0.1301
     49 H24        -3.0548   -2.8575   -5.9204 H         1 <0>         0.1284
@<TRIPOS>BOND
     1    1    2 1
     2    1   29 1
     3    1   30 1
     4    1   31 1
     5    2    3 1
     6    2   32 1
     7    2   33 1
     8    3    4 1
     9    3   34 1
    10    3   35 1
    11    4    5 1
    12    4   36 1
    13    4   37 1
    14    5    6 1
    15    5    7 1
    16    5   11 1
    17    7    8 2
    18    7    9 am
    19    9   10 1
    20    9   38 1
    21   10   39 1
    22   11   12 2
    23   11   13 am
    24   13   17 1
    25   13   14 1
    26   14   15 1
    27   14   40 1
    28   14   41 1
    29   15   16 1
    30   15   42 1
    31   15   43 1
    32   16   17 1
    33   16   44 1
    34   16   45 1
    35   17   18 1
    36   17   19 1
    37   19   28 2
    38   19   20 1
    39   20   21 1
    40   20   22 1
    41   22   27 ar
    42   22   23 ar
    43   23   24 ar
    44   23   46 1
    45   24   25 ar
    46   24   47 1
    47   25   26 ar
    48   25   48 1
    49   26   27 ar
    50   26   49 1
    51   27   28 1
@<TRIPOS>MOLECULE
CHEMBL421252
   61    61     0     0     0
SMALL
USER_CHARGES

@<TRIPOS>ATOM
      1 C1          0.4431    1.2982    0.3027 C.3       1 <0>        -0.1401
      2 C2          0.2034   -0.2051    0.1495 C.3       1 <0>        -0.0640
      3 C3          0.7875   -0.9404    1.3575 C.3       1 <0>        -0.1505
      4 C4         -1.3001   -0.4759    0.0657 C.3       1 <0>        -0.1439
      5 C5          0.8831   -0.7024   -1.1278 C.3       1 <0>         0.1438
      6 H1          0.8135   -1.7890   -1.1796 H         1 <0>         0.0866
      7 C6          0.2067   -0.0949   -2.3296 C.2       1 <0>         0.4769
      8 O1          0.1697    1.1089   -2.4724 O.2       1 <0>        -0.4286
      9 N1         -0.3635   -0.9199   -3.2537 N.am      1 <0>        -0.7473
     10 C7         -1.0080   -0.2528   -4.4054 C.3       1 <0>         0.1137
     11 C8          0.0704    0.1171   -5.4258 C.3       1 <0>        -0.1297
     12 C9          0.0787    1.6330   -5.6325 C.3       1 <0>        -0.1209
     13 C10         1.1962    2.0086   -6.6078 C.3       1 <0>        -0.1192
     14 C11         1.8133    3.3437   -6.1864 C.3       1 <0>        -0.1226
     15 C12         3.2501    3.1146   -5.7129 C.3       1 <0>        -0.1181
     16 C13         3.4371    3.7405   -4.3294 C.3       1 <0>        -0.1218
     17 C14         4.4288    2.9021   -3.5202 C.3       1 <0>        -0.1159
     18 C15         4.0236    2.9165   -2.0449 C.3       1 <0>        -0.1132
     19 C16         3.9811    1.4824   -1.5136 C.3       1 <0>        -0.1348
     20 C17         2.5548    0.9959   -1.4937 C.2       1 <0>         0.4785
     21 O2          1.6457    1.7376   -1.8009 O.2       1 <0>        -0.4270
     22 N2          2.3049   -0.2963   -1.1232 N.am      1 <0>        -0.7236
     23 C18         4.5518    1.4472   -0.0945 C.3       1 <0>         0.1425
     24 N3          4.6319    0.0585    0.3653 N.am      1 <0>        -0.4809
     25 C19         5.5710   -0.7656   -0.1401 C.2       1 <0>         0.4746
     26 O3          5.6373   -1.9152    0.2405 O.2       1 <0>        -0.5469
     27 O4          3.7227   -0.4179    1.3407 O.3       1 <0>        -0.3246
     28 H2          1.5142    1.4911    0.3624 H         1 <0>         0.0515
     29 H3          0.0270    1.8220   -0.5579 H         1 <0>         0.0946
     30 H4         -0.0412    1.6525    1.2127 H         1 <0>         0.0339
     31 H5          0.3313   -0.5584    2.2707 H         1 <0>         0.0545
     32 H6          0.5823   -2.0071    1.2676 H         1 <0>         0.0475
     33 H7          1.8649   -0.7795    1.3946 H         1 <0>         0.0789
     34 H8         -1.7162    0.0479   -0.7949 H         1 <0>         0.0565
     35 H9         -1.4709   -1.5469   -0.0435 H         1 <0>         0.0524
     36 H10        -1.7844   -0.1216    0.9757 H         1 <0>         0.0601
     37 H11        -0.3470   -1.8853   -3.1614 H         1 <0>         0.3987
     38 H12        -1.7282   -0.9303   -4.8641 H         1 <0>         0.0724
     39 H13        -1.5164    0.6502   -4.0672 H         1 <0>         0.0806
     40 H14         1.0445   -0.2047   -5.0576 H         1 <0>         0.0623
     41 H15        -0.1414   -0.3777   -6.3736 H         1 <0>         0.0585
     42 H16        -0.8812    1.9494   -6.0406 H         1 <0>         0.0544
     43 H17         0.2485    2.1291   -4.6769 H         1 <0>         0.0833
     44 H18         1.9632    1.2343   -6.5970 H         1 <0>         0.0592
     45 H19         0.7855    2.0994   -7.6134 H         1 <0>         0.0543
     46 H20         1.8153    4.0272   -7.0356 H         1 <0>         0.0549
     47 H21         1.2275    3.7747   -5.3745 H         1 <0>         0.0688
     48 H22         3.4479    2.0441   -5.6572 H         1 <0>         0.0603
     49 H23         3.9426    3.5759   -6.4170 H         1 <0>         0.0549
     50 H24         3.8225    4.7542   -4.4383 H         1 <0>         0.0567
     51 H25         2.4786    3.7698   -3.8113 H         1 <0>         0.0749
     52 H26         4.4229    1.8763   -3.8887 H         1 <0>         0.0597
     53 H27         5.4297    3.3206   -3.6262 H         1 <0>         0.0602
     54 H28         4.7507    3.4940   -1.4740 H         1 <0>         0.0689
     55 H29         3.0381    3.3710   -1.9432 H         1 <0>         0.0960
     56 H30         4.5759    0.8375   -2.1605 H         1 <0>         0.0926
     57 H31         3.0142   -0.9094   -0.8741 H         1 <0>         0.4047
     58 H32         5.5484    1.8886   -0.0926 H         1 <0>         0.1022
     59 H33         3.9022    2.0138    0.5725 H         1 <0>         0.1026
     60 H34         6.2645   -0.4022   -0.8841 H         1 <0>         0.1530
     61 H35         3.8534   -1.3456    1.5805 H         1 <0>         0.3930
@<TRIPOS>BOND
     1    1    2 1
     2    1   28 1
     3    1   29 1
     4    1   30 1
     5    2    3 1
     6    2    4 1
     7    2    5 1
     8    3   31 1
     9    3   32 1
    10    3   33 1
    11    4   34 1
    12    4   35 1
    13    4   36 1
    14    5    6 1
    15    5   22 1
    16    5    7 1
    17    7    8 2
    18    7    9 am
    19    9   10 1
    20    9   37 1
    21   10   11 1
    22   10   38 1
    23   10   39 1
    24   11   12 1
    25   11   40 1
    26   11   41 1
    27   12   13 1
    28   12   42 1
    29   12   43 1
    30   13   14 1
    31   13   44 1
    32   13   45 1
    33   14   15 1
    34   14   46 1
    35   14   47 1
    36   15   16 1
    37   15   48 1
    38   15   49 1
    39   16   17 1
    40   16   50 1
    41   16   51 1
    42   17   18 1
    43   17   52 1
    44   17   53 1
    45   18   19 1
    46   18   54 1
    47   18   55 1
    48   19   20 1
    49   19   23 1
    50   19   56 1
    51   20   21 2
    52   20   22 am
    53   22   57 1
    54   23   24 1
    55   23   58 1
    56   23   59 1
    57   24   25 am
    58   24   27 1
    59   25   26 2
    60   25   60 1
    61   27   61 1
@<TRIPOS>MOLECULE
CHEMBL421252__1
   61    61     0     0     0
SMALL
USER_CHARGES

@<TRIPOS>ATOM
      1 C1          0.0599    1.2200    0.1740 C.3       1 <0>        -0.1435
      2 C2         -0.0024   -0.2771   -0.1352 C.3       1 <0>        -0.0705
      3 C3          0.7291   -1.0551    0.9605 C.3       1 <0>        -0.1385
      4 C4         -1.4640   -0.7261   -0.1903 C.3       1 <0>        -0.1434
      5 C5          0.6653   -0.5474   -1.4850 C.3       1 <0>         0.1434
      6 H1          0.6220   -1.6136   -1.7072 H         1 <0>         0.0927
      7 C6         -0.0486    0.2234   -2.5652 C.2       1 <0>         0.4751
      8 O1         -0.1185    1.4331   -2.5151 O.2       1 <0>        -0.4272
      9 N1         -0.6154   -0.4608   -3.5999 N.am      1 <0>        -0.7456
     10 C7         -1.2981    0.3618   -4.6218 C.3       1 <0>         0.1132
     11 C8         -0.2487    0.9179   -5.5864 C.3       1 <0>        -0.1295
     12 C9         -0.2823    2.4471   -5.5505 C.3       1 <0>        -0.1212
     13 C10         0.8068    3.0029   -6.4703 C.3       1 <0>        -0.1188
     14 C11         1.3982    4.2712   -5.8519 C.3       1 <0>        -0.1229
     15 C12         2.8489    4.0101   -5.4418 C.3       1 <0>        -0.1140
     16 C13         3.0463    4.4145   -3.9795 C.3       1 <0>        -0.1220
     17 C14         4.0738    3.4867   -3.3280 C.3       1 <0>        -0.1254
     18 C15         3.6963    3.2566   -1.8632 C.3       1 <0>        -0.1107
     19 C16         3.6998    1.7560   -1.5653 C.3       1 <0>        -0.1343
     20 C17         2.2867    1.2331   -1.6018 C.2       1 <0>         0.4772
     21 O2          1.3537    1.9885   -1.7741 O.2       1 <0>        -0.4140
     22 N2          2.0764   -0.1078   -1.4370 N.am      1 <0>        -0.7357
     23 C18         4.5398    1.0291   -2.6174 C.3       1 <0>         0.1405
     24 N3          5.8830    1.6125   -2.6581 N.am      1 <0>        -0.4713
     25 C19         6.7364    1.4114   -1.6344 C.2       1 <0>         0.4796
     26 O3          7.8159    1.9642   -1.6273 O.2       1 <0>        -0.5488
     27 O4          6.2848    2.3876   -3.7729 O.3       1 <0>        -0.3258
     28 H2          1.1012    1.5398    0.2133 H         1 <0>         0.0541
     29 H3         -0.4612    1.7742   -0.6066 H         1 <0>         0.0926
     30 H4         -0.4158    1.4125    1.1356 H         1 <0>         0.0358
     31 H5          0.2534   -0.8626    1.9222 H         1 <0>         0.0583
     32 H6          0.6847   -2.1217    0.7403 H         1 <0>         0.0531
     33 H7          1.7704   -0.7352    0.9998 H         1 <0>         0.0563
     34 H8         -1.9852   -0.1719   -0.9709 H         1 <0>         0.0566
     35 H9         -1.5084   -1.7927   -0.4105 H         1 <0>         0.0547
     36 H10        -1.9397   -0.5336    0.7714 H         1 <0>         0.0616
     37 H11        -0.5730   -1.4278   -3.6620 H         1 <0>         0.3994
     38 H12        -2.0096   -0.2545   -5.1714 H         1 <0>         0.0731
     39 H13        -1.8224    1.1855   -4.1375 H         1 <0>         0.0810
     40 H14         0.7400    0.5691   -5.2883 H         1 <0>         0.0627
     41 H15        -0.4659    0.5734   -6.5975 H         1 <0>         0.0590
     42 H16        -1.2574    2.7972   -5.8892 H         1 <0>         0.0543
     43 H17        -0.1070    2.7906   -4.5310 H         1 <0>         0.0831
     44 H18         1.5931    2.2581   -6.5936 H         1 <0>         0.0592
     45 H19         0.3751    3.2399   -7.4426 H         1 <0>         0.0540
     46 H20         1.3670    5.0800   -6.5820 H         1 <0>         0.0539
     47 H21         0.8173    4.5521   -4.9734 H         1 <0>         0.0679
     48 H22         3.0745    2.9502   -5.5593 H         1 <0>         0.0588
     49 H23         3.5163    4.5958   -6.0740 H         1 <0>         0.0533
     50 H24         3.4040    5.4430   -3.9321 H         1 <0>         0.0511
     51 H25         2.0973    4.3351   -3.4492 H         1 <0>         0.0696
     52 H26         4.0866    2.5322   -3.8542 H         1 <0>         0.0758
     53 H27         5.0617    3.9442   -3.3811 H         1 <0>         0.0695
     54 H28         4.4193    3.7566   -1.2188 H         1 <0>         0.0581
     55 H29         2.7018    3.6618   -1.6764 H         1 <0>         0.0904
     56 H30         4.1259    1.5827   -0.5771 H         1 <0>         0.0973
     57 H31         2.8053   -0.7327   -1.2986 H         1 <0>         0.4075
     58 H32         4.6103   -0.0276   -2.3594 H         1 <0>         0.0871
     59 H33         4.0684    1.1339   -3.5946 H         1 <0>         0.1097
     60 H34         6.4589    0.7581   -0.8204 H         1 <0>         0.1498
     61 H35         7.1870    2.7299   -3.7094 H         1 <0>         0.3925
@<TRIPOS>BOND
     1    1    2 1
     2    1   28 1
     3    1   29 1
     4    1   30 1
     5    2    3 1
     6    2    4 1
     7    2    5 1
     8    3   31 1
     9    3   32 1
    10    3   33 1
    11    4   34 1
    12    4   35 1
    13    4   36 1
    14    5    6 1
    15    5   22 1
    16    5    7 1
    17    7    8 2
    18    7    9 am
    19    9   10 1
    20    9   37 1
    21   10   11 1
    22   10   38 1
    23   10   39 1
    24   11   12 1
    25   11   40 1
    26   11   41 1
    27   12   13 1
    28   12   42 1
    29   12   43 1
    30   13   14 1
    31   13   44 1
    32   13   45 1
    33   14   15 1
    34   14   46 1
    35   14   47 1
    36   15   16 1
    37   15   48 1
    38   15   49 1
    39   16   17 1
    40   16   50 1
    41   16   51 1
    42   17   18 1
    43   17   52 1
    44   17   53 1
    45   18   19 1
    46   18   54 1
    47   18   55 1
    48   19   20 1
    49   19   23 1
    50   19   56 1
    51   20   21 2
    52   20   22 am
    53   22   57 1
    54   23   24 1
    55   23   58 1
    56   23   59 1
    57   24   25 am
    58   24   27 1
    59   25   26 2
    60   25   60 1
    61   27   61 1
@<TRIPOS>MOLECULE
CHEMBL94000
   66    66     0     0     0
SMALL
USER_CHARGES

@<TRIPOS>ATOM
      1 C1          1.9695   -3.0347   -2.6017 C.3       1 <0>        -0.1527
      2 C2          1.0794   -2.3721   -1.5482 C.3       1 <0>        -0.1216
      3 C3         -0.3285   -2.9662   -1.6234 C.3       1 <0>        -0.1247
      4 C4         -1.2185   -2.3036   -0.5700 C.3       1 <0>        -0.0962
      5 C5         -2.6561   -2.8023   -0.7301 C.3       1 <0>        -0.1309
      6 H1         -2.9815   -2.6487   -1.7590 H         1 <0>         0.1037
      7 C6         -3.5737   -2.0258    0.2164 C.3       1 <0>         0.1431
      8 N1         -3.6042   -0.6159   -0.1805 N.am      1 <0>        -0.4748
      9 C7         -4.3174   -0.2346   -1.2587 C.2       1 <0>         0.4789
     10 O1         -4.3426    0.9326   -1.5873 O.2       1 <0>        -0.5465
     11 O2         -2.8843    0.3462    0.5686 O.3       1 <0>        -0.3314
     12 C8         -2.7183   -4.2708   -0.3975 C.2       1 <0>         0.5258
     13 O3         -1.7119   -4.8605   -0.0652 O.2       1 <0>        -0.5132
     14 N2         -3.8922   -4.9290   -0.4694 N.am      1 <0>        -0.7147
     15 C9         -3.9527   -6.3566   -0.1461 C.3       1 <0>         0.1356
     16 H2         -3.0323   -6.8419   -0.4709 H         1 <0>         0.1115
     17 C10        -5.1271   -6.9825   -0.8533 C.2       1 <0>         0.5214
     18 O4         -6.1140   -6.3196   -1.0932 O.2       1 <0>        -0.5316
     19 N3         -5.0808   -8.2788   -1.2190 N.am      1 <0>        -0.6069
     20 C11        -3.9417   -9.1243   -0.8364 C.3       1 <0>         0.0967
     21 C12        -3.3687   -9.7796   -2.0970 C.3       1 <0>        -0.1275
     22 C13        -4.4852  -10.5244   -2.8324 C.3       1 <0>        -0.1386
     23 C14        -5.5707   -9.5317   -3.2548 C.3       1 <0>        -0.1215
     24 C15        -6.1713   -8.8750   -2.0026 C.3       1 <0>         0.1135
     25 C16        -3.9182  -11.1987   -4.0550 C.2       1 <0>         0.3582
     26 O5         -2.9159  -10.7673   -4.5724 O.2       1 <0>        -0.4518
     27 C17        -4.6020  -12.4114   -4.6320 C.3       1 <0>        -0.2064
     28 C18        -4.1153   -6.5308    1.3652 C.3       1 <0>        -0.0712
     29 C19        -5.4342   -5.8973    1.8125 C.3       1 <0>        -0.1434
     30 C20        -4.1232   -8.0217    1.7088 C.3       1 <0>        -0.1577
     31 C21        -2.9512   -5.8476    2.0855 C.3       1 <0>        -0.1322
     32 H3          2.9725   -2.6115   -2.5481 H         1 <0>         0.0527
     33 H4          2.0173   -4.1074   -2.4143 H         1 <0>         0.0538
     34 H5          1.5527   -2.8573   -3.5931 H         1 <0>         0.0515
     35 H6          1.4962   -2.5495   -0.5568 H         1 <0>         0.0612
     36 H7          1.0317   -1.2994   -1.7356 H         1 <0>         0.0571
     37 H8         -0.7453   -2.7887   -2.6148 H         1 <0>         0.0529
     38 H9         -0.2807   -4.0389   -1.4360 H         1 <0>         0.0805
     39 H10        -0.8544   -2.5580    0.4254 H         1 <0>         0.0741
     40 H11        -1.1926   -1.2218   -0.7008 H         1 <0>         0.0739
     41 H12        -4.5810   -2.4392    0.1663 H         1 <0>         0.0961
     42 H13        -3.1975   -2.1081    1.2361 H         1 <0>         0.1048
     43 H14        -4.8665   -0.9684   -1.8300 H         1 <0>         0.1531
     44 H15        -2.9649    1.2486    0.2305 H         1 <0>         0.3982
     45 H16        -4.6971   -4.4574   -0.7352 H         1 <0>         0.4081
     46 H17        -3.1749   -8.5116   -0.3623 H         1 <0>         0.0979
     47 H18        -4.2760   -9.8961   -0.1431 H         1 <0>         0.0808
     48 H19        -2.9526   -9.0117   -2.7492 H         1 <0>         0.0785
     49 H20        -2.5849  -10.4834   -1.8169 H         1 <0>         0.0822
     50 H21        -4.9174  -11.2755   -2.1712 H         1 <0>         0.1016
     51 H22        -5.1339   -8.7661   -3.8961 H         1 <0>         0.0735
     52 H23        -6.3542  -10.0591   -3.7989 H         1 <0>         0.0850
     53 H24        -6.6838   -9.6269   -1.4025 H         1 <0>         0.0749
     54 H25        -6.8761   -8.0978   -2.2982 H         1 <0>         0.0993
     55 H26        -5.3382  -12.0960   -5.3713 H         1 <0>         0.0968
     56 H27        -3.8614  -13.0540   -5.1081 H         1 <0>         0.0863
     57 H28        -5.1009  -12.9612   -3.8340 H         1 <0>         0.0860
     58 H29        -6.2636   -6.3841    1.2993 H         1 <0>         0.0598
     59 H30        -5.5501   -6.0215    2.8892 H         1 <0>         0.0594
     60 H31        -5.4286   -4.8352    1.5678 H         1 <0>         0.0572
     61 H32        -3.1568   -8.4579    1.4561 H         1 <0>         0.0644
     62 H33        -4.3112   -8.1478    2.7750 H         1 <0>         0.0663
     63 H34        -4.9073   -8.5215    1.1399 H         1 <0>         0.0623
     64 H35        -2.9456   -4.7854    1.8408 H         1 <0>         0.0543
     65 H36        -3.0671   -5.9717    3.1622 H         1 <0>         0.0542
     66 H37        -2.0116   -6.2989    1.7668 H         1 <0>         0.0679
@<TRIPOS>BOND
     1    1    2 1
     2    1   32 1
     3    1   33 1
     4    1   34 1
     5    2    3 1
     6    2   35 1
     7    2   36 1
     8    3    4 1
     9    3   37 1
    10    3   38 1
    11    4    5 1
    12    4   39 1
    13    4   40 1
    14    5    6 1
    15    5    7 1
    16    5   12 1
    17    7    8 1
    18    7   41 1
    19    7   42 1
    20    8    9 am
    21    8   11 1
    22    9   10 2
    23    9   43 1
    24   11   44 1
    25   12   13 2
    26   12   14 am
    27   14   15 1
    28   14   45 1
    29   15   16 1
    30   15   17 1
    31   15   28 1
    32   17   18 2
    33   17   19 am
    34   19   24 1
    35   19   20 1
    36   20   21 1
    37   20   46 1
    38   20   47 1
    39   21   22 1
    40   21   48 1
    41   21   49 1
    42   22   23 1
    43   22   25 1
    44   22   50 1
    45   23   24 1
    46   23   51 1
    47   23   52 1
    48   24   53 1
    49   24   54 1
    50   25   26 2
    51   25   27 1
    52   27   55 1
    53   27   56 1
    54   27   57 1
    55   28   29 1
    56   28   30 1
    57   28   31 1
    58   29   58 1
    59   29   59 1
    60   29   60 1
    61   30   61 1
    62   30   62 1
    63   30   63 1
    64   31   64 1
    65   31   65 1
    66   31   66 1
@<TRIPOS>MOLECULE
CHEMBL386468
   43    45     0     0     0
SMALL
USER_CHARGES

@<TRIPOS>ATOM
      1 C1         -0.0167    1.3781    0.0096 C.ar      1 <0>        -0.1033
      2 C2          1.1709    2.0855    0.0021 C.ar      1 <0>        -0.1223
      3 C3          2.3773    1.4107   -0.0130 C.ar      1 <0>        -0.0911
      4 C4          2.3960    0.0285   -0.0201 C.ar      1 <0>        -0.1055
      5 C5          1.2084   -0.6789   -0.0117 C.ar      1 <0>        -0.0915
      6 C6          0.0021   -0.0041    0.0020 C.ar      1 <0>        -0.1227
      7 C7          3.7112   -0.7071   -0.0376 C.3       1 <0>         0.1244
      8 O1          4.1410   -0.9464    1.3041 O.3       1 <0>        -0.3415
      9 C8          5.3072   -1.5986    1.4650 C.2       1 <0>         0.6605
     10 O2          5.9428   -1.9549    0.4933 O.2       1 <0>        -0.5168
     11 N1          5.7698   -1.8563    2.7043 N.am      1 <0>        -0.4372
     12 C9          5.1369   -1.5081    3.8738 C.2       1 <0>         0.0687
     13 C10         5.8647   -1.9121    4.9241 C.2       1 <0>        -0.1237
     14 C11         7.0615   -2.5731    4.3929 C.ar      1 <0>        -0.0732
     15 C12         6.9508   -2.5166    2.9926 C.ar      1 <0>         0.1215
     16 C13         7.9488   -3.0750    2.2044 C.ar      1 <0>        -0.0954
     17 C14         9.0353   -3.6818    2.7975 C.ar      1 <0>        -0.0726
     18 C15         9.1441   -3.7420    4.1800 C.ar      1 <0>        -0.0982
     19 C16         8.1689   -3.1863    4.9798 C.ar      1 <0>        -0.0444
     20 Br1        10.6435   -4.5808    4.9700 Br        1 <0>        -0.0417
     21 C17         5.5186   -1.7220    6.3784 C.3       1 <0>        -0.0948
     22 C18         6.1929   -0.4780    6.8968 C.2       1 <0>         0.3580
     23 O3          6.8832    0.1859    6.1612 O.2       1 <0>        -0.4235
     24 C19         6.0057   -0.0623    8.3332 C.3       1 <0>        -0.0002
     25 N2          6.7597    1.1724    8.5879 N.3       1 <0>        -0.4976
     26 O4          6.6011    1.6068    9.9759 O.3       1 <0>        -0.4260
     27 H1         -0.9591    1.9053    0.0259 H         1 <0>         0.1269
     28 H2          1.1563    3.1654    0.0076 H         1 <0>         0.1280
     29 H3          3.3051    1.9634   -0.0196 H         1 <0>         0.1257
     30 H4          1.2231   -1.7588   -0.0176 H         1 <0>         0.1255
     31 H5         -0.9258   -0.5567    0.0082 H         1 <0>         0.1279
     32 H6          3.5884   -1.6586   -0.5549 H         1 <0>         0.0851
     33 H7          4.4573   -0.1052   -0.5563 H         1 <0>         0.0850
     34 H8          4.1937   -0.9859    3.9369 H         1 <0>         0.1872
     35 H9          7.8735   -3.0343    1.1278 H         1 <0>         0.1481
     36 H10         9.8090   -4.1147    2.1807 H         1 <0>         0.1436
     37 H11         8.2557   -3.2355    6.0552 H         1 <0>         0.1372
     38 H12         4.4385   -1.6211    6.4847 H         1 <0>         0.1186
     39 H13         5.8608   -2.5854    6.9491 H         1 <0>         0.1162
     40 H14         4.9472    0.1121    8.5260 H         1 <0>         0.1212
     41 H15         6.3694   -0.8522    8.9904 H         1 <0>         0.0802
     42 H16         7.7344    1.0555    8.3548 H         1 <0>         0.3435
     43 H17         7.0809    2.4182   10.1914 H         1 <0>         0.3904
@<TRIPOS>BOND
     1    1    6 ar
     2    1    2 ar
     3    1   27 1
     4    2    3 ar
     5    2   28 1
     6    3    4 ar
     7    3   29 1
     8    4    5 ar
     9    4    7 1
    10    5    6 ar
    11    5   30 1
    12    6   31 1
    13    7    8 1
    14    7   32 1
    15    7   33 1
    16    8    9 1
    17    9   10 2
    18    9   11 am
    19   11   15 1
    20   11   12 1
    21   12   13 2
    22   12   34 1
    23   13   14 1
    24   13   21 1
    25   14   19 ar
    26   14   15 ar
    27   15   16 ar
    28   16   17 ar
    29   16   35 1
    30   17   18 ar
    31   17   36 1
    32   18   19 ar
    33   18   20 1
    34   19   37 1
    35   21   22 1
    36   21   38 1
    37   21   39 1
    38   22   23 2
    39   22   24 1
    40   24   25 1
    41   24   40 1
    42   24   41 1
    43   25   26 1
    44   25   42 1
    45   26   43 1
@<TRIPOS>MOLECULE
CHEMBL409416
   93    96     0     0     0
SMALL
USER_CHARGES

@<TRIPOS>ATOM
      1 C1         -0.6800    1.7461   -1.0086 C.3       1 <0>        -0.1538
      2 C2         -0.5623    0.2626   -0.6533 C.3       1 <0>        -0.0676
      3 C3         -0.2634    0.1180    0.8402 C.3       1 <0>        -0.1492
      4 C4         -1.8779   -0.4463   -0.9811 C.3       1 <0>        -0.1345
      5 C5          0.5723   -0.3675   -1.4638 C.3       1 <0>         0.1168
      6 H1          0.3067   -0.3682   -2.5209 H         1 <0>         0.1124
      7 C6          1.8354    0.4297   -1.2636 C.2       1 <0>         0.3952
      8 O1          1.9106    1.2287   -0.3539 O.2       1 <0>        -0.4297
      9 C7          2.9744    0.2395   -2.1692 C.ar      1 <0>        -0.2310
     10 C8          2.8504   -0.5943   -3.2884 C.ar      1 <0>        -0.0132
     11 C9          3.9126   -0.7681   -4.1287 C.ar      1 <0>        -0.2133
     12 C10         5.1182   -0.1179   -3.8745 C.ar      1 <0>         0.2527
     13 C11         5.2458    0.7120   -2.7628 C.ar      1 <0>        -0.2124
     14 C12         4.1871    0.8956   -1.9203 C.ar      1 <0>        -0.0026
     15 N1          6.1961   -0.2980   -4.7316 N.pl3     1 <0>        -0.6232
     16 C13         7.5179    0.2612   -4.4100 C.3       1 <0>         0.1202
     17 C14         8.5616   -0.8539   -4.5347 C.3       1 <0>         0.0418
     18 N2          8.4556   -1.4732   -5.8625 N.3       1 <0>        -0.5293
     19 C15         7.1478   -2.1161   -6.0477 C.3       1 <0>         0.0316
     20 C16         6.0476   -1.0580   -5.9821 C.3       1 <0>         0.1201
     21 C17         9.5484   -2.4289   -6.0864 C.3       1 <0>         0.0291
     22 C18         9.5529   -2.8641   -7.5532 C.3       1 <0>        -0.0058
     23 N3         10.6457   -3.8199   -7.7772 N.4       1 <0>        -0.3930
     24 C19        10.3597   -5.0982   -7.0770 C.3       1 <0>        -0.0082
     25 C20        11.2407   -6.1226   -7.8353 C.3       1 <0>        -0.1454
     26 C21        11.1447   -5.6425   -9.3017 C.3       1 <0>        -0.1455
     27 C22        10.7401   -4.1593   -9.2136 C.3       1 <0>        -0.0066
     28 N4          0.7876   -1.7448   -1.0135 N.am      1 <0>        -0.7152
     29 C23         0.0416   -2.7449   -1.5233 C.2       1 <0>         0.5240
     30 O2         -0.8079   -2.5045   -2.3548 O.2       1 <0>        -0.5097
     31 C24         0.2631   -4.1617   -1.0601 C.3       1 <0>        -0.1303
     32 H2          1.2883   -4.4597   -1.2796 H         1 <0>         0.1033
     33 C25        -0.7063   -5.0941   -1.7894 C.3       1 <0>        -0.0881
     34 C26        -0.2732   -6.5463   -1.5784 C.3       1 <0>        -0.1137
     35 C27         1.0485   -6.8176   -2.3264 C.3       1 <0>        -0.1199
     36 C28         0.8935   -8.2637   -2.8591 C.3       1 <0>        -0.1241
     37 C29        -0.5995   -8.3193   -3.2677 C.3       1 <0>        -0.1254
     38 C30        -1.3210   -7.5011   -2.1769 C.3       1 <0>        -0.1178
     39 C31         0.0182   -4.2496    0.4476 C.3       1 <0>         0.1423
     40 N5          0.4118   -5.5757    0.9299 N.am      1 <0>        -0.4695
     41 C32         1.7098   -5.9386    0.9199 C.2       1 <0>         0.4772
     42 O3          2.0356   -7.0365    1.3191 O.2       1 <0>        -0.5422
     43 O4         -0.5715   -6.4764    1.4064 O.3       1 <0>        -0.3256
     44 H3          0.2166    2.2709   -0.6789 H         1 <0>         0.0733
     45 H4         -0.7878    1.8537   -2.0879 H         1 <0>         0.0515
     46 H5         -1.5527    2.1704   -0.5122 H         1 <0>         0.0613
     47 H6         -1.1390    0.4169    1.4165 H         1 <0>         0.0552
     48 H7         -0.0190   -0.9206    1.0630 H         1 <0>         0.0474
     49 H8          0.5806    0.7548    1.1052 H         1 <0>         0.0772
     50 H9         -2.0908   -0.3434   -2.0452 H         1 <0>         0.0594
     51 H10        -1.7940   -1.5032   -0.7280 H         1 <0>         0.0569
     52 H11        -2.6862    0.0025   -0.4038 H         1 <0>         0.0519
     53 H12         1.9163   -1.0990   -3.4860 H         1 <0>         0.1297
     54 H13         3.8180   -1.4109   -4.9915 H         1 <0>         0.1269
     55 H14         6.1823    1.2138   -2.5693 H         1 <0>         0.1289
     56 H15         4.2855    1.5426   -1.0612 H         1 <0>         0.1352
     57 H16         7.7553    1.0645   -5.1074 H         1 <0>         0.0780
     58 H17         7.5141    0.6468   -3.3905 H         1 <0>         0.0969
     59 H18         9.5595   -0.4340   -4.4078 H         1 <0>         0.0944
     60 H19         8.3831   -1.6067   -3.7669 H         1 <0>         0.0487
     61 H20         7.1202   -2.6116   -7.0182 H         1 <0>         0.0857
     62 H21         6.9889   -2.8513   -5.2589 H         1 <0>         0.0489
     63 H22         5.0722   -1.5441   -6.0014 H         1 <0>         0.0957
     64 H23         6.1409   -0.3839   -6.8335 H         1 <0>         0.0767
     65 H24        10.5002   -1.9557   -5.8450 H         1 <0>         0.0984
     66 H25         9.4045   -3.3014   -5.4491 H         1 <0>         0.0571
     67 H26         8.6011   -3.3374   -7.7947 H         1 <0>         0.1280
     68 H27         9.6968   -1.9917   -8.1906 H         1 <0>         0.1400
     69 H28        10.6552   -5.0376   -6.0295 H         1 <0>         0.1337
     70 H29         9.3048   -5.3578   -7.1658 H         1 <0>         0.1321
     71 H30        12.2712   -6.0809   -7.4825 H         1 <0>         0.0988
     72 H31        10.8369   -7.1297   -7.7319 H         1 <0>         0.1169
     73 H32        12.1108   -5.7424   -9.7965 H         1 <0>         0.1062
     74 H33        10.3841   -6.2110   -9.8368 H         1 <0>         0.1041
     75 H34         9.7738   -4.0088   -9.6950 H         1 <0>         0.1307
     76 H35        11.4973   -3.5387   -9.6928 H         1 <0>         0.1336
     77 H36         1.4670   -1.9371   -0.3484 H         1 <0>         0.4016
     78 H37        -1.7122   -4.9539   -1.3938 H         1 <0>         0.0722
     79 H38        -0.6994   -4.8641   -2.8548 H         1 <0>         0.0768
     80 H39        -0.1490   -6.7478   -0.5144 H         1 <0>         0.0988
     81 H40         1.1696   -6.1175   -3.1530 H         1 <0>         0.0631
     82 H41         1.8945   -6.7517   -1.6423 H         1 <0>         0.0543
     83 H42         1.5369   -8.4280   -3.7235 H         1 <0>         0.0613
     84 H43         1.1065   -8.9894   -2.0742 H         1 <0>         0.0657
     85 H44        -0.7445   -7.8617   -4.2463 H         1 <0>         0.0632
     86 H45        -0.9561   -9.3493   -3.2705 H         1 <0>         0.0634
     87 H46        -1.7047   -8.1665   -1.4035 H         1 <0>         0.0623
     88 H47        -2.1380   -6.9299   -2.6177 H         1 <0>         0.0640
     89 H48         0.6088   -3.4878    0.9566 H         1 <0>         0.0907
     90 H49        -1.0397   -4.0871    0.6540 H         1 <0>         0.1087
     91 H50         2.4597   -5.2516    0.5565 H         1 <0>         0.1469
     92 H51        -0.2164   -7.3256    1.7029 H         1 <0>         0.3988
     93 H52        11.5192   -3.4324   -7.4531 H         1 <0>         0.4275
@<TRIPOS>BOND
     1    1    2 1
     2    1   44 1
     3    1   45 1
     4    1   46 1
     5    2    3 1
     6    2    4 1
     7    2    5 1
     8    3   47 1
     9    3   48 1
    10    3   49 1
    11    4   50 1
    12    4   51 1
    13    4   52 1
    14    5    6 1
    15    5    7 1
    16    5   28 1
    17    7    8 2
    18    7    9 1
    19    9   14 ar
    20    9   10 ar
    21   10   11 ar
    22   10   53 1
    23   11   12 ar
    24   11   54 1
    25   12   13 ar
    26   12   15 1
    27   13   14 ar
    28   13   55 1
    29   14   56 1
    30   15   20 1
    31   15   16 1
    32   16   17 1
    33   16   57 1
    34   16   58 1
    35   17   18 1
    36   17   59 1
    37   17   60 1
    38   18   19 1
    39   18   21 1
    40   19   20 1
    41   19   61 1
    42   19   62 1
    43   20   63 1
    44   20   64 1
    45   21   22 1
    46   21   65 1
    47   21   66 1
    48   22   23 1
    49   22   67 1
    50   22   68 1
    51   23   27 1
    52   23   24 1
    53   23   93 1
    54   24   25 1
    55   24   69 1
    56   24   70 1
    57   25   26 1
    58   25   71 1
    59   25   72 1
    60   26   27 1
    61   26   73 1
    62   26   74 1
    63   27   75 1
    64   27   76 1
    65   28   29 am
    66   28   77 1
    67   29   30 2
    68   29   31 1
    69   31   32 1
    70   31   33 1
    71   31   39 1
    72   33   34 1
    73   33   78 1
    74   33   79 1
    75   34   38 1
    76   34   35 1
    77   34   80 1
    78   35   36 1
    79   35   81 1
    80   35   82 1
    81   36   37 1
    82   36   83 1
    83   36   84 1
    84   37   38 1
    85   37   85 1
    86   37   86 1
    87   38   87 1
    88   38   88 1
    89   39   40 1
    90   39   89 1
    91   39   90 1
    92   40   41 am
    93   40   43 1
    94   41   42 2
    95   41   91 1
    96   43   92 1
@<TRIPOS>MOLECULE
CHEMBL78001
   44    45     0     0     0
SMALL
USER_CHARGES

@<TRIPOS>ATOM
      1 C1         -3.2275   -1.6548   -1.4931 C.3       1 <0>        -0.1545
      2 C2         -1.7659   -1.4996   -1.0684 C.3       1 <0>        -0.1281
      3 C3         -0.8604   -2.1740   -2.1009 C.3       1 <0>        -0.1156
      4 C4          0.6013   -2.0188   -1.6762 C.3       1 <0>        -0.1120
      5 C5          1.5125   -2.5788   -2.7703 C.3       1 <0>        -0.5557
      6 C6          1.2904   -4.0873   -2.8964 C.3       1 <0>        -0.1195
      7 C7          2.0956   -4.6185   -4.0542 C.2       1 <0>         0.4894
      8 O1          2.7797   -3.8647   -4.7136 O.2       1 <0>        -0.4754
      9 N1          2.0555   -5.9312   -4.3570 N.am      1 <0>        -0.5950
     10 O2          2.8120   -6.4303   -5.4449 O.3       1 <0>        -0.3122
     11 S1          3.2445   -2.2566   -2.3382 S.o2      1 <0>         2.4877
     12 O3          3.5564   -2.8547   -1.0874 O.2       1 <0>        -0.9403
     13 O4          4.0784   -2.4665   -3.4695 O.2       1 <0>        -0.8939
     14 C8          3.3214   -0.5220   -2.0386 C.ar      1 <0>        -0.6527
     15 C9          3.4931    0.3527   -3.1100 C.ar      1 <0>        -0.0452
     16 C10         3.5569    1.6979   -2.9132 C.ar      1 <0>        -0.1169
     17 C11         3.4481    2.2161   -1.6114 C.ar      1 <0>        -0.0132
     18 C12         3.5088    3.5990   -1.3689 C.ar      1 <0>        -0.1189
     19 C13         3.3993    4.0646   -0.0948 C.ar      1 <0>        -0.0944
     20 C14         3.2273    3.1900    0.9766 C.ar      1 <0>        -0.1220
     21 C15         3.1639    1.8448    0.7798 C.ar      1 <0>        -0.0907
     22 C16         3.2731    1.3267   -0.5220 C.ar      1 <0>        -0.0788
     23 C17         3.2067   -0.0560   -0.7651 C.ar      1 <0>         0.0120
     24 H1         -3.3748   -1.1867   -2.4663 H         1 <0>         0.0542
     25 H2         -3.4765   -2.7140   -1.5580 H         1 <0>         0.0543
     26 H3         -3.8726   -1.1744   -0.7575 H         1 <0>         0.0552
     27 H4         -1.5169   -0.4404   -1.0035 H         1 <0>         0.0634
     28 H5         -1.6187   -1.9678   -0.0951 H         1 <0>         0.0648
     29 H6         -1.1094   -3.2332   -2.1658 H         1 <0>         0.0684
     30 H7         -1.0076   -1.7059   -3.0742 H         1 <0>         0.0688
     31 H8          0.8247   -0.9632   -1.5222 H         1 <0>         0.0837
     32 H9          0.7699   -2.5650   -0.7481 H         1 <0>         0.0872
     33 H10         1.2791   -2.0965   -3.7195 H         1 <0>         0.1526
     34 H11         1.6077   -4.5794   -1.9770 H         1 <0>         0.1167
     35 H12         0.2325   -4.2857   -3.0682 H         1 <0>         0.1288
     36 H13         1.5083   -6.5341   -3.8296 H         1 <0>         0.4092
     37 H14         2.7193   -7.3827   -5.5843 H         1 <0>         0.3890
     38 H15         3.5770   -0.0429   -4.1115 H         1 <0>         0.1414
     39 H16         3.6909    2.3636   -3.7530 H         1 <0>         0.1368
     40 H17         3.6421    4.2887   -2.1893 H         1 <0>         0.1325
     41 H18         3.4466    5.1279    0.0889 H         1 <0>         0.1283
     42 H19         3.1434    3.5855    1.9781 H         1 <0>         0.1287
     43 H20         3.0307    1.1790    1.6196 H         1 <0>         0.1337
     44 H21         3.0694   -0.7453    0.0549 H         1 <0>         0.1482
@<TRIPOS>BOND
     1    1    2 1
     2    1   24 1
     3    1   25 1
     4    1   26 1
     5    2    3 1
     6    2   27 1
     7    2   28 1
     8    3    4 1
     9    3   29 1
    10    3   30 1
    11    4    5 1
    12    4   31 1
    13    4   32 1
    14    5    6 1
    15    5   11 1
    16    5   33 1
    17    6    7 1
    18    6   34 1
    19    6   35 1
    20    7    8 2
    21    7    9 am
    22    9   10 1
    23    9   36 1
    24   10   37 1
    25   11   12 2
    26   11   13 2
    27   11   14 1
    28   14   23 ar
    29   14   15 ar
    30   15   16 ar
    31   15   38 1
    32   16   17 ar
    33   16   39 1
    34   17   22 ar
    35   17   18 ar
    36   18   19 ar
    37   18   40 1
    38   19   20 ar
    39   19   41 1
    40   20   21 ar
    41   20   42 1
    42   21   22 ar
    43   21   43 1
    44   22   23 ar
    45   23   44 1
@<TRIPOS>MOLECULE
CHEMBL78001__1
   44    45     0     0     0
SMALL
USER_CHARGES

@<TRIPOS>ATOM
      1 C1          2.1307   -1.9088    2.3880 C.3       1 <0>        -0.1546
      2 C2          1.2861   -1.4877    1.1837 C.3       1 <0>        -0.1281
      3 C3          1.7867   -2.2109   -0.0682 C.3       1 <0>        -0.1159
      4 C4          0.9422   -1.7897   -1.2724 C.3       1 <0>        -0.1113
      5 C5          1.5261   -2.4059   -2.5454 C.3       1 <0>        -0.5562
      6 C6          1.4086   -3.9297   -2.4747 C.3       1 <0>        -0.1198
      7 C7          2.0927   -4.5423   -3.6696 C.2       1 <0>         0.4898
      8 O1          2.6221   -3.8301   -4.4963 O.2       1 <0>        -0.4763
      9 N1          2.1162   -5.8814   -3.8195 N.am      1 <0>        -0.5948
     10 O2          2.7590   -6.4570   -4.9423 O.3       1 <0>        -0.3123
     11 S1          0.6110   -1.7951   -3.9876 S.o2      1 <0>         2.4883
     12 O3          1.3281   -2.0829   -5.1801 O.2       1 <0>        -0.8968
     13 O4         -0.7653   -2.1292   -3.8714 O.2       1 <0>        -0.9375
     14 C8          0.6610   -0.0396   -3.8454 C.ar      1 <0>        -0.6546
     15 C9         -0.4045    0.6314   -3.2479 C.ar      1 <0>        -0.0476
     16 C10        -0.3976    1.9865   -3.1228 C.ar      1 <0>        -0.1178
     17 C11         0.6990    2.7235   -3.6017 C.ar      1 <0>        -0.0133
     18 C12         0.7423    4.1237   -3.4899 C.ar      1 <0>        -0.1198
     19 C13         1.8210    4.8042   -3.9648 C.ar      1 <0>        -0.0937
     20 C14         2.8867    4.1332   -4.5620 C.ar      1 <0>        -0.1224
     21 C15         2.8795    2.7781   -4.6876 C.ar      1 <0>        -0.0898
     22 C16         1.7827    2.0412   -4.2089 C.ar      1 <0>        -0.0786
     23 C17         1.7420    0.6405   -4.3157 C.ar      1 <0>         0.0165
     24 H1          2.0460   -2.9859    2.5323 H         1 <0>         0.0542
     25 H2          3.1736   -1.6470    2.2098 H         1 <0>         0.0540
     26 H3          1.7740   -1.3936    3.2799 H         1 <0>         0.0552
     27 H4          0.2432   -1.7495    1.3620 H         1 <0>         0.0650
     28 H5          1.3708   -0.4106    1.0394 H         1 <0>         0.0636
     29 H6          2.8297   -1.9491   -0.2464 H         1 <0>         0.0682
     30 H7          1.7020   -3.2880    0.0762 H         1 <0>         0.0682
     31 H8         -0.0820   -2.1373   -1.1373 H         1 <0>         0.0875
     32 H9          0.9488   -0.7032   -1.3587 H         1 <0>         0.0852
     33 H10         2.5757   -2.1262   -2.6359 H         1 <0>         0.1513
     34 H11         1.8826   -4.2887   -1.5611 H         1 <0>         0.1289
     35 H12         0.3562   -4.2133   -2.4736 H         1 <0>         0.1170
     36 H13         1.6928   -6.4510   -3.1583 H         1 <0>         0.4093
     37 H14         2.7238   -7.4231   -4.9632 H         1 <0>         0.3890
     38 H15        -1.2485    0.0675   -2.8790 H         1 <0>         0.1421
     39 H16        -1.2307    2.4930   -2.6581 H         1 <0>         0.1366
     40 H17        -0.0764    4.6571   -3.0297 H         1 <0>         0.1325
     41 H18         1.8516    5.8802   -3.8779 H         1 <0>         0.1284
     42 H19         3.7306    4.6971   -4.9310 H         1 <0>         0.1289
     43 H20         3.7122    2.2716   -5.1529 H         1 <0>         0.1341
     44 H21         2.5625    0.1068   -4.7722 H         1 <0>         0.1472
@<TRIPOS>BOND
     1    1    2 1
     2    1   24 1
     3    1   25 1
     4    1   26 1
     5    2    3 1
     6    2   27 1
     7    2   28 1
     8    3    4 1
     9    3   29 1
    10    3   30 1
    11    4    5 1
    12    4   31 1
    13    4   32 1
    14    5    6 1
    15    5   11 1
    16    5   33 1
    17    6    7 1
    18    6   34 1
    19    6   35 1
    20    7    8 2
    21    7    9 am
    22    9   10 1
    23    9   36 1
    24   10   37 1
    25   11   12 2
    26   11   13 2
    27   11   14 1
    28   14   23 ar
    29   14   15 ar
    30   15   16 ar
    31   15   38 1
    32   16   17 ar
    33   16   39 1
    34   17   22 ar
    35   17   18 ar
    36   18   19 ar
    37   18   40 1
    38   19   20 ar
    39   19   41 1
    40   20   21 ar
    41   20   42 1
    42   21   22 ar
    43   21   43 1
    44   22   23 ar
    45   23   44 1
@<TRIPOS>MOLECULE
CHEMBL36605
   42    44     0     0     0
SMALL
USER_CHARGES

@<TRIPOS>ATOM
      1 C1         -0.0167    1.3781    0.0096 C.ar      1 <0>        -0.1198
      2 C2          1.1709    2.0855    0.0021 C.ar      1 <0>        -0.1168
      3 C3          2.3773    1.4107   -0.0130 C.ar      1 <0>        -0.1112
      4 C4          2.3960    0.0285   -0.0201 C.ar      1 <0>        -0.0853
      5 C5          1.2084   -0.6789   -0.0117 C.ar      1 <0>        -0.1158
      6 C6          0.0021   -0.0041    0.0020 C.ar      1 <0>        -0.1178
      7 C7          3.7112   -0.7071   -0.0376 C.3       1 <0>        -0.0953
      8 C8          4.1714   -0.9633    1.3989 C.3       1 <0>         0.0974
      9 N1          5.4498   -1.6784    1.3820 N.am      1 <0>        -0.5393
     10 C9          5.3880   -3.0687    1.3701 C.ar      1 <0>         0.1597
     11 C10         4.1914   -3.6920    1.0294 C.ar      1 <0>        -0.1445
     12 C11         4.1073   -5.0699    1.0015 C.ar      1 <0>        -0.0826
     13 C12         5.2094   -5.8461    1.3107 C.ar      1 <0>        -0.1258
     14 C13         6.4041   -5.2404    1.6541 C.ar      1 <0>        -0.0564
     15 C14         6.4925   -3.8586    1.6879 C.ar      1 <0>        -0.1444
     16 S1          8.0085   -3.0779    2.1471 S.3       1 <0>        -0.0414
     17 C15         7.9352   -1.5079    1.2312 C.3       1 <0>        -0.0829
     18 C16         6.5503   -0.9334    1.3741 C.2       1 <0>         0.5264
     19 O1          6.4343    0.2682    1.4927 O.2       1 <0>        -0.5002
     20 C17         8.2311   -1.7613   -0.2484 C.3       1 <0>        -0.1194
     21 C18         9.6505   -2.2439   -0.4013 C.2       1 <0>         0.5311
     22 O2         10.3560   -2.3725    0.5768 O.2       1 <0>        -0.4972
     23 N2         10.1360   -2.5327   -1.6250 N.am      1 <0>        -0.5962
     24 O3         11.4697   -2.9861   -1.7687 O.3       1 <0>        -0.3132
     25 H1         -0.9591    1.9053    0.0259 H         1 <0>         0.1225
     26 H2          1.1563    3.1654    0.0076 H         1 <0>         0.1234
     27 H3          3.3051    1.9634   -0.0196 H         1 <0>         0.1234
     28 H4          1.2231   -1.7588   -0.0176 H         1 <0>         0.1210
     29 H5         -0.9258   -0.5567    0.0082 H         1 <0>         0.1232
     30 H6          3.5884   -1.6586   -0.5549 H         1 <0>         0.0792
     31 H7          4.4573   -0.1052   -0.5563 H         1 <0>         0.0789
     32 H8          4.2941   -0.0118    1.9163 H         1 <0>         0.1040
     33 H9          3.4252   -1.5652    1.9176 H         1 <0>         0.0926
     34 H10         3.3247   -3.0954    0.7861 H         1 <0>         0.1356
     35 H11         3.1742   -5.5448    0.7368 H         1 <0>         0.1331
     36 H12         5.1369   -6.9233    1.2842 H         1 <0>         0.1340
     37 H13         7.2665   -5.8437    1.8961 H         1 <0>         0.1372
     38 H14         8.6667   -0.8108    1.6400 H         1 <0>         0.1614
     39 H15         7.5467   -2.5184   -0.6313 H         1 <0>         0.1064
     40 H16         8.0996   -0.8358   -0.8089 H         1 <0>         0.1176
     41 H17         9.5717   -2.4298   -2.4073 H         1 <0>         0.4082
     42 H18        11.7272   -3.1673   -2.6830 H         1 <0>         0.3892
@<TRIPOS>BOND
     1    1    6 ar
     2    1    2 ar
     3    1   25 1
     4    2    3 ar
     5    2   26 1
     6    3    4 ar
     7    3   27 1
     8    4    5 ar
     9    4    7 1
    10    5    6 ar
    11    5   28 1
    12    6   29 1
    13    7    8 1
    14    7   30 1
    15    7   31 1
    16    8    9 1
    17    8   32 1
    18    8   33 1
    19    9   18 am
    20    9   10 1
    21   10   15 ar
    22   10   11 ar
    23   11   12 ar
    24   11   34 1
    25   12   13 ar
    26   12   35 1
    27   13   14 ar
    28   13   36 1
    29   14   15 ar
    30   14   37 1
    31   15   16 1
    32   16   17 1
    33   17   18 1
    34   17   20 1
    35   17   38 1
    36   18   19 2
    37   20   21 1
    38   20   39 1
    39   20   40 1
    40   21   22 2
    41   21   23 am
    42   23   24 1
    43   23   41 1
    44   24   42 1
@<TRIPOS>MOLECULE
CHEMBL36605__1
   42    44     0     0     0
SMALL
USER_CHARGES

@<TRIPOS>ATOM
      1 C1          0.1180    1.5508    2.8829 C.ar      1 <0>        -0.1199
      2 C2          0.1450    0.1791    3.0519 C.ar      1 <0>        -0.1180
      3 C3          1.3513   -0.4958    3.0350 C.ar      1 <0>        -0.1159
      4 C4          2.5305    0.2009    2.8486 C.ar      1 <0>        -0.0852
      5 C5          2.5035    1.5725    2.6786 C.ar      1 <0>        -0.1110
      6 C6          1.2974    2.2476    2.6969 C.ar      1 <0>        -0.1169
      7 C7          3.8457   -0.5347    2.8311 C.3       1 <0>        -0.0942
      8 C8          4.1714   -0.9633    1.3989 C.3       1 <0>         0.0981
      9 N1          5.4498   -1.6784    1.3820 N.am      1 <0>        -0.5395
     10 C9          5.3912   -3.0655    1.4784 C.ar      1 <0>         0.1599
     11 C10         4.2181   -3.6658    1.9255 C.ar      1 <0>        -0.1442
     12 C11         4.1385   -5.0395    2.0395 C.ar      1 <0>        -0.0824
     13 C12         5.2218   -5.8343    1.7120 C.ar      1 <0>        -0.1260
     14 C13         6.3927   -5.2518    1.2625 C.ar      1 <0>        -0.0562
     15 C14         6.4762   -3.8745    1.1421 C.ar      1 <0>        -0.1447
     16 S1          7.9608   -3.1246    0.5488 S.3       1 <0>        -0.0420
     17 C15         7.9395   -1.5037    1.3743 C.3       1 <0>        -0.0831
     18 C16         6.5470   -0.9368    1.2707 C.2       1 <0>         0.5264
     19 O1          6.4212    0.2546    1.0809 O.2       1 <0>        -0.4995
     20 C17         8.3233   -1.6710    2.8459 C.3       1 <0>        -0.1188
     21 C18         9.7502   -2.1464    2.9420 C.2       1 <0>         0.5311
     22 O2         10.3964   -2.3330    1.9328 O.2       1 <0>        -0.4972
     23 N2         10.3081   -2.3642    4.1493 N.am      1 <0>        -0.5962
     24 O3         11.6488   -2.8108    4.2396 O.3       1 <0>        -0.3131
     25 H1         -0.8248    2.0775    2.8916 H         1 <0>         0.1225
     26 H2         -0.7763   -0.3653    3.1976 H         1 <0>         0.1232
     27 H3          1.3724   -1.5674    3.1678 H         1 <0>         0.1210
     28 H4          3.4249    2.1169    2.5333 H         1 <0>         0.1235
     29 H5          1.2763    3.3192    2.5645 H         1 <0>         0.1234
     30 H6          4.6336    0.1206    3.2023 H         1 <0>         0.0794
     31 H7          3.7770   -1.4169    3.4676 H         1 <0>         0.0783
     32 H8          3.3835   -1.6187    1.0277 H         1 <0>         0.0938
     33 H9          4.2400   -0.0811    0.7624 H         1 <0>         0.1016
     34 H10         3.3664   -3.0545    2.1848 H         1 <0>         0.1352
     35 H11         3.2238   -5.4965    2.3872 H         1 <0>         0.1331
     36 H12         5.1536   -6.9079    1.8074 H         1 <0>         0.1340
     37 H13         7.2407   -5.8696    1.0065 H         1 <0>         0.1372
     38 H14         8.6441   -0.8330    0.8828 H         1 <0>         0.1610
     39 H15         8.2239   -0.7142    3.3584 H         1 <0>         0.1175
     40 H16         7.6643   -2.4033    3.3123 H         1 <0>         0.1064
     41 H17         9.7912   -2.2149    4.9565 H         1 <0>         0.4082
     42 H18        11.9605   -2.9388    5.1460 H         1 <0>         0.3892
@<TRIPOS>BOND
     1    1    6 ar
     2    1    2 ar
     3    1   25 1
     4    2    3 ar
     5    2   26 1
     6    3    4 ar
     7    3   27 1
     8    4    5 ar
     9    4    7 1
    10    5    6 ar
    11    5   28 1
    12    6   29 1
    13    7    8 1
    14    7   30 1
    15    7   31 1
    16    8    9 1
    17    8   32 1
    18    8   33 1
    19    9   18 am
    20    9   10 1
    21   10   15 ar
    22   10   11 ar
    23   11   12 ar
    24   11   34 1
    25   12   13 ar
    26   12   35 1
    27   13   14 ar
    28   13   36 1
    29   14   15 ar
    30   14   37 1
    31   15   16 1
    32   16   17 1
    33   17   18 1
    34   17   20 1
    35   17   38 1
    36   18   19 2
    37   20   21 1
    38   20   39 1
    39   20   40 1
    40   21   22 2
    41   21   23 am
    42   23   24 1
    43   23   41 1
    44   24   42 1
@<TRIPOS>MOLECULE
CHEMBL157797
   60    61     0     0     0
SMALL
USER_CHARGES

@<TRIPOS>ATOM
      1 C1         -0.6069    1.7738   -1.0110 C.3       1 <0>        -0.1544
      2 C2         -0.5762    0.2909   -0.6356 C.3       1 <0>        -0.0676
      3 C3         -0.2866    0.1493    0.8601 C.3       1 <0>        -0.1497
      4 C4         -1.9310   -0.3443   -0.9551 C.3       1 <0>        -0.1344
      5 C5          0.5197   -0.4153   -1.4363 C.3       1 <0>         0.1157
      6 H1          0.2549   -0.4146   -2.4936 H         1 <0>         0.1159
      7 C6          1.8273    0.3091   -1.2455 C.2       1 <0>         0.3946
      8 O1          1.9494    1.1131   -0.3458 O.2       1 <0>        -0.4181
      9 C7          2.9549    0.0413   -2.1500 C.ar      1 <0>        -0.1867
     10 C8          2.7834   -0.7962   -3.2579 C.ar      1 <0>        -0.0382
     11 C9          3.8441   -1.0431   -4.1014 C.ar      1 <0>        -0.1658
     12 C10         5.0801   -0.4641   -3.8543 C.ar      1 <0>         0.1377
     13 C11         5.2569    0.3671   -2.7578 C.ar      1 <0>        -0.1663
     14 C12         4.2029    0.6272   -1.9100 C.ar      1 <0>        -0.0277
     15 F1          6.1166   -0.7110   -4.6850 F         1 <0>        -0.1301
     16 N1          0.6539   -1.7968   -0.9674 N.am      1 <0>        -0.7170
     17 C13        -0.1492   -2.7582   -1.4646 C.2       1 <0>         0.5254
     18 O2         -0.9830   -2.4797   -2.3002 O.2       1 <0>        -0.5091
     19 C14        -0.0112   -4.1792   -0.9822 C.3       1 <0>        -0.1323
     20 H2          0.9949   -4.5396   -1.1967 H         1 <0>         0.1061
     21 C15        -1.0333   -5.0630   -1.7000 C.3       1 <0>        -0.0878
     22 C16        -0.6850   -6.5350   -1.4705 C.3       1 <0>        -0.1135
     23 C17         0.6169   -6.8926   -2.2168 C.3       1 <0>        -0.1215
     24 C18         0.3768   -8.3341   -2.7302 C.3       1 <0>        -0.1246
     25 C19        -1.1178   -8.3079   -3.1359 C.3       1 <0>        -0.1254
     26 C20        -1.7880   -7.4349   -2.0549 C.3       1 <0>        -0.1168
     27 C21        -0.2612   -4.2323    0.5263 C.3       1 <0>         0.1437
     28 N2          0.0552   -5.5723    1.0268 N.am      1 <0>        -0.4705
     29 C22         1.3303   -6.0089    1.0244 C.2       1 <0>         0.4775
     30 O3          1.5923   -7.1182    1.4388 O.2       1 <0>        -0.5412
     31 O4         -0.9786   -6.4088    1.5133 O.3       1 <0>        -0.3273
     32 H3          0.3185    2.2498   -0.6869 H         1 <0>         0.0727
     33 H4         -0.7074    1.8729   -2.0918 H         1 <0>         0.0528
     34 H5         -1.4537    2.2550   -0.5217 H         1 <0>         0.0617
     35 H6         -1.1436    0.5060    1.4314 H         1 <0>         0.0555
     36 H7         -0.1028   -0.8986    1.0970 H         1 <0>         0.0488
     37 H8          0.5928    0.7397    1.1174 H         1 <0>         0.0768
     38 H9         -2.1373   -0.2434   -2.0206 H         1 <0>         0.0602
     39 H10        -1.9091   -1.4007   -0.6877 H         1 <0>         0.0578
     40 H11        -2.7117    0.1588   -0.3847 H         1 <0>         0.0518
     41 H12         1.8218   -1.2483   -3.4510 H         1 <0>         0.1408
     42 H13         3.7131   -1.6893   -4.9568 H         1 <0>         0.1443
     43 H14         6.2218    0.8148   -2.5711 H         1 <0>         0.1449
     44 H15         4.3406    1.2780   -1.0591 H         1 <0>         0.1460
     45 H16         1.3207   -2.0195   -0.2991 H         1 <0>         0.4028
     46 H17        -2.0293   -4.8596   -1.3066 H         1 <0>         0.0711
     47 H18        -1.0135   -4.8472   -2.7683 H         1 <0>         0.0776
     48 H19        -0.5705   -6.7295   -0.4042 H         1 <0>         0.0982
     49 H20         0.7768   -6.2116   -3.0527 H         1 <0>         0.0650
     50 H21         1.4668   -6.8672   -1.5348 H         1 <0>         0.0558
     51 H22         1.0077   -8.5468   -3.5932 H         1 <0>         0.0637
     52 H23         0.5488   -9.0607   -1.9361 H         1 <0>         0.0652
     53 H24        -1.2380   -7.8555   -4.1202 H         1 <0>         0.0637
     54 H25        -1.5338   -9.3153   -3.1247 H         1 <0>         0.0624
     55 H26        -2.2081   -8.0667   -1.2723 H         1 <0>         0.0611
     56 H27        -2.5713   -6.8229   -2.5020 H         1 <0>         0.0630
     57 H28         0.3721   -3.4990    1.0256 H         1 <0>         0.0905
     58 H29        -1.3081   -4.0065    0.7292 H         1 <0>         0.1077
     59 H30         2.1188   -5.3709    0.6533 H         1 <0>         0.1493
     60 H31        -0.6730   -7.2728    1.8217 H         1 <0>         0.3985
@<TRIPOS>BOND
     1    1    2 1
     2    1   32 1
     3    1   33 1
     4    1   34 1
     5    2    3 1
     6    2    4 1
     7    2    5 1
     8    3   35 1
     9    3   36 1
    10    3   37 1
    11    4   38 1
    12    4   39 1
    13    4   40 1
    14    5    6 1
    15    5    7 1
    16    5   16 1
    17    7    8 2
    18    7    9 1
    19    9   14 ar
    20    9   10 ar
    21   10   11 ar
    22   10   41 1
    23   11   12 ar
    24   11   42 1
    25   12   13 ar
    26   12   15 1
    27   13   14 ar
    28   13   43 1
    29   14   44 1
    30   16   17 am
    31   16   45 1
    32   17   18 2
    33   17   19 1
    34   19   20 1
    35   19   21 1
    36   19   27 1
    37   21   22 1
    38   21   46 1
    39   21   47 1
    40   22   26 1
    41   22   23 1
    42   22   48 1
    43   23   24 1
    44   23   49 1
    45   23   50 1
    46   24   25 1
    47   24   51 1
    48   24   52 1
    49   25   26 1
    50   25   53 1
    51   25   54 1
    52   26   55 1
    53   26   56 1
    54   27   28 1
    55   27   57 1
    56   27   58 1
    57   28   29 am
    58   28   31 1
    59   29   30 2
    60   29   59 1
    61   31   60 1
@<TRIPOS>MOLECULE
CHEMBL216480
   27    28     0     0     0
SMALL
USER_CHARGES

@<TRIPOS>ATOM
      1 C1         -0.0168    1.3846    0.0097 C.ar      1 <0>        -0.0743
      2 C2          1.1585    2.1032    0.0023 C.ar      1 <0>        -0.1198
      3 C3          2.3791    1.4370   -0.0129 C.ar      1 <0>         0.1096
      4 C4          2.3991    0.0303   -0.0206 C.ar      1 <0>        -0.0897
      5 C5          1.1996   -0.6840   -0.0134 C.ar      1 <0>        -0.0393
      6 C6          0.0021   -0.0041    0.0020 C.ar      1 <0>        -0.1135
      7 Br1        -1.6256   -0.9666    0.0130 Br        1 <0>        -0.0525
      8 C7          3.8125   -0.3545   -0.0361 C.2       1 <0>        -0.1641
      9 C8          4.5285    0.7809   -0.0369 C.2       1 <0>         0.0745
     10 N1          3.6895    1.8616   -0.0231 N.pl3     1 <0>        -0.5901
     11 H1          3.9749    2.7887   -0.0209 H         1 <0>         0.4204
     12 C9          4.3591   -1.7589   -0.0481 C.3       1 <0>        -0.0887
     13 C10         4.4121   -2.2652   -1.4665 C.2       1 <0>         0.3571
     14 O1          4.0441   -1.5586   -2.3740 O.2       1 <0>        -0.4250
     15 C11         4.9245   -3.6533   -1.7524 C.3       1 <0>        -0.0016
     16 N2          4.8754   -3.9051   -3.1989 N.3       1 <0>        -0.4975
     17 O2          5.3665   -5.2466   -3.5145 O.3       1 <0>        -0.4271
     18 H2         -0.9622    1.9064    0.0260 H         1 <0>         0.1363
     19 H3          1.1320    3.1829    0.0079 H         1 <0>         0.1304
     20 H4          1.2108   -1.7639   -0.0195 H         1 <0>         0.1286
     21 H5          5.6072    0.8337   -0.0463 H         1 <0>         0.1742
     22 H6          5.3630   -1.7617    0.3765 H         1 <0>         0.1116
     23 H7          3.7121   -2.4056    0.5446 H         1 <0>         0.1088
     24 H8          5.9534   -3.7399   -1.4032 H         1 <0>         0.1198
     25 H9          4.3025   -4.3838   -1.2352 H         1 <0>         0.0787
     26 H10         3.9427   -3.7676   -3.5584 H         1 <0>         0.3432
     27 H11         5.3531   -5.4585   -4.4579 H         1 <0>         0.3899
@<TRIPOS>BOND
     1    1    6 ar
     2    1    2 ar
     3    1   18 1
     4    2    3 ar
     5    2   19 1
     6    3   10 1
     7    3    4 ar
     8    4    5 ar
     9    4    8 1
    10    5    6 ar
    11    5   20 1
    12    6    7 1
    13    8    9 2
    14    8   12 1
    15    9   10 1
    16    9   21 1
    17   10   11 1
    18   12   13 1
    19   12   22 1
    20   12   23 1
    21   13   14 2
    22   13   15 1
    23   15   16 1
    24   15   24 1
    25   15   25 1
    26   16   17 1
    27   16   26 1
    28   17   27 1
@<TRIPOS>MOLECULE
CHEMBL89914
   61    61     0     0     0
SMALL
USER_CHARGES

@<TRIPOS>ATOM
      1 C1         -2.2549   -3.8449   -1.7748 C.3       1 <0>        -0.1526
      2 C2         -0.8523   -3.2557   -1.6113 C.3       1 <0>        -0.1212
      3 C3         -0.3921   -3.4288   -0.1625 C.3       1 <0>        -0.1248
      4 C4          1.0104   -2.8397    0.0010 C.3       1 <0>        -0.0961
      5 C5          1.4174   -2.8930    1.4749 C.3       1 <0>        -0.1310
      6 H1          0.6513   -2.4095    2.0811 H         1 <0>         0.1051
      7 C6          2.7504   -2.1658    1.6625 C.3       1 <0>         0.1447
      8 N1          2.5784   -0.7437    1.3552 N.am      1 <0>        -0.4751
      9 C7          1.9302    0.0594    2.2220 C.2       1 <0>         0.4788
     10 O1          1.7878    1.2366    1.9676 O.2       1 <0>        -0.5462
     11 O2          3.0931   -0.2131    0.1476 O.3       1 <0>        -0.3315
     12 C8          1.5645   -4.3302    1.9037 C.2       1 <0>         0.5276
     13 O3          1.3636   -5.2238    1.1088 O.2       1 <0>        -0.5188
     14 N2          1.9193   -4.6224    3.1707 N.am      1 <0>        -0.7082
     15 C9          2.0623   -6.0196    3.5876 C.3       1 <0>         0.1279
     16 H2          2.4575   -6.6073    2.7591 H         1 <0>         0.1170
     17 C10         3.0234   -6.1016    4.7752 C.3       1 <0>        -0.1216
     18 C11         4.4153   -5.6413    4.3375 C.3       1 <0>        -0.0838
     19 C12         4.9718   -6.6167    3.2984 C.3       1 <0>        -0.1199
     20 C13         6.3637   -6.1563    2.8607 C.3       1 <0>        -0.1186
     21 C14         7.2938   -6.1194    4.0749 C.3       1 <0>        -0.1214
     22 C15         6.7374   -5.1439    5.1141 C.3       1 <0>        -0.1198
     23 C16         5.3455   -5.6043    5.5517 C.3       1 <0>        -0.1146
     24 C17         0.7163   -6.5633    3.9922 C.2       1 <0>         0.5039
     25 O4         -0.1523   -5.8087    4.3757 O.2       1 <0>        -0.5313
     26 N3          0.4777   -7.8882    3.9279 N.am      1 <0>        -0.6179
     27 C18        -0.8623   -8.4060    4.2151 C.3       1 <0>         0.0830
     28 C19         1.5585   -8.8106    3.5709 C.3       1 <0>         0.0694
     29 H3         -2.9461   -3.3274   -1.1097 H         1 <0>         0.0519
     30 H4         -2.5827   -3.7216   -2.8069 H         1 <0>         0.0529
     31 H5         -2.2349   -4.9055   -1.5241 H         1 <0>         0.0532
     32 H6         -0.1611   -3.7733   -2.2764 H         1 <0>         0.0608
     33 H7         -0.8723   -2.1951   -1.8619 H         1 <0>         0.0576
     34 H8         -1.0834   -2.9113    0.5026 H         1 <0>         0.0538
     35 H9         -0.3721   -4.4895    0.0881 H         1 <0>         0.0790
     36 H10         1.7187   -3.4176   -0.5927 H         1 <0>         0.0733
     37 H11         1.0113   -1.8040   -0.3390 H         1 <0>         0.0738
     38 H12         3.0827   -2.2768    2.6947 H         1 <0>         0.0946
     39 H13         3.4957   -2.5947    0.9927 H         1 <0>         0.1052
     40 H14         1.5375   -0.3454    3.1431 H         1 <0>         0.1531
     41 H15         2.9309    0.7333    0.0331 H         1 <0>         0.3983
     42 H16         2.0800   -3.9077    3.8065 H         1 <0>         0.4047
     43 H17         2.6640   -5.4586    5.5786 H         1 <0>         0.0804
     44 H18         3.0759   -7.1310    5.1297 H         1 <0>         0.0859
     45 H19         4.3479   -4.6448    3.9010 H         1 <0>         0.0752
     46 H20         5.0392   -7.6132    3.7349 H         1 <0>         0.0646
     47 H21         4.3091   -6.6430    2.4333 H         1 <0>         0.0633
     48 H22         6.7601   -6.8513    2.1204 H         1 <0>         0.0623
     49 H23         6.2962   -5.1599    2.4242 H         1 <0>         0.0612
     50 H24         7.3613   -7.1158    4.5114 H         1 <0>         0.0615
     51 H25         8.2855   -5.7914    3.7631 H         1 <0>         0.0609
     52 H26         7.4001   -5.1176    5.9791 H         1 <0>         0.0622
     53 H27         6.6700   -4.1474    4.6775 H         1 <0>         0.0614
     54 H28         4.9491   -4.9094    6.2921 H         1 <0>         0.0633
     55 H29         5.4129   -6.6008    5.9883 H         1 <0>         0.0639
     56 H30        -1.4433   -8.4415    3.2935 H         1 <0>         0.0559
     57 H31        -0.7822   -9.4095    4.6329 H         1 <0>         0.0715
     58 H32        -1.3584   -7.7522    4.9324 H         1 <0>         0.0778
     59 H33         2.4932   -8.2574    3.4800 H         1 <0>         0.0796
     60 H34         1.6595   -9.5696    4.3468 H         1 <0>         0.0687
     61 H35         1.3268   -9.2913    2.6205 H         1 <0>         0.0650
@<TRIPOS>BOND
     1    1    2 1
     2    1   29 1
     3    1   30 1
     4    1   31 1
     5    2    3 1
     6    2   32 1
     7    2   33 1
     8    3    4 1
     9    3   34 1
    10    3   35 1
    11    4    5 1
    12    4   36 1
    13    4   37 1
    14    5    6 1
    15    5    7 1
    16    5   12 1
    17    7    8 1
    18    7   38 1
    19    7   39 1
    20    8    9 am
    21    8   11 1
    22    9   10 2
    23    9   40 1
    24   11   41 1
    25   12   13 2
    26   12   14 am
    27   14   15 1
    28   14   42 1
    29   15   16 1
    30   15   17 1
    31   15   24 1
    32   17   18 1
    33   17   43 1
    34   17   44 1
    35   18   23 1
    36   18   19 1
    37   18   45 1
    38   19   20 1
    39   19   46 1
    40   19   47 1
    41   20   21 1
    42   20   48 1
    43   20   49 1
    44   21   22 1
    45   21   50 1
    46   21   51 1
    47   22   23 1
    48   22   52 1
    49   22   53 1
    50   23   54 1
    51   23   55 1
    52   24   25 2
    53   24   26 am
    54   26   27 1
    55   26   28 1
    56   27   56 1
    57   27   57 1
    58   27   58 1
    59   28   59 1
    60   28   60 1
    61   28   61 1
@<TRIPOS>MOLECULE
CHEMBL84969
   54    53     0     0     0
SMALL
USER_CHARGES

@<TRIPOS>ATOM
      1 C1          0.9406   -3.9064    3.0643 C.3       1 <0>        -0.1526
      2 C2          0.5041   -3.0597    1.8671 C.3       1 <0>        -0.1219
      3 C3          1.2777   -3.4993    0.6224 C.3       1 <0>        -0.1241
      4 C4          0.8413   -2.6526   -0.5748 C.3       1 <0>        -0.0967
      5 C5          1.7047   -3.0022   -1.7886 C.3       1 <0>        -0.1310
      6 C6          1.3867   -2.0399   -2.9348 C.3       1 <0>         0.1429
      7 N1          1.7652   -0.6784   -2.5487 N.am      1 <0>        -0.4748
      8 C7          3.0651   -0.3239   -2.5160 C.2       1 <0>         0.4790
      9 O1          3.3784    0.8033   -2.1963 O.2       1 <0>        -0.5465
     10 O2          0.7653    0.2652   -2.2097 O.3       1 <0>        -0.3316
     11 C8          1.4119   -4.4152   -2.2230 C.2       1 <0>         0.5262
     12 O3          0.5933   -5.0774   -1.6212 O.2       1 <0>        -0.5140
     13 N2          2.0598   -4.9430   -3.2805 N.am      1 <0>        -0.7147
     14 C9          1.7753   -6.3166   -3.7028 C.3       1 <0>         0.1354
     15 H1          1.5668   -6.9304   -2.8265 H         1 <0>         0.1119
     16 C10         2.9686   -6.8746   -4.4346 C.2       1 <0>         0.5162
     17 O4          3.6916   -6.1352   -5.0682 O.2       1 <0>        -0.5312
     18 N3          3.2325   -8.1954   -4.3850 N.am      1 <0>        -0.6148
     19 C11         4.4548   -8.7217   -4.9976 C.3       1 <0>         0.0817
     20 C12         2.2971   -9.1047   -3.7184 C.3       1 <0>         0.0575
     21 C13         0.5590   -6.3232   -4.6310 C.3       1 <0>        -0.0719
     22 C14         0.8772   -5.5208   -5.8943 C.3       1 <0>        -0.1437
     23 C15         0.2180   -7.7645   -5.0147 C.3       1 <0>        -0.1568
     24 C16        -0.6345   -5.6907   -3.9123 C.3       1 <0>        -0.1321
     25 H2          0.7345   -4.9572    2.8607 H         1 <0>         0.0537
     26 H3          2.0088   -3.7720    3.2343 H         1 <0>         0.0515
     27 H4          0.3894   -3.5932    3.9511 H         1 <0>         0.0528
     28 H5         -0.5642   -3.1941    1.6972 H         1 <0>         0.0614
     29 H6          0.7102   -2.0089    2.0707 H         1 <0>         0.0574
     30 H7          2.3460   -3.3648    0.7923 H         1 <0>         0.0532
     31 H8          1.0716   -4.5500    0.4188 H         1 <0>         0.0797
     32 H9         -0.2050   -2.8569   -0.8022 H         1 <0>         0.0745
     33 H10         0.9614   -1.5959   -0.3357 H         1 <0>         0.0738
     34 H11         2.7581   -2.9147   -1.5224 H         1 <0>         0.1040
     35 H12         1.9464   -2.3347   -3.8225 H         1 <0>         0.0958
     36 H13         0.3189   -2.0727   -3.1511 H         1 <0>         0.1051
     37 H14         3.8277   -1.0436   -2.7746 H         1 <0>         0.1532
     38 H15         1.1112    1.1355   -1.9688 H         1 <0>         0.3983
     39 H16         2.7146   -4.4134   -3.7618 H         1 <0>         0.4083
     40 H17         5.2599   -8.7186   -4.2629 H         1 <0>         0.0579
     41 H18         4.2794   -9.7415   -5.3402 H         1 <0>         0.0731
     42 H19         4.7344   -8.0965   -5.8456 H         1 <0>         0.0800
     43 H20         1.4336   -8.5418   -3.3638 H         1 <0>         0.0916
     44 H21         1.9684   -9.8685   -4.4231 H         1 <0>         0.0713
     45 H22         2.7932   -9.5802   -2.8723 H         1 <0>         0.0641
     46 H23         1.7274   -5.9714   -6.4063 H         1 <0>         0.0598
     47 H24         0.0107   -5.5255   -6.5556 H         1 <0>         0.0595
     48 H25         1.1201   -4.4940   -5.6210 H         1 <0>         0.0574
     49 H26        -0.0837   -8.3159   -4.1241 H         1 <0>         0.0656
     50 H27        -0.5989   -7.7648   -5.7363 H         1 <0>         0.0662
     51 H28         1.0936   -8.2396   -5.4569 H         1 <0>         0.0618
     52 H29        -0.3915   -4.6639   -3.6390 H         1 <0>         0.0540
     53 H30        -1.5010   -5.6954   -4.5735 H         1 <0>         0.0544
     54 H31        -0.8612   -6.2624   -3.0123 H         1 <0>         0.0683
@<TRIPOS>BOND
     1    1    2 1
     2    1   25 1
     3    1   26 1
     4    1   27 1
     5    2    3 1
     6    2   28 1
     7    2   29 1
     8    3    4 1
     9    3   30 1
    10    3   31 1
    11    4    5 1
    12    4   32 1
    13    4   33 1
    14    5    6 1
    15    5   11 1
    16    5   34 1
    17    6    7 1
    18    6   35 1
    19    6   36 1
    20    7    8 am
    21    7   10 1
    22    8    9 2
    23    8   37 1
    24   10   38 1
    25   11   12 2
    26   11   13 am
    27   13   14 1
    28   13   39 1
    29   14   15 1
    30   14   16 1
    31   14   21 1
    32   16   17 2
    33   16   18 am
    34   18   19 1
    35   18   20 1
    36   19   40 1
    37   19   41 1
    38   19   42 1
    39   20   43 1
    40   20   44 1
    41   20   45 1
    42   21   22 1
    43   21   23 1
    44   21   24 1
    45   22   46 1
    46   22   47 1
    47   22   48 1
    48   23   49 1
    49   23   50 1
    50   23   51 1
    51   24   52 1
    52   24   53 1
    53   24   54 1
@<TRIPOS>MOLECULE
CHEMBL84969__1
   54    53     0     0     0
SMALL
USER_CHARGES

@<TRIPOS>ATOM
      1 C1          1.9845    1.9268   -0.0590 C.3       1 <0>        -0.1547
      2 C2          1.5719    0.4536   -0.0726 C.3       1 <0>        -0.1251
      3 C3          2.2290   -0.2492   -1.2622 C.3       1 <0>        -0.1256
      4 C4          1.8163   -1.7224   -1.2758 C.3       1 <0>        -0.0977
      5 C5          2.4735   -2.4252   -2.4654 C.3       1 <0>        -0.1303
      6 C6          3.9920   -2.4319   -2.2786 C.3       1 <0>         0.1387
      7 N1          4.6283   -2.9970   -3.4711 N.am      1 <0>        -0.4872
      8 C7          4.7099   -2.2672   -4.6012 C.2       1 <0>         0.4725
      9 O1          5.2366   -2.7350   -5.5884 O.2       1 <0>        -0.5360
     10 O2          5.1575   -4.3099   -3.4363 O.3       1 <0>        -0.3285
     11 C8          1.9716   -3.8436   -2.5508 C.2       1 <0>         0.5204
     12 O3          1.1675   -4.2521   -1.7400 O.2       1 <0>        -0.5302
     13 N2          2.4163   -4.6581   -3.5282 N.am      1 <0>        -0.7008
     14 C9          1.9284   -6.0369   -3.6112 C.3       1 <0>         0.1358
     15 H1          1.7661   -6.4260   -2.6061 H         1 <0>         0.1084
     16 C10         2.9489   -6.8890   -4.3210 C.2       1 <0>         0.5190
     17 O4          3.6476   -6.4044   -5.1858 O.2       1 <0>        -0.5274
     18 N3          3.0851   -8.1895   -3.9947 N.am      1 <0>        -0.6160
     19 C11         4.1458   -8.9917   -4.6092 C.3       1 <0>         0.0830
     20 C12         2.1724   -8.8011   -3.0255 C.3       1 <0>         0.0633
     21 C13         0.6108   -6.0658   -4.3882 C.3       1 <0>        -0.0726
     22 C14         0.8052   -5.3904   -5.7473 C.3       1 <0>        -0.1419
     23 C15         0.1739   -7.5170   -4.5978 C.3       1 <0>        -0.1551
     24 C16        -0.4645   -5.3187   -3.5967 C.3       1 <0>        -0.1310
     25 H2          3.0685    1.9997    0.0294 H         1 <0>         0.0537
     26 H3          1.6627    2.4028   -0.9853 H         1 <0>         0.0538
     27 H4          1.5163    2.4275    0.7885 H         1 <0>         0.0543
     28 H5          1.8937   -0.0224    0.8536 H         1 <0>         0.0631
     29 H6          0.4879    0.3807   -0.1610 H         1 <0>         0.0632
     30 H7          1.9072    0.2268   -2.1885 H         1 <0>         0.0657
     31 H8          3.3129   -0.1763   -1.1738 H         1 <0>         0.0648
     32 H9          2.1382   -2.1984   -0.3495 H         1 <0>         0.0758
     33 H10         0.7324   -1.7953   -1.3642 H         1 <0>         0.0810
     34 H11         2.2228   -1.8951   -3.3843 H         1 <0>         0.1026
     35 H12         4.3441   -1.4113   -2.1280 H         1 <0>         0.1091
     36 H13         4.2484   -3.0367   -1.4088 H         1 <0>         0.1029
     37 H14         4.3063   -1.2658   -4.6277 H         1 <0>         0.1538
     38 H15         5.5569   -4.5952   -4.2695 H         1 <0>         0.4002
     39 H16         3.0594   -4.3313   -4.1767 H         1 <0>         0.4096
     40 H17         5.0465   -8.9324   -3.9982 H         1 <0>         0.0569
     41 H18         3.8218  -10.0301   -4.6790 H         1 <0>         0.0717
     42 H19         4.3582   -8.6095   -5.6077 H         1 <0>         0.0794
     43 H20         1.4771   -8.0475   -2.6556 H         1 <0>         0.0865
     44 H21         1.6151   -9.6041   -3.5078 H         1 <0>         0.0690
     45 H22         2.7460   -9.2065   -2.1920 H         1 <0>         0.0649
     46 H23         1.5713   -5.9226   -6.3112 H         1 <0>         0.0610
     47 H24        -0.1335   -5.4110   -6.3008 H         1 <0>         0.0587
     48 H25         1.1164   -4.3565   -5.5980 H         1 <0>         0.0541
     49 H26        -0.0290   -7.9786   -3.6314 H         1 <0>         0.0645
     50 H27        -0.7289   -7.5402   -5.2082 H         1 <0>         0.0652
     51 H28         0.9683   -8.0662   -5.1031 H         1 <0>         0.0593
     52 H29        -0.1533   -4.2848   -3.4474 H         1 <0>         0.0590
     53 H30        -1.4033   -5.3393   -4.1503 H         1 <0>         0.0530
     54 H31        -0.6031   -5.7999   -2.6285 H         1 <0>         0.0623
@<TRIPOS>BOND
     1    1    2 1
     2    1   25 1
     3    1   26 1
     4    1   27 1
     5    2    3 1
     6    2   28 1
     7    2   29 1
     8    3    4 1
     9    3   30 1
    10    3   31 1
    11    4    5 1
    12    4   32 1
    13    4   33 1
    14    5    6 1
    15    5   11 1
    16    5   34 1
    17    6    7 1
    18    6   35 1
    19    6   36 1
    20    7    8 am
    21    7   10 1
    22    8    9 2
    23    8   37 1
    24   10   38 1
    25   11   12 2
    26   11   13 am
    27   13   14 1
    28   13   39 1
    29   14   15 1
    30   14   16 1
    31   14   21 1
    32   16   17 2
    33   16   18 am
    34   18   19 1
    35   18   20 1
    36   19   40 1
    37   19   41 1
    38   19   42 1
    39   20   43 1
    40   20   44 1
    41   20   45 1
    42   21   22 1
    43   21   23 1
    44   21   24 1
    45   22   46 1
    46   22   47 1
    47   22   48 1
    48   23   49 1
    49   23   50 1
    50   23   51 1
    51   24   52 1
    52   24   53 1
    53   24   54 1
@<TRIPOS>MOLECULE
CHEMBL364836
   64    64     0     0     0
SMALL
USER_CHARGES

@<TRIPOS>ATOM
      1 C1          0.1645    1.3718    0.2776 C.3       1 <0>        -0.0713
      2 C2          0.0224   -0.1102   -0.0750 C.3       1 <0>        -0.0907
      3 C3          0.8946   -0.9442    0.8656 C.3       1 <0>        -0.1365
      4 C4         -1.4403   -0.5327    0.0771 C.3       1 <0>        -0.1688
      5 C5          0.4707   -0.3359   -1.5204 C.3       1 <0>         0.1339
      6 H1          0.3242   -1.3819   -1.7894 H         1 <0>         0.1134
      7 C6         -0.3369    0.5409   -2.4426 C.2       1 <0>         0.5090
      8 O1         -0.1263    0.5448   -3.6370 O.2       1 <0>        -0.5282
      9 N1         -1.3147    1.3332   -1.9008 N.am      1 <0>        -0.7349
     10 C7         -2.0545    2.1574   -2.8886 C.3       1 <0>         0.0949
     11 C8         -2.2362    3.5616   -2.3090 C.3       1 <0>        -0.1348
     12 C9         -1.0749    4.4520   -2.7557 C.3       1 <0>        -0.1166
     13 C10        -0.8840    5.5856   -1.7460 C.3       1 <0>        -0.1192
     14 C11         0.3821    6.3709   -2.0940 C.3       1 <0>        -0.1231
     15 C12         1.2829    6.4588   -0.8603 C.3       1 <0>        -0.1226
     16 C13         2.6813    5.9477   -1.2126 C.3       1 <0>        -0.1169
     17 C14         3.1491    4.9618   -0.1402 C.3       1 <0>        -0.1199
     18 C15         4.1291    3.9628   -0.7587 C.3       1 <0>        -0.1299
     19 C16         4.0380    2.6302   -0.0126 C.3       1 <0>        -0.1079
     20 C17         3.7699    1.5032   -1.0122 C.3       1 <0>        -0.1296
     21 H2          4.4103    0.6522   -0.7807 H         1 <0>         0.0822
     22 C18         2.3252    1.0842   -0.9212 C.2       1 <0>         0.3480
     23 O2          1.5535    1.6857   -0.2046 O.2       1 <0>        -0.3737
     24 N2          1.9001    0.0155   -1.6565 N.am      1 <0>        -0.7101
     25 C19         4.0695    1.9965   -2.4292 C.3       1 <0>         0.1459
     26 N3          5.4488    2.4858   -2.4945 N.am      1 <0>        -0.4714
     27 C20         6.4762    1.6154   -2.4353 C.2       1 <0>         0.4799
     28 O3          7.6169    2.0254   -2.3968 O.2       1 <0>        -0.5496
     29 O4          5.7027    3.8732   -2.6198 O.3       1 <0>        -0.3250
     30 H3          1.0785    1.5225    0.8521 H         1 <0>         0.1415
     31 H4          0.2100    1.9605   -0.6386 H         1 <0>         0.0955
     32 H5         -0.6937    1.6881    0.8705 H         1 <0>        -0.0236
     33 H6          0.5752   -0.7835    1.8952 H         1 <0>         0.0623
     34 H7          0.7933   -2.0000    0.6143 H         1 <0>         0.0563
     35 H8          1.9366   -0.6433    0.7572 H         1 <0>         0.0541
     36 H9         -2.0403   -0.0485   -0.6933 H         1 <0>         0.0732
     37 H10        -1.5187   -1.6148   -0.0278 H         1 <0>         0.0617
     38 H11        -1.8037   -0.2358    1.0609 H         1 <0>         0.0702
     39 H12        -1.5078    1.3532   -0.9504 H         1 <0>         0.4226
     40 H13        -1.4859    2.2150   -3.8168 H         1 <0>         0.0950
     41 H14        -3.0303    1.7113   -3.0804 H         1 <0>         0.0637
     42 H15        -3.1756    3.9834   -2.6662 H         1 <0>         0.0717
     43 H16        -2.2535    3.5060   -1.2205 H         1 <0>         0.0681
     44 H17        -0.1626    3.8582   -2.8121 H         1 <0>         0.0630
     45 H18        -1.2960    4.8726   -3.7367 H         1 <0>         0.0604
     46 H19        -1.7459    6.2520   -1.7806 H         1 <0>         0.0572
     47 H20        -0.7882    5.1673   -0.7440 H         1 <0>         0.0641
     48 H21         0.9152    5.8631   -2.8977 H         1 <0>         0.0645
     49 H22         0.1093    7.3756   -2.4170 H         1 <0>         0.0569
     50 H23         1.3474    7.4957   -0.5307 H         1 <0>         0.0555
     51 H24         0.8639    5.8486   -0.0603 H         1 <0>         0.0660
     52 H25         2.6518    5.4456   -2.1796 H         1 <0>         0.0617
     53 H26         3.3739    6.7880   -1.2604 H         1 <0>         0.0544
     54 H27         3.6444    5.5068    0.6633 H         1 <0>         0.0510
     55 H28         2.2887    4.4259    0.2608 H         1 <0>         0.0658
     56 H29         3.8778    3.8095   -1.8082 H         1 <0>         0.0887
     57 H30         5.1436    4.3538   -0.6814 H         1 <0>         0.0643
     58 H31         4.9772    2.4395    0.5066 H         1 <0>         0.0564
     59 H32         3.2248    2.6743    0.7119 H         1 <0>         0.0817
     60 H33         2.4981   -0.4818   -2.2361 H         1 <0>         0.4122
     61 H34         3.9416    1.1752   -3.1344 H         1 <0>         0.0875
     62 H35         3.3847    2.8050   -2.6849 H         1 <0>         0.1114
     63 H36         6.2835    0.5528   -2.4221 H         1 <0>         0.1486
     64 H37         6.6422    4.0995   -2.6550 H         1 <0>         0.3900
@<TRIPOS>BOND
     1    1    2 1
     2    1   30 1
     3    1   31 1
     4    1   32 1
     5    2    3 1
     6    2    4 1
     7    2    5 1
     8    3   33 1
     9    3   34 1
    10    3   35 1
    11    4   36 1
    12    4   37 1
    13    4   38 1
    14    5    6 1
    15    5   24 1
    16    5    7 1
    17    7    8 2
    18    7    9 am
    19    9   10 1
    20    9   39 1
    21   10   11 1
    22   10   40 1
    23   10   41 1
    24   11   12 1
    25   11   42 1
    26   11   43 1
    27   12   13 1
    28   12   44 1
    29   12   45 1
    30   13   14 1
    31   13   46 1
    32   13   47 1
    33   14   15 1
    34   14   48 1
    35   14   49 1
    36   15   16 1
    37   15   50 1
    38   15   51 1
    39   16   17 1
    40   16   52 1
    41   16   53 1
    42   17   18 1
    43   17   54 1
    44   17   55 1
    45   18   19 1
    46   18   56 1
    47   18   57 1
    48   19   20 1
    49   19   58 1
    50   19   59 1
    51   20   21 1
    52   20   22 1
    53   20   25 1
    54   22   23 2
    55   22   24 am
    56   24   60 1
    57   25   26 1
    58   25   61 1
    59   25   62 1
    60   26   27 am
    61   26   29 1
    62   27   28 2
    63   27   63 1
    64   29   64 1
@<TRIPOS>MOLECULE
CHEMBL160164
   76    78     0     0     0
SMALL
USER_CHARGES

@<TRIPOS>ATOM
      1 C1         -0.6063    1.7732   -1.0109 C.3       1 <0>        -0.1545
      2 C2         -0.5757    0.2903   -0.6354 C.3       1 <0>        -0.0677
      3 C3         -0.2857    0.1488    0.8602 C.3       1 <0>        -0.1500
      4 C4         -1.9306   -0.3447   -0.9545 C.3       1 <0>        -0.1341
      5 C5          0.5199   -0.4160   -1.4364 C.3       1 <0>         0.1174
      6 H1          0.2548   -0.4154   -2.4937 H         1 <0>         0.1167
      7 C6          1.8276    0.3083   -1.2461 C.2       1 <0>         0.3934
      8 O1          1.9501    1.1127   -0.3463 O.2       1 <0>        -0.4156
      9 C7          2.9529    0.0407   -2.1492 C.ar      1 <0>        -0.1505
     10 C8          2.7796   -0.7978   -3.2578 C.ar      1 <0>        -0.0709
     11 C9          3.8269   -1.0466   -4.0978 C.ar      1 <0>        -0.1096
     12 C10         5.0710   -0.4696   -3.8575 C.ar      1 <0>         0.1792
     13 C11         5.2552    0.3671   -2.7567 C.ar      1 <0>         0.0797
     14 C12         4.2023    0.6279   -1.9082 C.ar      1 <0>        -0.0882
     15 F1          6.4636    0.9254   -2.5263 F         1 <0>        -0.1280
     16 N1          6.1328   -0.7284   -4.7169 N.pl3     1 <0>        -0.6784
     17 C13         7.0276   -1.8692   -4.4788 C.3       1 <0>         0.1471
     18 C14         7.0893   -2.7213   -5.7504 C.3       1 <0>        -0.1289
     19 C15         7.4972   -1.8384   -6.9320 C.3       1 <0>         0.1074
     20 C16         6.4503   -0.7410   -7.1363 C.3       1 <0>        -0.1684
     21 C17         6.3777    0.1300   -5.8839 C.3       1 <0>         0.1465
     22 O2          7.5871   -2.6366   -8.1139 O.3       1 <0>        -0.5685
     23 N2          0.6541   -1.7975   -0.9675 N.am      1 <0>        -0.7168
     24 C18        -0.1492   -2.7588   -1.4644 C.2       1 <0>         0.5259
     25 O3         -0.9832   -2.4803   -2.2998 O.2       1 <0>        -0.5090
     26 C19        -0.0112   -4.1798   -0.9820 C.3       1 <0>        -0.1321
     27 H2          0.9948   -4.5403   -1.1968 H         1 <0>         0.1060
     28 C20        -1.0336   -5.0635   -1.6995 C.3       1 <0>        -0.0876
     29 C21        -0.6854   -6.5356   -1.4700 C.3       1 <0>        -0.1135
     30 C22         0.6163   -6.8934   -2.2165 C.3       1 <0>        -0.1212
     31 C23         0.3759   -8.3349   -2.7298 C.3       1 <0>        -0.1245
     32 C24        -1.1188   -8.3085   -3.1351 C.3       1 <0>        -0.1254
     33 C25        -1.7886   -7.4354   -2.0540 C.3       1 <0>        -0.1167
     34 C26        -0.2607   -4.2329    0.5265 C.3       1 <0>         0.1435
     35 N3          0.0558   -5.5728    1.0271 N.am      1 <0>        -0.4704
     36 C27         1.3308   -6.0095    1.0242 C.2       1 <0>         0.4775
     37 O4          1.5928   -7.1188    1.4386 O.2       1 <0>        -0.5412
     38 O5         -0.9779   -6.4092    1.5139 O.3       1 <0>        -0.3273
     39 H3          0.3193    2.2492   -0.6871 H         1 <0>         0.0725
     40 H4         -0.7071    1.8724   -2.0916 H         1 <0>         0.0529
     41 H5         -1.4530    2.2545   -0.5213 H         1 <0>         0.0618
     42 H6         -1.1424    0.5056    1.4318 H         1 <0>         0.0556
     43 H7         -0.1018   -0.8992    1.0970 H         1 <0>         0.0490
     44 H8          0.5939    0.7391    1.1172 H         1 <0>         0.0767
     45 H9         -2.1372   -0.2439   -2.0200 H         1 <0>         0.0603
     46 H10        -1.9087   -1.4012   -0.6871 H         1 <0>         0.0579
     47 H11        -2.7111    0.1585   -0.3839 H         1 <0>         0.0518
     48 H12         1.8167   -1.2484   -3.4481 H         1 <0>         0.1375
     49 H13         3.6898   -1.6936   -4.9516 H         1 <0>         0.1391
     50 H14         4.3401    1.2791   -1.0576 H         1 <0>         0.1481
     51 H15         8.0256   -1.5058   -4.2337 H         1 <0>         0.0590
     52 H16         6.6426   -2.4698   -3.6547 H         1 <0>         0.0770
     53 H17         7.8231   -3.5166   -5.6201 H         1 <0>         0.0788
     54 H18         6.1094   -3.1579   -5.9436 H         1 <0>         0.0727
     55 H19         8.4659   -1.3826   -6.7273 H         1 <0>         0.0552
     56 H20         6.7294   -0.1268   -7.9925 H         1 <0>         0.0741
     57 H21         5.4764   -1.1962   -7.3165 H         1 <0>         0.0739
     58 H22         5.5641    0.8480   -5.9865 H         1 <0>         0.0737
     59 H23         7.3216    0.6600   -5.7559 H         1 <0>         0.0576
     60 H24         7.8419   -2.1414   -8.9045 H         1 <0>         0.3790
     61 H25         1.3211   -2.0202   -0.2994 H         1 <0>         0.4027
     62 H26        -2.0294   -4.8601   -1.3058 H         1 <0>         0.0710
     63 H27        -1.0141   -4.8478   -2.7677 H         1 <0>         0.0776
     64 H28        -0.5707   -6.7300   -0.4036 H         1 <0>         0.0982
     65 H29         0.7761   -6.2124   -3.0525 H         1 <0>         0.0649
     66 H30         1.4664   -6.8680   -1.5347 H         1 <0>         0.0557
     67 H31         1.0066   -8.5477   -3.5930 H         1 <0>         0.0637
     68 H32         0.5481   -9.0614   -1.9357 H         1 <0>         0.0652
     69 H33        -1.2392   -7.8562   -4.1195 H         1 <0>         0.0637
     70 H34        -1.5349   -9.3159   -3.1237 H         1 <0>         0.0623
     71 H35        -2.2086   -8.0671   -1.2713 H         1 <0>         0.0610
     72 H36        -2.5720   -6.8233   -2.5010 H         1 <0>         0.0629
     73 H37         0.3728   -3.4996    1.0256 H         1 <0>         0.0904
     74 H38        -1.3075   -4.0069    0.7298 H         1 <0>         0.1076
     75 H39         2.1192   -5.3716    0.6529 H         1 <0>         0.1491
     76 H40        -0.6724   -7.2733    1.8223 H         1 <0>         0.3984
@<TRIPOS>BOND
     1    1    2 1
     2    1   39 1
     3    1   40 1
     4    1   41 1
     5    2    3 1
     6    2    4 1
     7    2    5 1
     8    3   42 1
     9    3   43 1
    10    3   44 1
    11    4   45 1
    12    4   46 1
    13    4   47 1
    14    5    6 1
    15    5    7 1
    16    5   23 1
    17    7    8 2
    18    7    9 1
    19    9   14 ar
    20    9   10 ar
    21   10   11 ar
    22   10   48 1
    23   11   12 ar
    24   11   49 1
    25   12   13 ar
    26   12   16 1
    27   13   14 ar
    28   13   15 1
    29   14   50 1
    30   16   21 1
    31   16   17 1
    32   17   18 1
    33   17   51 1
    34   17   52 1
    35   18   19 1
    36   18   53 1
    37   18   54 1
    38   19   20 1
    39   19   22 1
    40   19   55 1
    41   20   21 1
    42   20   56 1
    43   20   57 1
    44   21   58 1
    45   21   59 1
    46   22   60 1
    47   23   24 am
    48   23   61 1
    49   24   25 2
    50   24   26 1
    51   26   27 1
    52   26   28 1
    53   26   34 1
    54   28   29 1
    55   28   62 1
    56   28   63 1
    57   29   33 1
    58   29   30 1
    59   29   64 1
    60   30   31 1
    61   30   65 1
    62   30   66 1
    63   31   32 1
    64   31   67 1
    65   31   68 1
    66   32   33 1
    67   32   69 1
    68   32   70 1
    69   33   71 1
    70   33   72 1
    71   34   35 1
    72   34   73 1
    73   34   74 1
    74   35   36 am
    75   35   38 1
    76   36   37 2
    77   36   75 1
    78   38   76 1
@<TRIPOS>MOLECULE
CHEMBL220027
   40    42     0     0     0
SMALL
USER_CHARGES

@<TRIPOS>ATOM
      1 C1         -0.0184    1.5028    0.0103 C.3       1 <0>        -0.1101
      2 C2          0.0021   -0.0041    0.0020 C.2       1 <0>         0.1283
      3 C3          0.0079   -0.7686   -1.1013 C.2       1 <0>        -0.1727
      4 C4          0.0292   -2.1639   -0.6556 C.ar      1 <0>        -0.0672
      5 C5          0.0430   -3.3936   -1.3168 C.ar      1 <0>        -0.0549
      6 C6          0.0619   -4.5530   -0.5929 C.ar      1 <0>        -0.0934
      7 C7          0.0670   -4.5173    0.7957 C.ar      1 <0>        -0.0693
      8 C8          0.0532   -3.3149    1.4674 C.ar      1 <0>        -0.1071
      9 C9          0.0348   -2.1227    0.7504 C.ar      1 <0>         0.1089
     10 N1          0.0234   -0.7955    1.1180 N.pl3     1 <0>        -0.8223
     11 S1          0.0302   -0.2403    2.6781 S.o2      1 <0>         2.6697
     12 O1          0.6028   -1.2696    3.4731 O.2       1 <0>        -0.9227
     13 O2          0.5624    1.0767    2.6382 O.2       1 <0>        -0.9203
     14 C10        -1.6507   -0.0890    3.1845 C.ar      1 <0>        -0.6780
     15 C11        -2.3311    1.0962    2.9768 C.ar      1 <0>        -0.0184
     16 C12        -3.6498    1.2149    3.3741 C.ar      1 <0>        -0.1356
     17 C13        -4.2882    0.1482    3.9787 C.ar      1 <0>        -0.0531
     18 C14        -3.6080   -1.0373    4.1856 C.ar      1 <0>        -0.1353
     19 C15        -2.2906   -1.1574    3.7845 C.ar      1 <0>        -0.0159
     20 Br1         0.0806   -6.2183   -1.4887 Br        1 <0>        -0.0384
     21 C16        -0.0059   -0.2836   -2.5281 C.3       1 <0>         0.2063
     22 N2          1.3707   -0.1065   -2.9969 N.am      1 <0>        -0.4752
     23 C17         2.1209   -1.1826   -3.3064 C.2       1 <0>         0.4833
     24 O3          3.2605   -1.0360   -3.6946 O.2       1 <0>        -0.5484
     25 O4          1.9132    1.1952   -3.1250 O.3       1 <0>        -0.3351
     26 H1          1.0042    1.8801    0.0026 H         1 <0>         0.1008
     27 H2         -0.5455    1.8639   -0.8728 H         1 <0>         0.0974
     28 H3         -0.5286    1.8543    0.9071 H         1 <0>         0.0803
     29 H4          0.0385   -3.4287   -2.3963 H         1 <0>         0.1390
     30 H5          0.0816   -5.4415    1.3542 H         1 <0>         0.1462
     31 H6          0.0569   -3.2975    2.5473 H         1 <0>         0.1505
     32 H7         -1.8324    1.9296    2.5044 H         1 <0>         0.1422
     33 H8         -4.1812    2.1411    3.2125 H         1 <0>         0.1393
     34 H9         -5.3183    0.2412    4.2898 H         1 <0>         0.1372
     35 H10        -4.1067   -1.8705    4.6583 H         1 <0>         0.1392
     36 H11        -1.7604   -2.0848    3.9427 H         1 <0>         0.1416
     37 H12        -0.5122   -1.0165   -3.1562 H         1 <0>         0.1073
     38 H13        -0.5337    0.6685   -2.5831 H         1 <0>         0.1106
     39 H14         1.7072   -2.1754   -3.2088 H         1 <0>         0.1471
     40 H15         2.8270    1.2112   -3.4409 H         1 <0>         0.3982
@<TRIPOS>BOND
     1    1    2 1
     2    1   26 1
     3    1   27 1
     4    1   28 1
     5    2   10 1
     6    2    3 2
     7    3    4 1
     8    3   21 1
     9    4    9 ar
    10    4    5 ar
    11    5    6 ar
    12    5   29 1
    13    6    7 ar
    14    6   20 1
    15    7    8 ar
    16    7   30 1
    17    8    9 ar
    18    8   31 1
    19    9   10 1
    20   10   11 1
    21   11   12 2
    22   11   13 2
    23   11   14 1
    24   14   19 ar
    25   14   15 ar
    26   15   16 ar
    27   15   32 1
    28   16   17 ar
    29   16   33 1
    30   17   18 ar
    31   17   34 1
    32   18   19 ar
    33   18   35 1
    34   19   36 1
    35   21   22 1
    36   21   37 1
    37   21   38 1
    38   22   23 am
    39   22   25 1
    40   23   24 2
    41   23   39 1
    42   25   40 1
@<TRIPOS>MOLECULE
CHEMBL219858
   27    28     0     0     0
SMALL
USER_CHARGES

@<TRIPOS>ATOM
      1 C1         -0.0168    1.3857    0.0097 C.ar      1 <0>        -0.1322
      2 C2          1.1587    2.1040    0.0023 C.ar      1 <0>        -0.0960
      3 C3          2.3792    1.4379   -0.0129 C.ar      1 <0>         0.0865
      4 C4          2.4001    0.0314   -0.0206 C.ar      1 <0>        -0.0673
      5 C5          1.2010   -0.6839   -0.0134 C.ar      1 <0>        -0.1098
      6 C6          0.0021   -0.0041    0.0020 C.ar      1 <0>         0.0750
      7 F1         -1.1606   -0.6920    0.0098 F         1 <0>        -0.1413
      8 C7          3.8137   -0.3527   -0.0361 C.2       1 <0>        -0.1708
      9 C8          4.5294    0.7830   -0.0369 C.2       1 <0>         0.0801
     10 N1          3.6901    1.8633   -0.0231 N.pl3     1 <0>        -0.5901
     11 H1          3.9752    2.7905   -0.0214 H         1 <0>         0.4202
     12 C9          4.3607   -1.7569   -0.0489 C.3       1 <0>        -0.0877
     13 C10         4.4142   -2.2623   -1.4676 C.2       1 <0>         0.3571
     14 O1          4.0461   -1.5553   -2.3747 O.2       1 <0>        -0.4253
     15 C11         4.9271   -3.6501   -1.7542 C.3       1 <0>        -0.0017
     16 N2          4.8784   -3.9010   -3.2008 N.3       1 <0>        -0.4975
     17 O2          5.3700   -5.2421   -3.5171 O.3       1 <0>        -0.4273
     18 H2         -0.9622    1.9076    0.0260 H         1 <0>         0.1396
     19 H3          1.1323    3.1836    0.0080 H         1 <0>         0.1320
     20 H4          1.2128   -1.7638   -0.0195 H         1 <0>         0.1312
     21 H5          5.6080    0.8360   -0.0463 H         1 <0>         0.1742
     22 H6          5.3646   -1.7596    0.3759 H         1 <0>         0.1113
     23 H7          3.7139   -2.4042    0.5433 H         1 <0>         0.1084
     24 H8          5.9560   -3.7365   -1.4049 H         1 <0>         0.1198
     25 H9          4.3053   -4.3812   -1.2375 H         1 <0>         0.0785
     26 H10         3.9457   -3.7637   -3.5604 H         1 <0>         0.3432
     27 H11         5.3568   -5.4535   -4.4607 H         1 <0>         0.3899
@<TRIPOS>BOND
     1    1    6 ar
     2    1    2 ar
     3    1   18 1
     4    2    3 ar
     5    2   19 1
     6    3   10 1
     7    3    4 ar
     8    4    5 ar
     9    4    8 1
    10    5    6 ar
    11    5   20 1
    12    6    7 1
    13    8    9 2
    14    8   12 1
    15    9   10 1
    16    9   21 1
    17   10   11 1
    18   12   13 1
    19   12   22 1
    20   12   23 1
    21   13   14 2
    22   13   15 1
    23   15   16 1
    24   15   24 1
    25   15   25 1
    26   16   17 1
    27   16   26 1
    28   17   27 1
@<TRIPOS>MOLECULE
CHEMBL373863
   27    28     0     0     0
SMALL
USER_CHARGES

@<TRIPOS>ATOM
      1 C1         -0.0168    1.3848    0.0097 C.ar      1 <0>        -0.0914
      2 C2          1.1585    2.1033    0.0023 C.ar      1 <0>        -0.1135
      3 C3          2.3791    1.4372   -0.0130 C.ar      1 <0>         0.1000
      4 C4          2.3993    0.0305   -0.0207 C.ar      1 <0>        -0.0828
      5 C5          1.1999   -0.6840   -0.0128 C.ar      1 <0>        -0.0624
      6 C6          0.0021   -0.0041    0.0020 C.ar      1 <0>        -0.0571
      7 Cl1        -1.4921   -0.8878    0.0122 Cl        1 <0>        -0.0721
      8 C7          3.8127   -0.3542   -0.0371 C.2       1 <0>        -0.1665
      9 C8          4.5287    0.7813   -0.0383 C.2       1 <0>         0.0761
     10 N1          3.6896    1.8619   -0.0239 N.pl3     1 <0>        -0.5903
     11 H1          3.9749    2.7890   -0.0218 H         1 <0>         0.4201
     12 C9          4.3594   -1.7585   -0.0498 C.3       1 <0>        -0.0882
     13 C10         4.4117   -2.2644   -1.4684 C.2       1 <0>         0.3571
     14 O1          4.0432   -1.5576   -2.3755 O.2       1 <0>        -0.4251
     15 C11         4.9240   -3.6524   -1.7550 C.3       1 <0>        -0.0017
     16 N2          4.8742   -3.9038   -3.2014 N.3       1 <0>        -0.4975
     17 O2          5.3653   -5.2451   -3.5177 O.3       1 <0>        -0.4272
     18 H2         -0.9622    1.9066    0.0260 H         1 <0>         0.1372
     19 H3          1.1320    3.1830    0.0080 H         1 <0>         0.1308
     20 H4          1.2112   -1.7639   -0.0187 H         1 <0>         0.1292
     21 H5          5.6073    0.8341   -0.0484 H         1 <0>         0.1739
     22 H6          5.3635   -1.7614    0.3743 H         1 <0>         0.1113
     23 H7          3.7128   -2.4055    0.5430 H         1 <0>         0.1086
     24 H8          5.9531   -3.7390   -1.4063 H         1 <0>         0.1197
     25 H9          4.3024   -4.3831   -1.2376 H         1 <0>         0.0786
     26 H10         3.9413   -3.7663   -3.5604 H         1 <0>         0.3432
     27 H11         5.3514   -5.4567   -4.4611 H         1 <0>         0.3899
@<TRIPOS>BOND
     1    1    6 ar
     2    1    2 ar
     3    1   18 1
     4    2    3 ar
     5    2   19 1
     6    3   10 1
     7    3    4 ar
     8    4    5 ar
     9    4    8 1
    10    5    6 ar
    11    5   20 1
    12    6    7 1
    13    8    9 2
    14    8   12 1
    15    9   10 1
    16    9   21 1
    17   10   11 1
    18   12   13 1
    19   12   22 1
    20   12   23 1
    21   13   14 2
    22   13   15 1
    23   15   16 1
    24   15   24 1
    25   15   25 1
    26   16   17 1
    27   16   26 1
    28   17   27 1
@<TRIPOS>MOLECULE
CHEMBL53276
   38    40     0     0     0
SMALL
USER_CHARGES

@<TRIPOS>ATOM
      1 C1         -0.0167    1.3784    0.0096 C.ar      1 <0>        -0.0714
      2 C2          1.1726    2.0747    0.0020 C.ar      1 <0>        -0.1484
      3 C3          2.3927    1.3966   -0.0079 C.ar      1 <0>         0.2069
      4 C4          2.4150    0.0158    0.0004 C.ar      1 <0>        -0.1475
      5 C5          1.2060   -0.6773   -0.0037 C.ar      1 <0>         0.0063
      6 C6          0.0021   -0.0041    0.0020 C.ar      1 <0>        -0.1315
      7 Cl1         1.2152   -2.4133   -0.0175 Cl        1 <0>        -0.0576
      8 C7          3.6646   -0.8222    0.0388 C.3       1 <0>         0.1573
      9 N1          4.8513   -0.0571   -0.3534 N.pl3     1 <0>        -0.9779
     10 S1          5.0093    1.4678    0.3077 S.o2      1 <0>         2.7756
     11 O1          5.0744    1.3099    1.7184 O.2       1 <0>        -0.9476
     12 O2          6.0067    2.1494   -0.4406 O.2       1 <0>        -0.9573
     13 N2          3.5500    2.1888   -0.0404 N.pl3     1 <0>        -0.9305
     14 C8          3.4761    3.6140   -0.3716 C.3       1 <0>         0.1450
     15 C9          3.1496    4.4147    0.8906 C.3       1 <0>        -0.1905
     16 C10         1.8246    5.1790    0.9194 C.3       1 <0>        -0.1753
     17 C11         3.1440    5.9405    0.7776 C.3       1 <0>        -0.1674
     18 C12         5.8478   -0.6022   -1.2787 C.3       1 <0>         0.1280
     19 C13         5.4093   -0.3455   -2.6975 C.2       1 <0>         0.5003
     20 O3          4.3671    0.2355   -2.9144 O.2       1 <0>        -0.5005
     21 N3          6.1754   -0.7617   -3.7253 N.am      1 <0>        -0.5952
     22 O4          5.7634   -0.5205   -5.0584 O.3       1 <0>        -0.3163
     23 H1         -0.9571    1.9091    0.0259 H         1 <0>         0.1402
     24 H2          1.1605    3.1547    0.0034 H         1 <0>         0.1437
     25 H3         -0.9258   -0.5568    0.0009 H         1 <0>         0.1398
     26 H4          3.8060   -1.2015    1.0509 H         1 <0>         0.0985
     27 H5          3.5464   -1.6661   -0.6409 H         1 <0>         0.1095
     28 H6          4.4341    3.9438   -0.7735 H         1 <0>         0.1055
     29 H7          2.6956    3.7741   -1.1154 H         1 <0>         0.0962
     30 H8          3.5011    3.9806    1.8267 H         1 <0>         0.1130
     31 H9          1.1854    5.1115    0.0391 H         1 <0>         0.0992
     32 H10         1.3039    5.2478    1.8745 H         1 <0>         0.0998
     33 H11         3.4914    6.5102    1.6395 H         1 <0>         0.1009
     34 H12         3.3729    6.3739   -0.1960 H         1 <0>         0.1005
     35 H13         6.8093   -0.1198   -1.1027 H         1 <0>         0.1237
     36 H14         5.9449   -1.6757   -1.1170 H         1 <0>         0.1271
     37 H15         7.0090   -1.2264   -3.5518 H         1 <0>         0.4091
     38 H16         6.3772   -0.8553   -5.7264 H         1 <0>         0.3887
@<TRIPOS>BOND
     1    1    6 ar
     2    1    2 ar
     3    1   23 1
     4    2    3 ar
     5    2   24 1
     6    3   13 1
     7    3    4 ar
     8    4    5 ar
     9    4    8 1
    10    5    6 ar
    11    5    7 1
    12    6   25 1
    13    8    9 1
    14    8   26 1
    15    8   27 1
    16    9   10 1
    17    9   18 1
    18   10   11 2
    19   10   12 2
    20   10   13 1
    21   13   14 1
    22   14   15 1
    23   14   28 1
    24   14   29 1
    25   15   17 1
    26   15   16 1
    27   15   30 1
    28   16   17 1
    29   16   31 1
    30   16   32 1
    31   17   33 1
    32   17   34 1
    33   18   19 1
    34   18   35 1
    35   18   36 1
    36   19   20 2
    37   19   21 am
    38   21   22 1
    39   21   37 1
    40   22   38 1
@<TRIPOS>MOLECULE
CHEMBL156257
   73    75     0     0     0
SMALL
USER_CHARGES

@<TRIPOS>ATOM
      1 C1         -0.5831    1.7957   -1.0203 C.3       1 <0>        -0.1525
      2 C2         -0.5749    0.3157   -0.6326 C.3       1 <0>        -0.0654
      3 C3         -0.2851    0.1821    0.8637 C.3       1 <0>        -0.1477
      4 C4         -1.9399   -0.3009   -0.9447 C.3       1 <0>        -0.1347
      5 C5          0.5085   -0.4142   -1.4291 C.3       1 <0>         0.1153
      6 H1          0.2419   -0.4182   -2.4860 H         1 <0>         0.1132
      7 C6          1.8275    0.2914   -1.2464 C.2       1 <0>         0.3927
      8 O1          1.9637    1.1013   -0.3532 O.2       1 <0>        -0.3907
      9 C7          2.9454   -0.0005   -2.1472 C.ar      1 <0>        -0.1676
     10 C8          2.7616   -0.8505   -3.2468 C.ar      1 <0>        -0.0726
     11 C9          3.8162   -1.1201   -4.0893 C.ar      1 <0>         0.0560
     12 C10         5.0654   -0.5527   -3.8553 C.ar      1 <0>         0.1133
     13 C11         5.2614    0.2868   -2.7749 C.ar      1 <0>        -0.1502
     14 C12         4.2085    0.5751   -1.9175 C.ar      1 <0>         0.2588
     15 N1          4.4022    1.4231   -0.8356 N.pl3     1 <0>        -0.6701
     16 C13         4.8336    0.8989    0.4699 C.3       1 <0>         0.1143
     17 C14         6.0370    1.7199    0.9469 C.3       1 <0>         0.0461
     18 O2          5.7073    3.1101    0.8985 O.3       1 <0>        -0.3774
     19 C15         5.4179    3.5976   -0.4139 C.3       1 <0>         0.0460
     20 C16         4.1882    2.8734   -0.9621 C.3       1 <0>         0.1151
     21 F1          6.0930   -0.8246   -4.6891 F         1 <0>        -0.1182
     22 F2          3.6379   -1.9398   -5.1484 F         1 <0>        -0.1214
     23 N2          0.6220   -1.7936   -0.9488 N.am      1 <0>        -0.7177
     24 C17        -0.1968   -2.7465   -1.4367 C.2       1 <0>         0.5250
     25 O3         -1.0276   -2.4620   -2.2733 O.2       1 <0>        -0.5081
     26 C18        -0.0801   -4.1654   -0.9427 C.3       1 <0>        -0.1323
     27 H2          0.9199   -4.5432   -1.1557 H         1 <0>         0.1057
     28 C19        -1.1171   -5.0391   -1.6514 C.3       1 <0>        -0.0879
     29 C20        -0.7914   -6.5144   -1.4102 C.3       1 <0>        -0.1133
     30 C21         0.5036   -6.8985   -2.1553 C.3       1 <0>        -0.1217
     31 C22         0.2402   -8.3403   -2.6563 C.3       1 <0>        -0.1244
     32 C23        -1.2544   -8.2942   -3.0599 C.3       1 <0>        -0.1255
     33 C24        -1.9092   -7.4019   -1.9853 C.3       1 <0>        -0.1166
     34 C25        -0.3284   -4.2020    0.5666 C.3       1 <0>         0.1444
     35 N3         -0.0319   -5.5425    1.0779 N.am      1 <0>        -0.4704
     36 C26         1.2362   -5.9988    1.0771 C.2       1 <0>         0.4776
     37 O4          1.4817   -7.1085    1.5004 O.2       1 <0>        -0.5409
     38 O5         -1.0778   -6.3587    1.5729 O.3       1 <0>        -0.3271
     39 H3          0.3501    2.2600   -0.7017 H         1 <0>         0.0726
     40 H4         -0.6839    1.8874   -2.1018 H         1 <0>         0.0515
     41 H5         -1.4216    2.2941   -0.5338 H         1 <0>         0.0609
     42 H6         -1.1355    0.5568    1.4334 H         1 <0>         0.0544
     43 H7         -0.1171   -0.8666    1.1091 H         1 <0>         0.0479
     44 H8          0.6038    0.7608    1.1148 H         1 <0>         0.0770
     45 H9         -2.1464   -0.2057   -2.0108 H         1 <0>         0.0598
     46 H10        -1.9341   -1.3553   -0.6685 H         1 <0>         0.0577
     47 H11        -2.7118    0.2191   -0.3773 H         1 <0>         0.0516
     48 H12         1.7942   -1.2935   -3.4323 H         1 <0>         0.1542
     49 H13         6.2339    0.7227   -2.6002 H         1 <0>         0.1528
     50 H14         4.0193    0.9891    1.1890 H         1 <0>         0.0695
     51 H15         5.1202   -0.1479    0.3687 H         1 <0>         0.0749
     52 H16         6.2858    1.4402    1.9706 H         1 <0>         0.1009
     53 H17         6.8908    1.5254    0.2978 H         1 <0>         0.0516
     54 H18         5.2213    4.6688   -0.3693 H         1 <0>         0.1016
     55 H19         6.2694    3.4099   -1.0680 H         1 <0>         0.0509
     56 H20         4.0477    3.1336   -2.0113 H         1 <0>         0.0750
     57 H21         3.3079    3.1659   -0.3898 H         1 <0>         0.0722
     58 H22         1.2864   -2.0211   -0.2797 H         1 <0>         0.4021
     59 H23        -2.1091   -4.8170   -1.2582 H         1 <0>         0.0711
     60 H24        -1.0958   -4.8326   -2.7215 H         1 <0>         0.0777
     61 H25        -0.6781   -6.7017   -0.3424 H         1 <0>         0.0981
     62 H26         0.6727   -6.2271   -2.9972 H         1 <0>         0.0651
     63 H27         1.3549   -6.8806   -1.4749 H         1 <0>         0.0555
     64 H28         0.8663   -8.5701   -3.5185 H         1 <0>         0.0639
     65 H29         0.4022   -9.0628   -1.8564 H         1 <0>         0.0652
     66 H30        -1.3692   -7.8482   -4.0479 H         1 <0>         0.0638
     67 H31        -1.6861   -9.2949   -3.0396 H         1 <0>         0.0625
     68 H32        -2.3378   -8.0204   -1.1968 H         1 <0>         0.0611
     69 H33        -2.6836   -6.7815   -2.4363 H         1 <0>         0.0629
     70 H34         0.3170   -3.4745    1.0587 H         1 <0>         0.0899
     71 H35        -1.3713   -3.9583    0.7693 H         1 <0>         0.1076
     72 H36         2.0339   -5.3763    0.6995 H         1 <0>         0.1487
     73 H37        -0.7851   -7.2248    1.8881 H         1 <0>         0.3985
@<TRIPOS>BOND
     1    1    2 1
     2    1   39 1
     3    1   40 1
     4    1   41 1
     5    2    3 1
     6    2    4 1
     7    2    5 1
     8    3   42 1
     9    3   43 1
    10    3   44 1
    11    4   45 1
    12    4   46 1
    13    4   47 1
    14    5    6 1
    15    5    7 1
    16    5   23 1
    17    7    8 2
    18    7    9 1
    19    9   14 ar
    20    9   10 ar
    21   10   11 ar
    22   10   48 1
    23   11   12 ar
    24   11   22 1
    25   12   13 ar
    26   12   21 1
    27   13   14 ar
    28   13   49 1
    29   14   15 1
    30   15   20 1
    31   15   16 1
    32   16   17 1
    33   16   50 1
    34   16   51 1
    35   17   18 1
    36   17   52 1
    37   17   53 1
    38   18   19 1
    39   19   20 1
    40   19   54 1
    41   19   55 1
    42   20   56 1
    43   20   57 1
    44   23   24 am
    45   23   58 1
    46   24   25 2
    47   24   26 1
    48   26   27 1
    49   26   28 1
    50   26   34 1
    51   28   29 1
    52   28   59 1
    53   28   60 1
    54   29   33 1
    55   29   30 1
    56   29   61 1
    57   30   31 1
    58   30   62 1
    59   30   63 1
    60   31   32 1
    61   31   64 1
    62   31   65 1
    63   32   33 1
    64   32   66 1
    65   32   67 1
    66   33   68 1
    67   33   69 1
    68   34   35 1
    69   34   70 1
    70   34   71 1
    71   35   36 am
    72   35   38 1
    73   36   37 2
    74   36   72 1
    75   38   73 1
@<TRIPOS>MOLECULE
CHEMBL419878
   58    58     0     0     0
SMALL
USER_CHARGES

@<TRIPOS>ATOM
      1 C1         -0.4621   -0.5370   -0.6405 C.3       1 <0>        -0.1524
      2 C2          1.0331   -0.6717   -0.3451 C.3       1 <0>        -0.1218
      3 C3          1.2311   -1.5434    0.8966 C.3       1 <0>        -0.1248
      4 C4          2.7263   -1.6781    1.1920 C.3       1 <0>        -0.0959
      5 C5          2.9204   -2.4488    2.4993 C.3       1 <0>        -0.1311
      6 H1          2.3479   -1.9684    3.2928 H         1 <0>         0.1037
      7 C6          4.4042   -2.4543    2.8726 C.3       1 <0>         0.1428
      8 N1          4.8603   -1.0778    3.0813 N.am      1 <0>        -0.4745
      9 C7          4.5425   -0.4277    4.2183 C.2       1 <0>         0.4790
     10 O1          4.9201    0.7119    4.3910 O.2       1 <0>        -0.5467
     11 O2          5.6351   -0.4305    2.0884 O.3       1 <0>        -0.3312
     12 C8          2.4418   -3.8668    2.3224 C.2       1 <0>         0.5257
     13 O3          1.9898   -4.2256    1.2557 O.2       1 <0>        -0.5128
     14 N2          2.5159   -4.7362    3.3496 N.am      1 <0>        -0.7151
     15 C9          2.0506   -6.1146    3.1776 C.3       1 <0>         0.1422
     16 H2          1.1877   -6.1264    2.5117 H         1 <0>         0.1074
     17 C10         1.6592   -6.6836    4.5170 C.2       1 <0>         0.5317
     18 O4          2.3045   -6.4060    5.5057 O.2       1 <0>        -0.5309
     19 N3          0.5921   -7.5008    4.6163 N.am      1 <0>        -0.6135
     20 C11        -0.2145   -7.9972    3.4919 C.3       1 <0>         0.0843
     21 C12        -1.3376   -8.8737    4.0853 C.3       1 <0>        -0.1325
     22 C13        -1.4403   -8.3641    5.5472 C.3       1 <0>        -0.1345
     23 C14         0.0443   -8.0501    5.8699 C.3       1 <0>         0.1043
     24 C15         3.1731   -6.9601    2.5726 C.3       1 <0>        -0.0700
     25 C16         4.3855   -6.9410    3.5057 C.3       1 <0>        -0.1449
     26 C17         2.6882   -8.4005    2.3960 C.3       1 <0>        -0.1513
     27 C18         3.5682   -6.3845    1.2112 C.3       1 <0>        -0.1311
     28 H3         -0.9605   -0.0744    0.2114 H         1 <0>         0.0514
     29 H4         -0.6032    0.0840   -1.5251 H         1 <0>         0.0527
     30 H5         -0.8878   -1.5245   -0.8182 H         1 <0>         0.0536
     31 H6          1.5315   -1.1343   -1.1970 H         1 <0>         0.0613
     32 H7          1.4588    0.3159   -0.1674 H         1 <0>         0.0572
     33 H8          0.7327   -1.0808    1.7485 H         1 <0>         0.0528
     34 H9          0.8054   -2.5310    0.7189 H         1 <0>         0.0806
     35 H10         3.2105   -2.2167    0.3773 H         1 <0>         0.0740
     36 H11         3.1689   -0.6865    1.2856 H         1 <0>         0.0738
     37 H12         4.5462   -3.0270    3.7891 H         1 <0>         0.0970
     38 H13         4.9799   -2.9096    2.0668 H         1 <0>         0.1044
     39 H14         3.9517   -0.9214    4.9755 H         1 <0>         0.1532
     40 H15         5.8888    0.4746    2.3155 H         1 <0>         0.3982
     41 H16         2.8774   -4.4492    4.2027 H         1 <0>         0.4077
     42 H17        -0.6477   -7.1581    2.9474 H         1 <0>         0.0718
     43 H18         0.4075   -8.5935    2.8243 H         1 <0>         0.0814
     44 H19        -2.2751   -8.7114    3.5536 H         1 <0>         0.0857
     45 H20        -1.0575   -9.9268    4.0628 H         1 <0>         0.0798
     46 H21        -2.0547   -7.4656    5.6055 H         1 <0>         0.0776
     47 H22        -1.8254   -9.1423    6.2061 H         1 <0>         0.0875
     48 H23         0.5749   -8.9604    6.1491 H         1 <0>         0.0714
     49 H24         0.1104   -7.3114    6.6687 H         1 <0>         0.0799
     50 H25         4.1040   -7.3511    4.4756 H         1 <0>         0.0640
     51 H26         5.1852   -7.5433    3.0748 H         1 <0>         0.0582
     52 H27         4.7309   -5.9148    3.6315 H         1 <0>         0.0564
     53 H28         1.8760   -8.4239    1.6694 H         1 <0>         0.0627
     54 H29         3.5116   -9.0201    2.0407 H         1 <0>         0.0668
     55 H30         2.3315   -8.7836    3.3521 H         1 <0>         0.0578
     56 H31         3.9136   -5.3583    1.3370 H         1 <0>         0.0554
     57 H32         4.3679   -6.9868    0.7803 H         1 <0>         0.0538
     58 H33         2.7044   -6.3981    0.5465 H         1 <0>         0.0659
@<TRIPOS>BOND
     1    1    2 1
     2    1   28 1
     3    1   29 1
     4    1   30 1
     5    2    3 1
     6    2   31 1
     7    2   32 1
     8    3    4 1
     9    3   33 1
    10    3   34 1
    11    4    5 1
    12    4   35 1
    13    4   36 1
    14    5    6 1
    15    5    7 1
    16    5   12 1
    17    7    8 1
    18    7   37 1
    19    7   38 1
    20    8    9 am
    21    8   11 1
    22    9   10 2
    23    9   39 1
    24   11   40 1
    25   12   13 2
    26   12   14 am
    27   14   15 1
    28   14   41 1
    29   15   16 1
    30   15   17 1
    31   15   24 1
    32   17   18 2
    33   17   19 am
    34   19   23 1
    35   19   20 1
    36   20   21 1
    37   20   42 1
    38   20   43 1
    39   21   22 1
    40   21   44 1
    41   21   45 1
    42   22   23 1
    43   22   46 1
    44   22   47 1
    45   23   48 1
    46   23   49 1
    47   24   25 1
    48   24   26 1
    49   24   27 1
    50   25   50 1
    51   25   51 1
    52   25   52 1
    53   26   53 1
    54   26   54 1
    55   26   55 1
    56   27   56 1
    57   27   57 1
    58   27   58 1
@<TRIPOS>MOLECULE
CHEMBL77258
   44    44     0     0     0
SMALL
USER_CHARGES

@<TRIPOS>ATOM
      1 C1          1.4510    2.8653   -1.9654 C.3       1 <0>        -0.1572
      2 C2          0.9449    1.5695   -1.3285 C.3       1 <0>        -0.1220
      3 C3          1.5400    0.3706   -2.0696 C.3       1 <0>        -0.1489
      4 C4          1.0339   -0.9252   -1.4327 C.3       1 <0>        -0.1043
      5 C5          1.6291   -2.1241   -2.1739 C.3       1 <0>        -0.5670
      6 C6          1.0274   -3.4167   -1.6189 C.3       1 <0>        -0.1110
      7 C7          1.4758   -4.5822   -2.4624 C.2       1 <0>         0.5173
      8 O1          2.0923   -4.3865   -3.4884 O.2       1 <0>        -0.4917
      9 N1          1.1917   -5.8420   -2.0768 N.am      1 <0>        -0.5964
     10 O2          1.5195   -6.9314   -2.9198 O.3       1 <0>        -0.3130
     11 S1          3.4280   -2.1461   -1.9419 S.o2      1 <0>         2.4067
     12 O3          3.7257   -1.5635   -0.6804 O.2       1 <0>        -0.9390
     13 O4          3.9021   -3.4548   -2.2277 O.2       1 <0>        -0.9130
     14 C8          4.0137   -1.0266   -3.2435 C.3       1 <0>        -0.5742
     15 C9          3.6942   -1.6267   -4.6142 C.3       1 <0>        -0.1023
     16 C10         4.1882   -0.6825   -5.7120 C.3       1 <0>        -0.1121
     17 C11         5.7004   -0.4921   -5.5786 C.3       1 <0>        -0.1247
     18 C12         6.0199    0.1081   -4.2079 C.3       1 <0>        -0.1099
     19 C13         5.5259   -0.8362   -3.1101 C.3       1 <0>        -0.1062
     20 H1          2.5385    2.9014   -1.9005 H         1 <0>         0.0556
     21 H2          1.1482    2.8983   -3.0119 H         1 <0>         0.0549
     22 H3          1.0270    3.7195   -1.4374 H         1 <0>         0.0575
     23 H4          1.2478    1.5366   -0.2819 H         1 <0>         0.0686
     24 H5         -0.1426    1.5334   -1.3933 H         1 <0>         0.0663
     25 H6          1.2372    0.4036   -3.1162 H         1 <0>         0.0760
     26 H7          2.6275    0.4067   -2.0048 H         1 <0>         0.0671
     27 H8          1.3368   -0.9581   -0.3862 H         1 <0>         0.0896
     28 H9         -0.0536   -0.9613   -1.4976 H         1 <0>         0.0900
     29 H10         1.4008   -2.0441   -3.2367 H         1 <0>         0.1507
     30 H11         1.3622   -3.5615   -0.5917 H         1 <0>         0.1040
     31 H12        -0.0603   -3.3497   -1.6405 H         1 <0>         0.1260
     32 H13         0.7626   -6.0023   -1.2217 H         1 <0>         0.4078
     33 H14         1.2775   -7.7951   -2.5584 H         1 <0>         0.3875
     34 H15         3.5159   -0.0620   -3.1443 H         1 <0>         0.1437
     35 H16         4.1921   -2.5913   -4.7134 H         1 <0>         0.0889
     36 H17         2.6169   -1.7624   -4.7092 H         1 <0>         0.0746
     37 H18         3.9606   -1.1101   -6.6885 H         1 <0>         0.0697
     38 H19         3.6904    0.2821   -5.6128 H         1 <0>         0.0642
     39 H20         6.1983   -1.4567   -5.6778 H         1 <0>         0.0660
     40 H21         6.0523    0.1806   -6.3607 H         1 <0>         0.0661
     41 H22         7.0972    0.2437   -4.1129 H         1 <0>         0.0706
     42 H23         5.5221    1.0726   -4.1087 H         1 <0>         0.0664
     43 H24         5.7535   -0.4086   -2.1336 H         1 <0>         0.0791
     44 H25         6.0238   -1.8007   -3.2093 H         1 <0>         0.0784
@<TRIPOS>BOND
     1    1    2 1
     2    1   20 1
     3    1   21 1
     4    1   22 1
     5    2    3 1
     6    2   23 1
     7    2   24 1
     8    3    4 1
     9    3   25 1
    10    3   26 1
    11    4    5 1
    12    4   27 1
    13    4   28 1
    14    5    6 1
    15    5   11 1
    16    5   29 1
    17    6    7 1
    18    6   30 1
    19    6   31 1
    20    7    8 2
    21    7    9 am
    22    9   10 1
    23    9   32 1
    24   10   33 1
    25   11   12 2
    26   11   13 2
    27   11   14 1
    28   14   19 1
    29   14   15 1
    30   14   34 1
    31   15   16 1
    32   15   35 1
    33   15   36 1
    34   16   17 1
    35   16   37 1
    36   16   38 1
    37   17   18 1
    38   17   39 1
    39   17   40 1
    40   18   19 1
    41   18   41 1
    42   18   42 1
    43   19   43 1
    44   19   44 1
@<TRIPOS>MOLECULE
CHEMBL77258__1
   44    44     0     0     0
SMALL
USER_CHARGES

@<TRIPOS>ATOM
      1 C1          0.6852    1.7839   -0.1473 C.3       1 <0>        -0.1555
      2 C2          0.6047    0.2605   -0.0304 C.3       1 <0>        -0.1190
      3 C3          1.0568   -0.3765   -1.3459 C.3       1 <0>        -0.1574
      4 C4          0.9763   -1.8999   -1.2290 C.3       1 <0>        -0.0946
      5 C5          1.4284   -2.5369   -2.5446 C.3       1 <0>        -0.5682
      6 C6          1.4672   -4.0584   -2.3877 C.3       1 <0>        -0.1093
      7 C7          2.0611   -4.6763   -3.6273 C.2       1 <0>         0.5333
      8 O1          2.5231   -3.9676   -4.4963 O.2       1 <0>        -0.5282
      9 N1          2.0787   -6.0163   -3.7701 N.am      1 <0>        -0.5891
     10 O2          2.6367   -6.5969   -4.9348 O.3       1 <0>        -0.3131
     11 S1          0.2631   -2.0945   -3.8625 S.o2      1 <0>         2.4124
     12 O3         -0.1721   -3.2890   -4.4973 O.2       1 <0>        -0.9357
     13 O4         -0.7060   -1.2047   -3.3256 O.2       1 <0>        -0.9320
     14 C8          1.3056   -1.1732   -5.0266 C.3       1 <0>        -0.5588
     15 C9          1.8809    0.0611   -4.3292 C.3       1 <0>        -0.1117
     16 C10         2.7602    0.8382   -5.3110 C.3       1 <0>        -0.1123
     17 C11         1.9195    1.2764   -6.5119 C.3       1 <0>        -0.1237
     18 C12         1.3442    0.0420   -7.2093 C.3       1 <0>        -0.1110
     19 C13         0.4649   -0.7351   -6.2275 C.3       1 <0>        -0.1053
     20 H1          1.7131    2.0783   -0.3591 H         1 <0>         0.0533
     21 H2          0.0367    2.1211   -0.9559 H         1 <0>         0.0572
     22 H3          0.3631    2.2378    0.7900 H         1 <0>         0.0546
     23 H4          1.2531   -0.0766    0.7783 H         1 <0>         0.0603
     24 H5         -0.4232   -0.0338    0.1815 H         1 <0>         0.0655
     25 H6          0.4083   -0.0394   -2.1546 H         1 <0>         0.0957
     26 H7          2.0847   -0.0822   -1.5578 H         1 <0>         0.0683
     27 H8          1.6248   -2.2370   -0.4204 H         1 <0>         0.0859
     28 H9         -0.0516   -2.1943   -1.0172 H         1 <0>         0.0796
     29 H10         2.4231   -2.1727   -2.8017 H         1 <0>         0.1505
     30 H11         2.0781   -4.3190   -1.5234 H         1 <0>         0.1245
     31 H12         0.4544   -4.4347   -2.2436 H         1 <0>         0.1108
     32 H13         1.7092   -6.5831   -3.0750 H         1 <0>         0.4106
     33 H14         2.6041   -7.5633   -4.9469 H         1 <0>         0.3895
     34 H15         2.1211   -1.8111   -5.3673 H         1 <0>         0.1516
     35 H16         1.0653    0.6990   -3.9884 H         1 <0>         0.0840
     36 H17         2.4798   -0.2510   -3.4736 H         1 <0>         0.0759
     37 H18         3.1700    1.7176   -4.8141 H         1 <0>         0.0695
     38 H19         3.5757    0.2003   -5.6517 H         1 <0>         0.0671
     39 H20         1.1039    1.9143   -6.1711 H         1 <0>         0.0654
     40 H21         2.5459    1.8300   -7.2113 H         1 <0>         0.0665
     41 H22         0.7453    0.3541   -8.0648 H         1 <0>         0.0701
     42 H23         2.1597   -0.5959   -7.5500 H         1 <0>         0.0678
     43 H24         0.0551   -1.6145   -6.7243 H         1 <0>         0.0778
     44 H25        -0.3506   -0.0972   -5.8867 H         1 <0>         0.0773
@<TRIPOS>BOND
     1    1    2 1
     2    1   20 1
     3    1   21 1
     4    1   22 1
     5    2    3 1
     6    2   23 1
     7    2   24 1
     8    3    4 1
     9    3   25 1
    10    3   26 1
    11    4    5 1
    12    4   27 1
    13    4   28 1
    14    5    6 1
    15    5   11 1
    16    5   29 1
    17    6    7 1
    18    6   30 1
    19    6   31 1
    20    7    8 2
    21    7    9 am
    22    9   10 1
    23    9   32 1
    24   10   33 1
    25   11   12 2
    26   11   13 2
    27   11   14 1
    28   14   19 1
    29   14   15 1
    30   14   34 1
    31   15   16 1
    32   15   35 1
    33   15   36 1
    34   16   17 1
    35   16   37 1
    36   16   38 1
    37   17   18 1
    38   17   39 1
    39   17   40 1
    40   18   19 1
    41   18   41 1
    42   18   42 1
    43   19   43 1
    44   19   44 1
@<TRIPOS>MOLECULE
CHEMBL156427
   55    55     0     0     0
SMALL
USER_CHARGES

@<TRIPOS>ATOM
      1 C1          1.5555   -2.0061   -2.4048 C.3       1 <0>        -0.1526
      2 C2          0.7977   -1.6485   -1.1246 C.3       1 <0>        -0.1216
      3 C3         -0.5898   -2.2925   -1.1567 C.3       1 <0>        -0.1248
      4 C4         -1.3477   -1.9349    0.1235 C.3       1 <0>        -0.0963
      5 C5         -2.7787   -2.4689    0.0349 C.3       1 <0>        -0.1315
      6 H1         -3.2444   -2.1098   -0.8828 H         1 <0>         0.1034
      7 C6         -3.5821   -1.9771    1.2406 C.3       1 <0>         0.1431
      8 N1         -3.6998   -0.5178    1.1866 N.am      1 <0>        -0.4747
      9 C7         -4.5449    0.0581    0.3088 C.2       1 <0>         0.4788
     10 O1         -4.6424    1.2661    0.2641 O.2       1 <0>        -0.5468
     11 O2         -2.9257    0.2876    2.0567 O.3       1 <0>        -0.3314
     12 C8         -2.7533   -3.9756    0.0291 C.2       1 <0>         0.5251
     13 O3         -1.6947   -4.5645    0.0898 O.2       1 <0>        -0.5103
     14 N2         -3.9068   -4.6689   -0.0435 N.am      1 <0>        -0.7226
     15 C9         -3.8820   -6.1336   -0.0492 C.3       1 <0>         0.1244
     16 H2         -3.0004   -6.4800   -0.5885 H         1 <0>         0.1270
     17 C10        -5.1227   -6.6544   -0.7278 C.2       1 <0>         0.4176
     18 O4         -6.0644   -5.9155   -0.9190 O.2       1 <0>        -0.4376
     19 C11        -5.1913   -8.0637   -1.1594 C.ar      1 <0>         0.0358
     20 C12        -6.3406   -8.5388   -1.7924 C.ar      1 <0>        -0.1084
     21 C13        -6.3893   -9.8648   -2.1916 C.ar      1 <0>        -0.0876
     22 C14        -5.2886  -10.6708   -1.9450 C.ar      1 <0>        -0.1349
     23 C15        -4.1792  -10.1321   -1.3112 C.ar      1 <0>         0.0893
     24 N3         -4.1559   -8.8693   -0.9471 N.ar      1 <0>        -0.4251
     25 C16        -3.8340   -6.6485    1.3908 C.3       1 <0>        -0.0644
     26 C17        -5.0716   -6.1623    2.1477 C.3       1 <0>        -0.1472
     27 C18        -3.8082   -8.1783    1.3848 C.3       1 <0>        -0.1382
     28 C19        -2.5744   -6.1198    2.0797 C.3       1 <0>        -0.1296
     29 H3          2.5440   -1.5473   -2.3820 H         1 <0>         0.0525
     30 H4          1.6590   -3.0889   -2.4754 H         1 <0>         0.0540
     31 H5          1.0034   -1.6368   -3.2690 H         1 <0>         0.0513
     32 H6          1.3498   -2.0179   -0.2604 H         1 <0>         0.0613
     33 H7          0.6942   -0.5658   -1.0541 H         1 <0>         0.0569
     34 H8         -1.1419   -1.9231   -2.0209 H         1 <0>         0.0528
     35 H9         -0.4863   -3.3752   -1.2272 H         1 <0>         0.0810
     36 H10        -0.8450   -2.3832    0.9805 H         1 <0>         0.0742
     37 H11        -1.3707   -0.8516    0.2415 H         1 <0>         0.0732
     38 H12        -4.5766   -2.4228    1.2209 H         1 <0>         0.0950
     39 H13        -3.0723   -2.2667    2.1595 H         1 <0>         0.1051
     40 H14        -5.1353   -0.5562   -0.3549 H         1 <0>         0.1529
     41 H15        -3.0715    1.2373    1.9474 H         1 <0>         0.3981
     42 H16        -4.7534   -4.1979   -0.0921 H         1 <0>         0.4052
     43 H17        -7.1802   -7.8826   -1.9682 H         1 <0>         0.1461
     44 H18        -7.2651  -10.2616   -2.6834 H         1 <0>         0.1437
     45 H19        -5.2953  -11.7087   -2.2435 H         1 <0>         0.1434
     46 H20        -3.3204  -10.7579   -1.1179 H         1 <0>         0.1670
     47 H21        -5.9690   -6.5389    1.6569 H         1 <0>         0.0498
     48 H22        -5.0374   -6.5291    3.1736 H         1 <0>         0.0627
     49 H23        -5.0900   -5.0724    2.1520 H         1 <0>         0.0571
     50 H24        -2.9265   -8.5246    0.8456 H         1 <0>         0.0785
     51 H25        -3.7740   -8.5450    2.4107 H         1 <0>         0.0504
     52 H26        -4.7056   -8.5549    0.8940 H         1 <0>         0.0555
     53 H27        -2.5928   -5.0299    2.0839 H         1 <0>         0.0529
     54 H28        -2.5402   -6.4866    3.1056 H         1 <0>         0.0520
     55 H29        -1.6927   -6.4662    1.5404 H         1 <0>         0.0683
@<TRIPOS>BOND
     1    1    2 1
     2    1   29 1
     3    1   30 1
     4    1   31 1
     5    2    3 1
     6    2   32 1
     7    2   33 1
     8    3    4 1
     9    3   34 1
    10    3   35 1
    11    4    5 1
    12    4   36 1
    13    4   37 1
    14    5    6 1
    15    5    7 1
    16    5   12 1
    17    7    8 1
    18    7   38 1
    19    7   39 1
    20    8    9 am
    21    8   11 1
    22    9   10 2
    23    9   40 1
    24   11   41 1
    25   12   13 2
    26   12   14 am
    27   14   15 1
    28   14   42 1
    29   15   16 1
    30   15   17 1
    31   15   25 1
    32   17   18 2
    33   17   19 1
    34   19   24 ar
    35   19   20 ar
    36   20   21 ar
    37   20   43 1
    38   21   22 ar
    39   21   44 1
    40   22   23 ar
    41   22   45 1
    42   23   24 ar
    43   23   46 1
    44   25   26 1
    45   25   27 1
    46   25   28 1
    47   26   47 1
    48   26   48 1
    49   26   49 1
    50   27   50 1
    51   27   51 1
    52   27   52 1
    53   28   53 1
    54   28   54 1
    55   28   55 1
@<TRIPOS>MOLECULE
CHEMBL289736
   39    41     0     0     0
SMALL
USER_CHARGES

@<TRIPOS>ATOM
      1 C1         -0.2122    1.3692    0.6884 C.ar      1 <0>        -0.0821
      2 C2          0.9353    2.1405    0.7206 C.ar      1 <0>        -0.1276
      3 C3          2.1689    1.5486    0.5203 C.ar      1 <0>        -0.0565
      4 C4          2.2506    0.1861    0.2850 C.ar      1 <0>        -0.1456
      5 C5          1.0977   -0.5973    0.2437 C.ar      1 <0>         0.1626
      6 C6         -0.1363    0.0109    0.4529 C.ar      1 <0>        -0.1450
      7 N1          1.1458   -1.9642   -0.0132 N.am      1 <0>        -0.5377
      8 C7          2.1665   -2.6386   -0.5321 C.2       1 <0>         0.5260
      9 O1          2.0893   -3.8478   -0.5898 O.2       1 <0>        -0.4981
     10 C8          3.4149   -1.9749   -1.0528 C.3       1 <0>        -0.0824
     11 S1          3.8232   -0.5786    0.0391 S.3       1 <0>        -0.0445
     12 C9          3.1705   -1.4625   -2.4735 C.3       1 <0>        -0.1189
     13 C10         4.4546   -0.9098   -3.0360 C.2       1 <0>         0.5312
     14 O2          5.4658   -0.9243   -2.3665 O.2       1 <0>        -0.4980
     15 N2          4.4795   -0.3993   -4.2831 N.am      1 <0>        -0.5963
     16 O3          5.6861    0.1200   -4.8117 O.3       1 <0>        -0.3133
     17 C11        -0.0512   -2.7391    0.3232 C.3       1 <0>         0.0992
     18 C12        -0.0171   -3.1118    1.8067 C.3       1 <0>        -0.1275
     19 C13         0.7203   -4.4304    2.0938 C.3       1 <0>        -0.1289
     20 C14        -0.3823   -4.7318    3.1225 C.3       1 <0>        -0.1437
     21 C15        -1.2961   -3.8121    2.2954 C.3       1 <0>        -0.1304
     22 H1         -1.1740    1.8319    0.8532 H         1 <0>         0.1326
     23 H2          0.8681    3.2031    0.9014 H         1 <0>         0.1335
     24 H3          3.0672    2.1476    0.5475 H         1 <0>         0.1366
     25 H4         -1.0386   -0.5823    0.4314 H         1 <0>         0.1364
     26 H5          4.2368   -2.6908   -1.0547 H         1 <0>         0.1603
     27 H6          2.8224   -2.2830   -3.1009 H         1 <0>         0.1172
     28 H7          2.4155   -0.6765   -2.4514 H         1 <0>         0.1062
     29 H8          3.6707   -0.3877   -4.8186 H         1 <0>         0.4082
     30 H9          5.6054    0.4635   -5.7120 H         1 <0>         0.3892
     31 H10        -0.9399   -2.1419    0.1189 H         1 <0>         0.0905
     32 H11        -0.0773   -3.6472   -0.2791 H         1 <0>         0.1018
     33 H12         0.2989   -2.2856    2.4436 H         1 <0>         0.0927
     34 H13         0.7290   -5.1188    1.2487 H         1 <0>         0.0883
     35 H14         1.7059   -4.2917    2.5381 H         1 <0>         0.0624
     36 H15        -0.7014   -5.7741    3.1278 H         1 <0>         0.0691
     37 H16        -0.1653   -4.3494    4.1198 H         1 <0>         0.0791
     38 H17        -1.9383   -3.1741    2.9026 H         1 <0>         0.0697
     39 H18        -1.8386   -4.3314    1.5055 H         1 <0>         0.0834
@<TRIPOS>BOND
     1    1    6 ar
     2    1    2 ar
     3    1   22 1
     4    2    3 ar
     5    2   23 1
     6    3    4 ar
     7    3   24 1
     8    4   11 1
     9    4    5 ar
    10    5    6 ar
    11    5    7 1
    12    6   25 1
    13    7    8 am
    14    7   17 1
    15    8    9 2
    16    8   10 1
    17   10   11 1
    18   10   12 1
    19   10   26 1
    20   12   13 1
    21   12   27 1
    22   12   28 1
    23   13   14 2
    24   13   15 am
    25   15   16 1
    26   15   29 1
    27   16   30 1
    28   17   18 1
    29   17   31 1
    30   17   32 1
    31   18   21 1
    32   18   19 1
    33   18   33 1
    34   19   20 1
    35   19   34 1
    36   19   35 1
    37   20   21 1
    38   20   36 1
    39   20   37 1
    40   21   38 1
    41   21   39 1
@<TRIPOS>MOLECULE
CHEMBL289736__1
   39    41     0     0     0
SMALL
USER_CHARGES

@<TRIPOS>ATOM
      1 C1         -0.0851    1.3356    0.3330 C.ar      1 <0>        -0.0829
      2 C2          1.0812    2.0789    0.3352 C.ar      1 <0>        -0.1272
      3 C3          2.3033    1.4434    0.2140 C.ar      1 <0>        -0.0566
      4 C4          2.3552    0.0645    0.0940 C.ar      1 <0>        -0.1455
      5 C5          1.1843   -0.6929    0.0984 C.ar      1 <0>         0.1613
      6 C6         -0.0387   -0.0393    0.2151 C.ar      1 <0>        -0.1440
      7 N1          1.2055   -2.0811    0.0027 N.am      1 <0>        -0.5377
      8 C7          2.2545   -2.8737    0.1960 C.2       1 <0>         0.5273
      9 O1          2.1329   -4.0581   -0.0359 O.2       1 <0>        -0.4985
     10 C8          3.5875   -2.3734    0.6886 C.3       1 <0>        -0.0826
     11 S1          3.9115   -0.7532   -0.0720 S.3       1 <0>        -0.0450
     12 C9          3.5517   -2.2287    2.2113 C.3       1 <0>        -0.1179
     13 C10         4.9208   -1.8466    2.7119 C.2       1 <0>         0.5312
     14 O2          5.8352   -1.7041    1.9279 O.2       1 <0>        -0.4980
     15 N2          5.1292   -1.6634    4.0308 N.am      1 <0>        -0.5963
     16 O3          6.4156   -1.3044    4.5012 O.3       1 <0>        -0.3132
     17 C11        -0.0576   -2.7355   -0.3473 C.3       1 <0>         0.1004
     18 C12        -0.8354   -3.0592    0.9299 C.3       1 <0>        -0.1322
     19 C13        -0.4712   -4.4210    1.5445 C.3       1 <0>        -0.1302
     20 C14        -1.9697   -4.5999    1.8400 C.3       1 <0>        -0.1433
     21 C15        -2.2350   -3.6400    0.6683 C.3       1 <0>        -0.1304
     22 H1         -1.0386    1.8337    0.4287 H         1 <0>         0.1326
     23 H2          1.0375    3.1538    0.4311 H         1 <0>         0.1336
     24 H3          3.2157    2.0212    0.2126 H         1 <0>         0.1367
     25 H4         -0.9556   -0.6100    0.2137 H         1 <0>         0.1362
     26 H5          4.3707   -3.0754    0.4026 H         1 <0>         0.1605
     27 H6          2.8353   -1.4545    2.4860 H         1 <0>         0.1058
     28 H7          3.2524   -3.1762    2.6593 H         1 <0>         0.1168
     29 H8          4.3979   -1.7774    4.6578 H         1 <0>         0.4081
     30 H9          6.4673   -1.1952    5.4606 H         1 <0>         0.3891
     31 H10        -0.6502   -2.0696   -0.9746 H         1 <0>         0.0902
     32 H11         0.1493   -3.6577   -0.8903 H         1 <0>         0.1028
     33 H12        -0.8301   -2.2392    1.6479 H         1 <0>         0.0940
     34 H13        -0.0804   -5.1362    0.8207 H         1 <0>         0.0899
     35 H14         0.1446   -4.3449    2.4407 H         1 <0>         0.0606
     36 H15        -2.3313   -5.6132    1.6649 H         1 <0>         0.0698
     37 H16        -2.2743   -4.2021    2.8080 H         1 <0>         0.0792
     38 H17        -3.0432   -2.9335    0.8571 H         1 <0>         0.0705
     39 H18        -2.3265   -4.1417   -0.2951 H         1 <0>         0.0848
@<TRIPOS>BOND
     1    1    6 ar
     2    1    2 ar
     3    1   22 1
     4    2    3 ar
     5    2   23 1
     6    3    4 ar
     7    3   24 1
     8    4   11 1
     9    4    5 ar
    10    5    6 ar
    11    5    7 1
    12    6   25 1
    13    7    8 am
    14    7   17 1
    15    8    9 2
    16    8   10 1
    17   10   11 1
    18   10   12 1
    19   10   26 1
    20   12   13 1
    21   12   27 1
    22   12   28 1
    23   13   14 2
    24   13   15 am
    25   15   16 1
    26   15   29 1
    27   16   30 1
    28   17   18 1
    29   17   31 1
    30   17   32 1
    31   18   21 1
    32   18   19 1
    33   18   33 1
    34   19   20 1
    35   19   34 1
    36   19   35 1
    37   20   21 1
    38   20   36 1
    39   20   37 1
    40   21   38 1
    41   21   39 1
@<TRIPOS>MOLECULE
CHEMBL286917
   36    38     0     0     0
SMALL
USER_CHARGES

@<TRIPOS>ATOM
      1 C1         -0.0166    1.3765    0.0096 C.ar      1 <0>        -0.0840
      2 C2          1.1657    2.0938    0.0022 C.ar      1 <0>        -0.1263
      3 C3          2.3766    1.4260   -0.0083 C.ar      1 <0>        -0.0576
      4 C4          2.4008    0.0412   -0.0145 C.ar      1 <0>        -0.1448
      5 C5          1.2131   -0.6895   -0.0146 C.ar      1 <0>         0.1603
      6 C6          0.0021   -0.0041    0.0020 C.ar      1 <0>        -0.1446
      7 N1          1.2051   -2.0808   -0.0439 N.am      1 <0>        -0.5368
      8 C7          2.2206   -2.8734   -0.3704 C.2       1 <0>         0.5261
      9 O1          2.0829   -4.0713   -0.2383 O.2       1 <0>        -0.4998
     10 C8          3.5343   -2.3571   -0.8971 C.3       1 <0>        -0.0825
     11 S1          3.9432   -0.8187   -0.0170 S.3       1 <0>        -0.0440
     12 C9          3.4123   -2.0752   -2.3959 C.3       1 <0>        -0.1187
     13 C10         4.7586   -1.6767   -2.9433 C.2       1 <0>         0.5314
     14 O2          5.7210   -1.6233   -2.2071 O.2       1 <0>        -0.4978
     15 N2          4.8933   -1.3795   -4.2510 N.am      1 <0>        -0.5962
     16 O3          6.1583   -1.0051   -4.7653 O.3       1 <0>        -0.3131
     17 C11        -0.0512   -2.7391    0.3232 C.3       1 <0>         0.1225
     18 C12        -0.9082   -2.9368   -0.9288 C.3       1 <0>        -0.1715
     19 C13        -2.2488   -2.2020   -0.9905 C.3       1 <0>        -0.1802
     20 C14        -2.2156   -3.7162   -0.7741 C.3       1 <0>        -0.1658
     21 H1         -0.9612    1.8998    0.0260 H         1 <0>         0.1324
     22 H2          1.1434    3.1736    0.0042 H         1 <0>         0.1336
     23 H3          3.3017    1.9833   -0.0113 H         1 <0>         0.1369
     24 H4         -0.9272   -0.5544    0.0094 H         1 <0>         0.1399
     25 H5          4.3152   -3.0973   -0.7228 H         1 <0>         0.1613
     26 H6          3.0634   -2.9724   -2.9071 H         1 <0>         0.1170
     27 H7          2.7006   -1.2654   -2.5566 H         1 <0>         0.1065
     28 H8          4.1237   -1.4222   -4.8398 H         1 <0>         0.4081
     29 H9          6.1560   -0.8110   -5.7127 H         1 <0>         0.3892
     30 H10         0.1644   -3.7084    0.7727 H         1 <0>         0.1061
     31 H11        -0.5909   -2.1187    1.0387 H         1 <0>         0.0918
     32 H12        -0.3571   -3.0583   -1.8613 H         1 <0>         0.1060
     33 H13        -2.5202   -1.5777   -0.1392 H         1 <0>         0.0982
     34 H14        -2.5799   -1.8398   -1.9638 H         1 <0>         0.0981
     35 H15        -2.5249   -4.3503   -1.6050 H         1 <0>         0.0990
     36 H16        -2.4652   -4.0882    0.2196 H         1 <0>         0.0992
@<TRIPOS>BOND
     1    1    6 ar
     2    1    2 ar
     3    1   21 1
     4    2    3 ar
     5    2   22 1
     6    3    4 ar
     7    3   23 1
     8    4   11 1
     9    4    5 ar
    10    5    6 ar
    11    5    7 1
    12    6   24 1
    13    7    8 am
    14    7   17 1
    15    8    9 2
    16    8   10 1
    17   10   11 1
    18   10   12 1
    19   10   25 1
    20   12   13 1
    21   12   26 1
    22   12   27 1
    23   13   14 2
    24   13   15 am
    25   15   16 1
    26   15   28 1
    27   16   29 1
    28   17   18 1
    29   17   30 1
    30   17   31 1
    31   18   20 1
    32   18   19 1
    33   18   32 1
    34   19   20 1
    35   19   33 1
    36   19   34 1
    37   20   35 1
    38   20   36 1
@<TRIPOS>MOLECULE
CHEMBL286917__1
   36    38     0     0     0
SMALL
USER_CHARGES

@<TRIPOS>ATOM
      1 C1         -0.0584    1.3559    0.1986 C.ar      1 <0>        -0.0829
      2 C2          1.1146    2.0885    0.1965 C.ar      1 <0>        -0.1267
      3 C3          2.3326    1.4386    0.1172 C.ar      1 <0>        -0.0569
      4 C4          2.3735    0.0561    0.0434 C.ar      1 <0>        -0.1449
      5 C5          1.1957   -0.6903    0.0525 C.ar      1 <0>         0.1599
      6 C6         -0.0229   -0.0225    0.1267 C.ar      1 <0>        -0.1427
      7 N1          1.2055   -2.0811    0.0027 N.am      1 <0>        -0.5374
      8 C7          2.2436   -2.8762    0.2399 C.2       1 <0>         0.5276
      9 O1          2.1148   -4.0664    0.0449 O.2       1 <0>        -0.4979
     10 C8          3.5727   -2.3716    0.7386 C.3       1 <0>        -0.0824
     11 S1          3.9247   -0.7803   -0.0690 S.3       1 <0>        -0.0443
     12 C9          3.5126   -2.1766    2.2549 C.3       1 <0>        -0.1181
     13 C10         4.8766   -1.7904    2.7662 C.2       1 <0>         0.5313
     14 O2          5.8053   -1.6818    1.9938 O.2       1 <0>        -0.4980
     15 N2          5.0644   -1.5656    4.0817 N.am      1 <0>        -0.5963
     16 O3          6.3460   -1.2027    4.5621 O.3       1 <0>        -0.3132
     17 C11        -0.0576   -2.7355   -0.3473 C.3       1 <0>         0.1235
     18 C12        -0.8354   -3.0592    0.9299 C.3       1 <0>        -0.1793
     19 C13        -1.0914   -4.5340    1.2464 C.3       1 <0>        -0.1678
     20 C14        -2.2410   -3.6426    0.7723 C.3       1 <0>        -0.1695
     21 H1         -1.0086    1.8652    0.2615 H         1 <0>         0.1328
     22 H2          1.0794    3.1663    0.2563 H         1 <0>         0.1337
     23 H3          3.2503    2.0080    0.1125 H         1 <0>         0.1370
     24 H4         -0.9450   -0.5848    0.1283 H         1 <0>         0.1371
     25 H5          4.3540   -3.0896    0.4893 H         1 <0>         0.1609
     26 H6          2.7990   -1.3875    2.4917 H         1 <0>         0.1059
     27 H7          3.1969   -3.1061    2.7286 H         1 <0>         0.1172
     28 H8          4.3216   -1.6524    4.6995 H         1 <0>         0.4081
     29 H9          6.3825   -1.0625    5.5182 H         1 <0>         0.3892
     30 H10        -0.6502   -2.0696   -0.9746 H         1 <0>         0.0947
     31 H11         0.1493   -3.6577   -0.8903 H         1 <0>         0.1015
     32 H12        -0.6607   -2.3868    1.7698 H         1 <0>         0.1070
     33 H13        -0.7058   -5.2737    0.5448 H         1 <0>         0.1001
     34 H14        -1.0852   -4.8322    2.2948 H         1 <0>         0.0941
     35 H15        -2.9910   -3.3542    1.5088 H         1 <0>         0.0985
     36 H16        -2.6116   -3.7957   -0.2412 H         1 <0>         0.0982
@<TRIPOS>BOND
     1    1    6 ar
     2    1    2 ar
     3    1   21 1
     4    2    3 ar
     5    2   22 1
     6    3    4 ar
     7    3   23 1
     8    4   11 1
     9    4    5 ar
    10    5    6 ar
    11    5    7 1
    12    6   24 1
    13    7    8 am
    14    7   17 1
    15    8    9 2
    16    8   10 1
    17   10   11 1
    18   10   12 1
    19   10   25 1
    20   12   13 1
    21   12   26 1
    22   12   27 1
    23   13   14 2
    24   13   15 am
    25   15   16 1
    26   15   28 1
    27   16   29 1
    28   17   18 1
    29   17   30 1
    30   17   31 1
    31   18   20 1
    32   18   19 1
    33   18   32 1
    34   19   20 1
    35   19   33 1
    36   19   34 1
    37   20   35 1
    38   20   36 1
@<TRIPOS>MOLECULE
CHEMBL156201
   56    56     0     0     0
SMALL
USER_CHARGES

@<TRIPOS>ATOM
      1 C1          1.2774   -1.3569    2.1755 C.3       1 <0>        -0.1525
      2 C2          1.2846   -0.9845    0.6916 C.3       1 <0>        -0.1223
      3 C3          2.0146   -2.0693   -0.1029 C.3       1 <0>        -0.1240
      4 C4          2.0219   -1.6969   -1.5869 C.3       1 <0>        -0.0973
      5 C5          2.8623   -2.7125   -2.3635 C.3       1 <0>        -0.1312
      6 H1          3.8510   -2.7879   -1.9107 H         1 <0>         0.1046
      7 C6          3.0005   -2.2551   -3.8169 C.3       1 <0>         0.1428
      8 N1          3.7383   -0.9903   -3.8628 N.am      1 <0>        -0.4749
      9 C7          5.0725   -0.9811   -3.6724 C.2       1 <0>         0.4785
     10 O1          5.6833    0.0660   -3.7104 O.2       1 <0>        -0.5454
     11 O2          3.0496    0.2226   -4.1072 O.3       1 <0>        -0.3308
     12 C8          2.1872   -4.0592   -2.3227 C.2       1 <0>         0.5252
     13 O3          1.1371   -4.1934   -1.7307 O.2       1 <0>        -0.5056
     14 N2          2.7502   -5.1144   -2.9439 N.am      1 <0>        -0.7172
     15 C9          2.0938   -6.4235   -2.9043 C.3       1 <0>         0.1158
     16 H2          1.6020   -6.5544   -1.9404 H         1 <0>         0.1157
     17 C10         3.1233   -7.5076   -3.0942 C.2       1 <0>         0.3950
     18 O4          3.2109   -8.0808   -4.1593 O.2       1 <0>        -0.4183
     19 C11         4.0214   -7.8703   -1.9883 C.ar      1 <0>        -0.1871
     20 C12         3.8494   -7.2931   -0.7251 C.ar      1 <0>        -0.0378
     21 C13         4.6944   -7.6372    0.3069 C.ar      1 <0>        -0.1658
     22 C14         5.7145   -8.5534    0.0959 C.ar      1 <0>         0.1378
     23 C15         5.8905   -9.1292   -1.1537 C.ar      1 <0>        -0.1665
     24 C16         5.0486   -8.7985   -2.1926 C.ar      1 <0>        -0.0277
     25 F1          6.5404   -8.8859    1.1120 F         1 <0>        -0.1301
     26 C17         1.0535   -6.5065   -4.0231 C.3       1 <0>        -0.0675
     27 C18         1.7177   -6.1812   -5.3624 C.3       1 <0>        -0.1510
     28 C19         0.4701   -7.9201   -4.0732 C.3       1 <0>        -0.1538
     29 C20        -0.0678   -5.5014   -3.7524 C.3       1 <0>        -0.1338
     30 H3          0.7663   -2.3104    2.3083 H         1 <0>         0.0539
     31 H4          2.3033   -1.4415    2.5339 H         1 <0>         0.0515
     32 H5          0.7573   -0.5840    2.7415 H         1 <0>         0.0527
     33 H6          0.2587   -0.8998    0.3331 H         1 <0>         0.0613
     34 H7          1.7957   -0.0309    0.5588 H         1 <0>         0.0572
     35 H8          3.0405   -2.1539    0.2555 H         1 <0>         0.0533
     36 H9          1.5035   -3.0229    0.0299 H         1 <0>         0.0806
     37 H10         1.0007   -1.7031   -1.9681 H         1 <0>         0.0743
     38 H11         2.4495   -0.7018   -1.7097 H         1 <0>         0.0740
     39 H12         3.5407   -3.0117   -4.3861 H         1 <0>         0.0947
     40 H13         2.0099   -2.1138   -4.2491 H         1 <0>         0.1055
     41 H14         5.5978   -1.9062   -3.4860 H         1 <0>         0.1522
     42 H15         3.6201    1.0033   -4.1190 H         1 <0>         0.3986
     43 H16         3.5900   -5.0070   -3.4174 H         1 <0>         0.4025
     44 H17         3.0561   -6.5791   -0.5598 H         1 <0>         0.1410
     45 H18         4.5628   -7.1925    1.2822 H         1 <0>         0.1443
     46 H19         6.6866   -9.8418   -1.3113 H         1 <0>         0.1449
     47 H20         5.1839   -9.2508   -3.1639 H         1 <0>         0.1459
     48 H21         2.4225   -6.9718   -5.6199 H         1 <0>         0.0785
     49 H22         0.9552   -6.1074   -6.1377 H         1 <0>         0.0551
     50 H23         2.2488   -5.2326   -5.2836 H         1 <0>         0.0485
     51 H24        -0.0710   -8.1228   -3.1489 H         1 <0>         0.0539
     52 H25        -0.2124   -8.0017   -4.9191 H         1 <0>         0.0623
     53 H26         1.2781   -8.6428   -4.1871 H         1 <0>         0.0690
     54 H27         0.3478   -4.4943   -3.7167 H         1 <0>         0.0574
     55 H28        -0.8090   -5.5605   -4.5495 H         1 <0>         0.0514
     56 H29        -0.5411   -5.7331   -2.7983 H         1 <0>         0.0608
@<TRIPOS>BOND
     1    1    2 1
     2    1   30 1
     3    1   31 1
     4    1   32 1
     5    2    3 1
     6    2   33 1
     7    2   34 1
     8    3    4 1
     9    3   35 1
    10    3   36 1
    11    4    5 1
    12    4   37 1
    13    4   38 1
    14    5    6 1
    15    5    7 1
    16    5   12 1
    17    7    8 1
    18    7   39 1
    19    7   40 1
    20    8    9 am
    21    8   11 1
    22    9   10 2
    23    9   41 1
    24   11   42 1
    25   12   13 2
    26   12   14 am
    27   14   15 1
    28   14   43 1
    29   15   16 1
    30   15   17 1
    31   15   26 1
    32   17   18 2
    33   17   19 1
    34   19   24 ar
    35   19   20 ar
    36   20   21 ar
    37   20   44 1
    38   21   22 ar
    39   21   45 1
    40   22   23 ar
    41   22   25 1
    42   23   24 ar
    43   23   46 1
    44   24   47 1
    45   26   27 1
    46   26   28 1
    47   26   29 1
    48   27   48 1
    49   27   49 1
    50   27   50 1
    51   28   51 1
    52   28   52 1
    53   28   53 1
    54   29   54 1
    55   29   55 1
    56   29   56 1
@<TRIPOS>MOLECULE
CHEMBL90756
   63    63     0     0     0
SMALL
USER_CHARGES

@<TRIPOS>ATOM
      1 C1          0.5613   -0.3228   -1.0419 C.3       1 <0>        -0.1524
      2 C2         -0.2637   -0.3861    0.2450 C.3       1 <0>        -0.1217
      3 C3         -1.4619   -1.3147    0.0375 C.3       1 <0>        -0.1253
      4 C4         -2.2869   -1.3779    1.3245 C.3       1 <0>        -0.0957
      5 C5         -3.5427   -2.2184    1.0844 C.3       1 <0>        -0.1311
      6 H1         -4.0893   -1.8191    0.2301 H         1 <0>         0.1039
      7 C6         -4.4336   -2.1707    2.3274 C.3       1 <0>         0.1430
      8 N1         -4.8601   -0.7902    2.5698 N.am      1 <0>        -0.4747
      9 C7         -5.8315   -0.2423    1.8131 C.2       1 <0>         0.4790
     10 O1         -6.1845    0.9005    2.0138 O.2       1 <0>        -0.5466
     11 O2         -4.2517   -0.0317    3.5992 O.3       1 <0>        -0.3313
     12 C8         -3.1464   -3.6452    0.8049 C.2       1 <0>         0.5258
     13 O3         -1.9749   -3.9590    0.7983 O.2       1 <0>        -0.5126
     14 N2         -4.0938   -4.5726    0.5622 N.am      1 <0>        -0.7144
     15 C9         -3.7085   -5.9596    0.2905 C.3       1 <0>         0.1366
     16 H2         -2.7727   -5.9740   -0.2682 H         1 <0>         0.1101
     17 C10        -4.7874   -6.6312   -0.5195 C.2       1 <0>         0.5198
     18 O4         -5.9537   -6.3753   -0.3065 O.2       1 <0>        -0.5313
     19 N3         -4.4564   -7.5161   -1.4806 N.am      1 <0>        -0.6074
     20 C11        -3.0573   -7.9218   -1.6837 C.3       1 <0>         0.1002
     21 C12        -2.9915   -9.4527   -1.6979 C.3       1 <0>         0.0364
     22 N4         -3.9393   -9.9711   -2.6933 N.3       1 <0>        -0.5426
     23 C13        -5.3232   -9.6256   -2.3420 C.3       1 <0>         0.0399
     24 C14        -5.4853   -8.1064   -2.3501 C.3       1 <0>         0.1149
     25 C15        -3.7854  -11.4224   -2.8610 C.3       1 <0>         0.0243
     26 C16        -3.5244   -6.7063    1.6132 C.3       1 <0>        -0.0705
     27 C17        -4.8300   -6.6621    2.4098 C.3       1 <0>        -0.1440
     28 C18        -3.1493   -8.1621    1.3291 C.3       1 <0>        -0.1537
     29 C19        -2.4099   -6.0412    2.4234 C.3       1 <0>        -0.1315
     30 H3          1.4149    0.3387   -0.8941 H         1 <0>         0.0526
     31 H4          0.9156   -1.3219   -1.2959 H         1 <0>         0.0538
     32 H5         -0.0588    0.0598   -1.8526 H         1 <0>         0.0514
     33 H6          0.3564   -0.7687    1.0557 H         1 <0>         0.0611
     34 H7         -0.6180    0.6130    0.4990 H         1 <0>         0.0569
     35 H8         -2.0820   -0.9321   -0.7731 H         1 <0>         0.0528
     36 H9         -1.1076   -2.3137   -0.2164 H         1 <0>         0.0816
     37 H10        -1.6912   -1.8327    2.1160 H         1 <0>         0.0737
     38 H11        -2.5758   -0.3696    1.6208 H         1 <0>         0.0736
     39 H12        -5.3100   -2.7995    2.1706 H         1 <0>         0.0968
     40 H13        -3.8746   -2.5349    3.1893 H         1 <0>         0.1043
     41 H14        -6.2955   -0.8208    1.0280 H         1 <0>         0.1532
     42 H15        -4.5988    0.8669    3.6832 H         1 <0>         0.3982
     43 H16        -5.0308   -4.3216    0.5675 H         1 <0>         0.4078
     44 H17        -2.6972   -7.5310   -2.6354 H         1 <0>         0.0822
     45 H18        -2.4425   -7.5365   -0.8702 H         1 <0>         0.0964
     46 H19        -1.9817   -9.7710   -1.9569 H         1 <0>         0.0912
     47 H20        -3.2529   -9.8372   -0.7121 H         1 <0>         0.0456
     48 H21        -6.0044  -10.0693   -3.0680 H         1 <0>         0.0906
     49 H22        -5.5521  -10.0077   -1.3471 H         1 <0>         0.0395
     50 H23        -6.4750   -7.8431   -1.9771 H         1 <0>         0.0985
     51 H24        -5.3631   -7.7337   -3.3671 H         1 <0>         0.0787
     52 H25        -3.9713  -11.9198   -1.9091 H         1 <0>         0.0272
     53 H26        -4.4989  -11.7801   -3.6033 H         1 <0>         0.0717
     54 H27        -2.7718  -11.6441   -3.1949 H         1 <0>         0.0722
     55 H28        -5.6239   -7.1359    1.8325 H         1 <0>         0.0633
     56 H29        -4.6988   -7.1940    3.3521 H         1 <0>         0.0579
     57 H30        -5.0972   -5.6250    2.6121 H         1 <0>         0.0568
     58 H31        -2.1813   -8.1970    0.8292 H         1 <0>         0.0628
     59 H32        -3.0933   -8.7127    2.2681 H         1 <0>         0.0664
     60 H33        -3.9059   -8.6137    0.6876 H         1 <0>         0.0579
     61 H34        -2.6772   -5.0040    2.6258 H         1 <0>         0.0567
     62 H35        -2.2787   -6.5731    3.3657 H         1 <0>         0.0538
     63 H36        -1.4798   -6.0726    1.8559 H         1 <0>         0.0656
@<TRIPOS>BOND
     1    1    2 1
     2    1   30 1
     3    1   31 1
     4    1   32 1
     5    2    3 1
     6    2   33 1
     7    2   34 1
     8    3    4 1
     9    3   35 1
    10    3   36 1
    11    4    5 1
    12    4   37 1
    13    4   38 1
    14    5    6 1
    15    5    7 1
    16    5   12 1
    17    7    8 1
    18    7   39 1
    19    7   40 1
    20    8    9 am
    21    8   11 1
    22    9   10 2
    23    9   41 1
    24   11   42 1
    25   12   13 2
    26   12   14 am
    27   14   15 1
    28   14   43 1
    29   15   16 1
    30   15   17 1
    31   15   26 1
    32   17   18 2
    33   17   19 am
    34   19   24 1
    35   19   20 1
    36   20   21 1
    37   20   44 1
    38   20   45 1
    39   21   22 1
    40   21   46 1
    41   21   47 1
    42   22   23 1
    43   22   25 1
    44   23   24 1
    45   23   48 1
    46   23   49 1
    47   24   50 1
    48   24   51 1
    49   25   52 1
    50   25   53 1
    51   25   54 1
    52   26   27 1
    53   26   28 1
    54   26   29 1
    55   27   55 1
    56   27   56 1
    57   27   57 1
    58   28   58 1
    59   28   59 1
    60   28   60 1
    61   29   61 1
    62   29   62 1
    63   29   63 1
@<TRIPOS>MOLECULE
CHEMBL90756__1
   64    64     0     0     0
SMALL
USER_CHARGES

@<TRIPOS>ATOM
      1 C1          0.5849   -0.3123    0.9876 C.3       1 <0>        -0.1524
      2 C2         -0.1025   -0.3638   -0.3783 C.3       1 <0>        -0.1234
      3 C3          0.7017   -1.2619   -1.3204 C.3       1 <0>        -0.1231
      4 C4          0.0144   -1.3134   -2.6864 C.3       1 <0>        -0.0983
      5 C5          0.8742   -2.1221   -3.6598 C.3       1 <0>        -0.1310
      6 H1          1.8805   -1.7044   -3.6891 H         1 <0>         0.1054
      7 C6          0.2559   -2.0613   -5.0580 C.3       1 <0>         0.1441
      8 N1          0.2390   -0.6727   -5.5245 N.am      1 <0>        -0.4771
      9 C7          1.3743   -0.0965   -5.9668 C.2       1 <0>         0.4779
     10 O1          1.3604    1.0531   -6.3530 O.2       1 <0>        -0.5400
     11 O2         -0.9701    0.0642   -5.5107 O.3       1 <0>        -0.3301
     12 C8          0.9386   -3.5561   -3.2010 C.2       1 <0>         0.5294
     13 O3          0.3544   -3.8977   -2.1946 O.2       1 <0>        -0.5082
     14 N2          1.6455   -4.4591   -3.9092 N.am      1 <0>        -0.7197
     15 C9          1.7082   -5.8531   -3.4632 C.3       1 <0>         0.1381
     16 H2          1.7139   -5.8862   -2.3737 H         1 <0>         0.1106
     17 C10         2.9658   -6.4936   -3.9917 C.2       1 <0>         0.5281
     18 O4          3.3707   -6.2113   -5.0996 O.2       1 <0>        -0.4985
     19 N3          3.6407   -7.3800   -3.2332 N.am      1 <0>        -0.6299
     20 C11         3.1131   -7.8181   -1.9318 C.3       1 <0>         0.0715
     21 C12         3.1372   -9.3496   -1.8886 C.3       1 <0>        -0.0272
     22 N4          4.4947   -9.8253   -2.1834 N.4       1 <0>        -0.3850
     23 C13         4.8642   -9.4630   -3.5576 C.3       1 <0>        -0.0211
     24 C14         4.9228   -7.9414   -3.6860 C.3       1 <0>         0.0866
     25 C15         4.5431  -11.2859   -2.0342 C.3       1 <0>        -0.0476
     26 C16         0.4890   -6.6125   -3.9901 C.3       1 <0>        -0.0724
     27 C17         0.4662   -6.5431   -5.5184 C.3       1 <0>        -0.1478
     28 C18         0.5683   -8.0748   -3.5472 C.3       1 <0>        -0.1554
     29 C19        -0.7869   -5.9790   -3.4317 C.3       1 <0>        -0.1358
     30 H3          0.6411   -1.3180    1.4042 H         1 <0>         0.0520
     31 H4          1.5914    0.0902    0.8729 H         1 <0>         0.0516
     32 H5          0.0120    0.3275    1.6588 H         1 <0>         0.0549
     33 H6         -1.1089   -0.7663   -0.2637 H         1 <0>         0.0620
     34 H7         -0.1586    0.6419   -0.7949 H         1 <0>         0.0593
     35 H8          1.7082   -0.8594   -1.4351 H         1 <0>         0.0527
     36 H9          0.7579   -2.2676   -0.9038 H         1 <0>         0.0782
     37 H10        -0.9620   -1.7871   -2.5842 H         1 <0>         0.0747
     38 H11        -0.1115   -0.3003   -3.0682 H         1 <0>         0.0772
     39 H12         0.8477   -2.6678   -5.7437 H         1 <0>         0.0944
     40 H13        -0.7638   -2.4447   -5.0214 H         1 <0>         0.1045
     41 H14         2.2965   -0.6585   -5.9773 H         1 <0>         0.1519
     42 H15        -0.8821    0.9704   -5.8367 H         1 <0>         0.4008
     43 H16         2.1128   -4.1859   -4.7141 H         1 <0>         0.4103
     44 H17         3.7358   -7.4193   -1.1310 H         1 <0>         0.1031
     45 H18         2.0888   -7.4645   -1.8139 H         1 <0>         0.1369
     46 H19         2.8403   -9.6899   -0.8966 H         1 <0>         0.1490
     47 H20         2.4442   -9.7451   -2.6312 H         1 <0>         0.1370
     48 H21         5.8398   -9.8868   -3.7954 H         1 <0>         0.1469
     49 H22         4.1189   -9.8550   -4.2497 H         1 <0>         0.1339
     50 H23         5.0945   -7.6692   -4.7274 H         1 <0>         0.1382
     51 H24         5.7314   -7.5552   -3.0654 H         1 <0>         0.0981
     52 H25         3.8379  -11.7454   -2.7268 H         1 <0>         0.1228
     53 H26         5.5504  -11.6403   -2.2528 H         1 <0>         0.1273
     54 H27         4.2768  -11.5557   -1.0123 H         1 <0>         0.1272
     55 H28         1.3751   -6.9944   -5.9162 H         1 <0>         0.0605
     56 H29        -0.4024   -7.0840   -5.8938 H         1 <0>         0.0639
     57 H30         0.4097   -5.5013   -5.8339 H         1 <0>         0.0621
     58 H31         0.5059   -8.1292   -2.4603 H         1 <0>         0.0623
     59 H32        -0.2582   -8.6330   -3.9870 H         1 <0>         0.0760
     60 H33         1.5138   -8.5041   -3.8787 H         1 <0>         0.0481
     61 H34        -0.8434   -4.9372   -3.7473 H         1 <0>         0.0611
     62 H35        -1.6555   -6.5200   -3.8071 H         1 <0>         0.0594
     63 H36        -0.7707   -6.0285   -2.3430 H         1 <0>         0.0672
     64 H37         5.1455   -9.4021   -1.5388 H         1 <0>         0.4265
@<TRIPOS>BOND
     1    1    2 1
     2    1   30 1
     3    1   31 1
     4    1   32 1
     5    2    3 1
     6    2   33 1
     7    2   34 1
     8    3    4 1
     9    3   35 1
    10    3   36 1
    11    4    5 1
    12    4   37 1
    13    4   38 1
    14    5    6 1
    15    5    7 1
    16    5   12 1
    17    7    8 1
    18    7   39 1
    19    7   40 1
    20    8    9 am
    21    8   11 1
    22    9   10 2
    23    9   41 1
    24   11   42 1
    25   12   13 2
    26   12   14 am
    27   14   15 1
    28   14   43 1
    29   15   16 1
    30   15   17 1
    31   15   26 1
    32   17   18 2
    33   17   19 am
    34   19   24 1
    35   19   20 1
    36   20   21 1
    37   20   44 1
    38   20   45 1
    39   21   22 1
    40   21   46 1
    41   21   47 1
    42   22   23 1
    43   22   25 1
    44   22   64 1
    45   23   24 1
    46   23   48 1
    47   23   49 1
    48   24   50 1
    49   24   51 1
    50   25   52 1
    51   25   53 1
    52   25   54 1
    53   26   27 1
    54   26   28 1
    55   26   29 1
    56   27   55 1
    57   27   56 1
    58   27   57 1
    59   28   58 1
    60   28   59 1
    61   28   60 1
    62   29   61 1
    63   29   62 1
    64   29   63 1
@<TRIPOS>MOLECULE
CHEMBL188671
   64    64     0     0     0
SMALL
USER_CHARGES

@<TRIPOS>ATOM
      1 C1         -0.0187    1.5258    0.0104 C.3       1 <0>        -0.1250
      2 C2          1.4168    2.0552   -0.0004 C.3       1 <0>        -0.1185
      3 C3          1.4118    3.5516    0.3171 C.3       1 <0>        -0.1123
      4 C4          0.0137    3.9726    0.7736 C.3       1 <0>        -0.1514
      5 C5          0.0010    5.4764    1.0561 C.3       1 <0>        -0.1100
      6 C6          0.0950    5.7121    2.5650 C.3       1 <0>        -0.1294
      7 H1         -0.6273    6.4734    2.8597 H         1 <0>         0.0963
      8 C7         -0.2044    4.4268    3.2928 C.2       1 <0>         0.5321
      9 O1          0.5916    3.5118    3.2896 O.2       1 <0>        -0.5137
     10 N1         -1.3982    4.3161    3.9582 N.am      1 <0>        -0.7197
     11 C8         -1.5989    3.0096    4.6349 C.3       1 <0>         0.1200
     12 H2         -0.6698    2.6963    5.1110 H         1 <0>         0.1141
     13 C9         -2.0053    1.9940    3.5983 C.2       1 <0>         0.5047
     14 O2         -2.3830    2.3497    2.5021 O.2       1 <0>        -0.5096
     15 N2         -1.9411    0.6685    3.9127 N.am      1 <0>        -0.7357
     16 C10        -2.3608   -0.2695    2.8493 C.3       1 <0>         0.1056
     17 C11        -1.1168   -0.7583    2.1050 C.3       1 <0>        -0.1386
     18 C12        -1.3010   -0.5353    0.6025 C.3       1 <0>        -0.1201
     19 C13         0.0021   -0.0041    0.0020 C.3       1 <0>        -0.1222
     20 C14        -2.6998    3.1394    5.6894 C.3       1 <0>        -0.1217
     21 C15        -2.2405    4.0967    6.7910 C.3       1 <0>        -0.1186
     22 C16        -3.3414    4.2265    7.8455 C.3       1 <0>        -0.1517
     23 C17        -2.8821    5.1838    8.9471 C.3       1 <0>        -0.0106
     24 N3         -3.9392    5.3084    9.9596 N.4       1 <0>        -0.6384
     25 C18         1.5065    6.1832    2.9208 C.3       1 <0>         0.1434
     26 N4          1.5635    6.5229    4.3448 N.am      1 <0>        -0.4768
     27 C19         1.5917    5.5438    5.2705 C.2       1 <0>         0.4731
     28 O3          1.6389    5.8250    6.4494 O.2       1 <0>        -0.5585
     29 O4          1.5890    7.8799    4.7484 O.3       1 <0>        -0.3325
     30 H3         -0.5288    1.8773    0.9072 H         1 <0>         0.0824
     31 H4         -0.5458    1.8869   -0.8726 H         1 <0>         0.0548
     32 H5          2.0046    1.5266    0.7500 H         1 <0>         0.0580
     33 H6          1.8559    1.8943   -0.9850 H         1 <0>         0.0561
     34 H7          2.1302    3.7569    1.1108 H         1 <0>         0.0613
     35 H8          1.6869    4.1133   -0.5756 H         1 <0>         0.0551
     36 H9         -0.7086    3.7439   -0.0100 H         1 <0>         0.0647
     37 H10        -0.2509    3.4301    1.6813 H         1 <0>         0.1031
     38 H11         0.8509    5.9463    0.5612 H         1 <0>         0.0823
     39 H12        -0.9249    5.9094    0.6776 H         1 <0>         0.0762
     40 H13        -2.0548    5.0295    3.9846 H         1 <0>         0.4141
     41 H14        -1.6388    0.3598    4.7811 H         1 <0>         0.4050
     42 H15        -2.8776   -1.1195    3.2949 H         1 <0>         0.0745
     43 H16        -3.0260    0.2413    2.1531 H         1 <0>         0.0931
     44 H17        -0.2450   -0.2028    2.4506 H         1 <0>         0.0727
     45 H18        -0.9712   -1.8209    2.2995 H         1 <0>         0.0656
     46 H19        -1.5630   -1.4792    0.1245 H         1 <0>         0.0593
     47 H20        -2.0987    0.1890    0.4378 H         1 <0>         0.0682
     48 H21         0.1015   -0.3604   -1.0233 H         1 <0>         0.0569
     49 H22         0.8460   -0.3592    0.5935 H         1 <0>         0.0600
     50 H23        -3.6050    3.5290    5.2236 H         1 <0>         0.0819
     51 H24        -2.9061    2.1603    6.1216 H         1 <0>         0.0894
     52 H25        -1.3353    3.7071    7.2568 H         1 <0>         0.0820
     53 H26        -2.0342    5.0758    6.3587 H         1 <0>         0.0780
     54 H27        -4.2466    4.6161    7.3797 H         1 <0>         0.0891
     55 H28        -3.5478    3.2474    8.2778 H         1 <0>         0.0903
     56 H29        -1.9770    4.7942    9.4129 H         1 <0>         0.1358
     57 H30        -2.6758    6.1629    8.5149 H         1 <0>         0.1340
     58 H31        -4.7771    5.6691    9.5284 H         1 <0>         0.4352
     59 H32        -4.1302    4.4020   10.3598 H         1 <0>         0.4355
     60 H33         2.2197    5.3867    2.7085 H         1 <0>         0.1080
     61 H34         1.7565    7.0625    2.3272 H         1 <0>         0.1121
     62 H35         1.5722    4.5088    4.9626 H         1 <0>         0.1563
     63 H36         1.6266    8.0045    5.7066 H         1 <0>         0.3954
     64 H37        -3.6363    5.9397   10.6861 H         1 <0>         0.4395
@<TRIPOS>BOND
     1    1   19 1
     2    1    2 1
     3    1   30 1
     4    1   31 1
     5    2    3 1
     6    2   32 1
     7    2   33 1
     8    3    4 1
     9    3   34 1
    10    3   35 1
    11    4    5 1
    12    4   36 1
    13    4   37 1
    14    5    6 1
    15    5   38 1
    16    5   39 1
    17    6    7 1
    18    6    8 1
    19    6   25 1
    20    8    9 2
    21    8   10 am
    22   10   11 1
    23   10   40 1
    24   11   12 1
    25   11   13 1
    26   11   20 1
    27   13   14 2
    28   13   15 am
    29   15   16 1
    30   15   41 1
    31   16   17 1
    32   16   42 1
    33   16   43 1
    34   17   18 1
    35   17   44 1
    36   17   45 1
    37   18   19 1
    38   18   46 1
    39   18   47 1
    40   19   48 1
    41   19   49 1
    42   20   21 1
    43   20   50 1
    44   20   51 1
    45   21   22 1
    46   21   52 1
    47   21   53 1
    48   22   23 1
    49   22   54 1
    50   22   55 1
    51   23   24 1
    52   23   56 1
    53   23   57 1
    54   24   58 1
    55   24   59 1
    56   24   64 1
    57   25   26 1
    58   25   60 1
    59   25   61 1
    60   26   27 am
    61   26   29 1
    62   27   28 2
    63   27   62 1
    64   29   63 1
@<TRIPOS>MOLECULE
CHEMBL348314
   76    78     0     0     0
SMALL
USER_CHARGES

@<TRIPOS>ATOM
      1 C1         -0.6063    1.7732   -1.0109 C.3       1 <0>        -0.1545
      2 C2         -0.5757    0.2903   -0.6354 C.3       1 <0>        -0.0677
      3 C3         -0.2857    0.1488    0.8602 C.3       1 <0>        -0.1499
      4 C4         -1.9306   -0.3447   -0.9545 C.3       1 <0>        -0.1340
      5 C5          0.5199   -0.4160   -1.4364 C.3       1 <0>         0.1176
      6 H1          0.2548   -0.4154   -2.4937 H         1 <0>         0.1164
      7 C6          1.8276    0.3083   -1.2461 C.2       1 <0>         0.3937
      8 O1          1.9501    1.1127   -0.3463 O.2       1 <0>        -0.4162
      9 C7          2.9529    0.0407   -2.1492 C.ar      1 <0>        -0.1516
     10 C8          2.7796   -0.7978   -3.2578 C.ar      1 <0>        -0.0727
     11 C9          3.8269   -1.0466   -4.0978 C.ar      1 <0>        -0.1083
     12 C10         5.0710   -0.4696   -3.8575 C.ar      1 <0>         0.2002
     13 C11         5.2552    0.3671   -2.7567 C.ar      1 <0>         0.0783
     14 C12         4.2023    0.6279   -1.9082 C.ar      1 <0>        -0.0894
     15 F1          6.4636    0.9254   -2.5263 F         1 <0>        -0.1283
     16 N1          6.1328   -0.7285   -4.7169 N.pl3     1 <0>        -0.6766
     17 C13         7.0948   -1.8377   -4.5843 C.3       1 <0>         0.1376
     18 C14         8.3610   -1.3564   -5.3358 C.3       1 <0>        -0.1320
     19 C15         7.7400   -0.5843   -6.5298 C.3       1 <0>        -0.1233
     20 C16         6.4784    0.0550   -5.9120 C.3       1 <0>         0.1618
     21 H2          6.6878    1.0871   -5.6310 H         1 <0>         0.0719
     22 C17         5.3243    0.0098   -6.9155 C.3       1 <0>         0.0623
     23 O2          5.1523   -1.3293   -7.3837 O.3       1 <0>        -0.5617
     24 N2          0.6541   -1.7975   -0.9675 N.am      1 <0>        -0.7166
     25 C18        -0.1492   -2.7588   -1.4644 C.2       1 <0>         0.5261
     26 O3         -0.9832   -2.4803   -2.2998 O.2       1 <0>        -0.5095
     27 C19        -0.0112   -4.1798   -0.9820 C.3       1 <0>        -0.1322
     28 H3          0.9948   -4.5403   -1.1968 H         1 <0>         0.1061
     29 C20        -1.0336   -5.0635   -1.6995 C.3       1 <0>        -0.0874
     30 C21        -0.6854   -6.5356   -1.4700 C.3       1 <0>        -0.1135
     31 C22         0.6163   -6.8934   -2.2165 C.3       1 <0>        -0.1213
     32 C23         0.3759   -8.3349   -2.7298 C.3       1 <0>        -0.1245
     33 C24        -1.1188   -8.3085   -3.1351 C.3       1 <0>        -0.1253
     34 C25        -1.7886   -7.4354   -2.0541 C.3       1 <0>        -0.1167
     35 C26        -0.2607   -4.2329    0.5265 C.3       1 <0>         0.1436
     36 N3          0.0558   -5.5728    1.0271 N.am      1 <0>        -0.4704
     37 C27         1.3308   -6.0095    1.0242 C.2       1 <0>         0.4776
     38 O4          1.5928   -7.1188    1.4386 O.2       1 <0>        -0.5413
     39 O5         -0.9779   -6.4092    1.5139 O.3       1 <0>        -0.3274
     40 H4          0.3193    2.2492   -0.6871 H         1 <0>         0.0726
     41 H5         -0.7071    1.8724   -2.0916 H         1 <0>         0.0527
     42 H6         -1.4530    2.2545   -0.5213 H         1 <0>         0.0617
     43 H7         -1.1424    0.5056    1.4318 H         1 <0>         0.0555
     44 H8         -0.1018   -0.8992    1.0970 H         1 <0>         0.0490
     45 H9          0.5939    0.7391    1.1172 H         1 <0>         0.0767
     46 H10        -2.1372   -0.2439   -2.0200 H         1 <0>         0.0602
     47 H11        -1.9087   -1.4012   -0.6871 H         1 <0>         0.0580
     48 H12        -2.7111    0.1585   -0.3839 H         1 <0>         0.0517
     49 H13         1.8167   -1.2484   -3.4481 H         1 <0>         0.1368
     50 H14         3.6898   -1.6936   -4.9516 H         1 <0>         0.1419
     51 H15         4.3401    1.2791   -1.0576 H         1 <0>         0.1478
     52 H16         7.3228   -2.0185   -3.5338 H         1 <0>         0.0577
     53 H17         6.6986   -2.7409   -5.0482 H         1 <0>         0.0557
     54 H18         8.9584   -0.6934   -4.7100 H         1 <0>         0.0724
     55 H19         8.9541   -2.2023   -5.6835 H         1 <0>         0.0805
     56 H20         8.4255    0.1818   -6.8920 H         1 <0>         0.0758
     57 H21         7.4671   -1.2697   -7.3322 H         1 <0>         0.0875
     58 H22         4.4078    0.3457   -6.4305 H         1 <0>         0.0435
     59 H23         5.5499    0.6632   -7.7583 H         1 <0>         0.0509
     60 H24         4.4357   -1.4329   -8.0247 H         1 <0>         0.3762
     61 H25         1.3211   -2.0202   -0.2994 H         1 <0>         0.4028
     62 H26        -2.0294   -4.8601   -1.3058 H         1 <0>         0.0709
     63 H27        -1.0141   -4.8478   -2.7677 H         1 <0>         0.0775
     64 H28        -0.5707   -6.7300   -0.4036 H         1 <0>         0.0982
     65 H29         0.7761   -6.2124   -3.0525 H         1 <0>         0.0651
     66 H30         1.4664   -6.8680   -1.5347 H         1 <0>         0.0557
     67 H31         1.0066   -8.5477   -3.5930 H         1 <0>         0.0637
     68 H32         0.5481   -9.0614   -1.9357 H         1 <0>         0.0651
     69 H33        -1.2392   -7.8562   -4.1195 H         1 <0>         0.0636
     70 H34        -1.5349   -9.3159   -3.1237 H         1 <0>         0.0623
     71 H35        -2.2086   -8.0671   -1.2713 H         1 <0>         0.0609
     72 H36        -2.5720   -6.8233   -2.5010 H         1 <0>         0.0629
     73 H37         0.3728   -3.4996    1.0256 H         1 <0>         0.0904
     74 H38        -1.3075   -4.0069    0.7298 H         1 <0>         0.1076
     75 H39         2.1192   -5.3716    0.6529 H         1 <0>         0.1492
     76 H40        -0.6724   -7.2733    1.8223 H         1 <0>         0.3984
@<TRIPOS>BOND
     1    1    2 1
     2    1   40 1
     3    1   41 1
     4    1   42 1
     5    2    3 1
     6    2    4 1
     7    2    5 1
     8    3   43 1
     9    3   44 1
    10    3   45 1
    11    4   46 1
    12    4   47 1
    13    4   48 1
    14    5    6 1
    15    5    7 1
    16    5   24 1
    17    7    8 2
    18    7    9 1
    19    9   14 ar
    20    9   10 ar
    21   10   11 ar
    22   10   49 1
    23   11   12 ar
    24   11   50 1
    25   12   13 ar
    26   12   16 1
    27   13   14 ar
    28   13   15 1
    29   14   51 1
    30   16   20 1
    31   16   17 1
    32   17   18 1
    33   17   52 1
    34   17   53 1
    35   18   19 1
    36   18   54 1
    37   18   55 1
    38   19   20 1
    39   19   56 1
    40   19   57 1
    41   20   21 1
    42   20   22 1
    43   22   23 1
    44   22   58 1
    45   22   59 1
    46   23   60 1
    47   24   25 am
    48   24   61 1
    49   25   26 2
    50   25   27 1
    51   27   28 1
    52   27   29 1
    53   27   35 1
    54   29   30 1
    55   29   62 1
    56   29   63 1
    57   30   34 1
    58   30   31 1
    59   30   64 1
    60   31   32 1
    61   31   65 1
    62   31   66 1
    63   32   33 1
    64   32   67 1
    65   32   68 1
    66   33   34 1
    67   33   69 1
    68   33   70 1
    69   34   71 1
    70   34   72 1
    71   35   36 1
    72   35   73 1
    73   35   74 1
    74   36   37 am
    75   36   39 1
    76   37   38 2
    77   37   75 1
    78   39   76 1
@<TRIPOS>MOLECULE
CHEMBL156414
   73    75     0     0     0
SMALL
USER_CHARGES

@<TRIPOS>ATOM
      1 C1         -0.6063    1.7732   -1.0109 C.3       1 <0>        -0.1547
      2 C2         -0.5757    0.2903   -0.6354 C.3       1 <0>        -0.0677
      3 C3         -0.2857    0.1488    0.8602 C.3       1 <0>        -0.1500
      4 C4         -1.9306   -0.3447   -0.9545 C.3       1 <0>        -0.1341
      5 C5          0.5199   -0.4160   -1.4364 C.3       1 <0>         0.1175
      6 H1          0.2548   -0.4154   -2.4937 H         1 <0>         0.1168
      7 C6          1.8276    0.3083   -1.2461 C.2       1 <0>         0.3932
      8 O1          1.9501    1.1127   -0.3463 O.2       1 <0>        -0.4148
      9 C7          2.9529    0.0407   -2.1492 C.ar      1 <0>        -0.1495
     10 C8          2.7796   -0.7978   -3.2578 C.ar      1 <0>        -0.0705
     11 C9          3.8269   -1.0466   -4.0978 C.ar      1 <0>        -0.1103
     12 C10         5.0710   -0.4696   -3.8575 C.ar      1 <0>         0.1787
     13 C11         5.2552    0.3671   -2.7567 C.ar      1 <0>         0.0810
     14 C12         4.2023    0.6279   -1.9082 C.ar      1 <0>        -0.0878
     15 F1          6.4636    0.9254   -2.5263 F         1 <0>        -0.1273
     16 N1          6.1328   -0.7284   -4.7169 N.pl3     1 <0>        -0.6812
     17 C13         7.0337   -1.8688   -4.4859 C.3       1 <0>         0.1088
     18 C14         7.1472   -2.6671   -5.7896 C.3       1 <0>         0.0468
     19 O2          7.5037   -1.7819   -6.8540 O.3       1 <0>        -0.3787
     20 C15         6.5336   -0.7662   -7.1203 C.3       1 <0>         0.0470
     21 C16         6.3852    0.1262   -5.8879 C.3       1 <0>         0.1081
     22 N2          0.6541   -1.7975   -0.9675 N.am      1 <0>        -0.7169
     23 C17        -0.1492   -2.7588   -1.4644 C.2       1 <0>         0.5258
     24 O3         -0.9832   -2.4803   -2.2998 O.2       1 <0>        -0.5090
     25 C18        -0.0112   -4.1798   -0.9820 C.3       1 <0>        -0.1320
     26 H2          0.9948   -4.5403   -1.1968 H         1 <0>         0.1059
     27 C19        -1.0336   -5.0635   -1.6995 C.3       1 <0>        -0.0876
     28 C20        -0.6854   -6.5356   -1.4700 C.3       1 <0>        -0.1135
     29 C21         0.6163   -6.8934   -2.2165 C.3       1 <0>        -0.1212
     30 C22         0.3759   -8.3349   -2.7298 C.3       1 <0>        -0.1245
     31 C23        -1.1188   -8.3085   -3.1351 C.3       1 <0>        -0.1254
     32 C24        -1.7886   -7.4354   -2.0541 C.3       1 <0>        -0.1168
     33 C25        -0.2607   -4.2329    0.5265 C.3       1 <0>         0.1435
     34 N3          0.0558   -5.5728    1.0271 N.am      1 <0>        -0.4704
     35 C26         1.3308   -6.0095    1.0242 C.2       1 <0>         0.4775
     36 O4          1.5928   -7.1188    1.4386 O.2       1 <0>        -0.5411
     37 O5         -0.9779   -6.4092    1.5139 O.3       1 <0>        -0.3272
     38 H3          0.3193    2.2492   -0.6871 H         1 <0>         0.0724
     39 H4         -0.7071    1.8724   -2.0916 H         1 <0>         0.0530
     40 H5         -1.4530    2.2545   -0.5213 H         1 <0>         0.0620
     41 H6         -1.1424    0.5056    1.4318 H         1 <0>         0.0558
     42 H7         -0.1018   -0.8992    1.0970 H         1 <0>         0.0490
     43 H8          0.5939    0.7391    1.1172 H         1 <0>         0.0766
     44 H9         -2.1372   -0.2439   -2.0200 H         1 <0>         0.0603
     45 H10        -1.9087   -1.4012   -0.6871 H         1 <0>         0.0579
     46 H11        -2.7111    0.1585   -0.3839 H         1 <0>         0.0519
     47 H12         1.8167   -1.2484   -3.4481 H         1 <0>         0.1382
     48 H13         3.6898   -1.6936   -4.9516 H         1 <0>         0.1384
     49 H14         4.3401    1.2791   -1.0576 H         1 <0>         0.1487
     50 H15         8.0180   -1.5051   -4.1912 H         1 <0>         0.0647
     51 H16         6.6264   -2.5050   -3.7001 H         1 <0>         0.0800
     52 H17         7.9143   -3.4339   -5.6813 H         1 <0>         0.1026
     53 H18         6.1898   -3.1379   -6.0127 H         1 <0>         0.0537
     54 H19         6.8592   -0.1653   -7.9694 H         1 <0>         0.1031
     55 H20         5.5739   -1.2300   -7.3483 H         1 <0>         0.0535
     56 H21         5.5488    0.8105   -6.0301 H         1 <0>         0.0804
     57 H22         7.3032    0.6942   -5.7367 H         1 <0>         0.0646
     58 H23         1.3211   -2.0202   -0.2994 H         1 <0>         0.4027
     59 H24        -2.0294   -4.8601   -1.3058 H         1 <0>         0.0711
     60 H25        -1.0141   -4.8478   -2.7677 H         1 <0>         0.0775
     61 H26        -0.5707   -6.7300   -0.4036 H         1 <0>         0.0982
     62 H27         0.7761   -6.2124   -3.0525 H         1 <0>         0.0647
     63 H28         1.4664   -6.8680   -1.5347 H         1 <0>         0.0556
     64 H29         1.0066   -8.5477   -3.5930 H         1 <0>         0.0636
     65 H30         0.5481   -9.0614   -1.9357 H         1 <0>         0.0653
     66 H31        -1.2392   -7.8562   -4.1195 H         1 <0>         0.0636
     67 H32        -1.5349   -9.3159   -3.1237 H         1 <0>         0.0624
     68 H33        -2.2086   -8.0671   -1.2713 H         1 <0>         0.0611
     69 H34        -2.5720   -6.8233   -2.5010 H         1 <0>         0.0630
     70 H35         0.3728   -3.4996    1.0256 H         1 <0>         0.0904
     71 H36        -1.3075   -4.0069    0.7298 H         1 <0>         0.1077
     72 H37         2.1192   -5.3716    0.6529 H         1 <0>         0.1490
     73 H38        -0.6724   -7.2733    1.8223 H         1 <0>         0.3985
@<TRIPOS>BOND
     1    1    2 1
     2    1   38 1
     3    1   39 1
     4    1   40 1
     5    2    3 1
     6    2    4 1
     7    2    5 1
     8    3   41 1
     9    3   42 1
    10    3   43 1
    11    4   44 1
    12    4   45 1
    13    4   46 1
    14    5    6 1
    15    5    7 1
    16    5   22 1
    17    7    8 2
    18    7    9 1
    19    9   14 ar
    20    9   10 ar
    21   10   11 ar
    22   10   47 1
    23   11   12 ar
    24   11   48 1
    25   12   13 ar
    26   12   16 1
    27   13   14 ar
    28   13   15 1
    29   14   49 1
    30   16   21 1
    31   16   17 1
    32   17   18 1
    33   17   50 1
    34   17   51 1
    35   18   19 1
    36   18   52 1
    37   18   53 1
    38   19   20 1
    39   20   21 1
    40   20   54 1
    41   20   55 1
    42   21   56 1
    43   21   57 1
    44   22   23 am
    45   22   58 1
    46   23   24 2
    47   23   25 1
    48   25   26 1
    49   25   27 1
    50   25   33 1
    51   27   28 1
    52   27   59 1
    53   27   60 1
    54   28   32 1
    55   28   29 1
    56   28   61 1
    57   29   30 1
    58   29   62 1
    59   29   63 1
    60   30   31 1
    61   30   64 1
    62   30   65 1
    63   31   32 1
    64   31   66 1
    65   31   67 1
    66   32   68 1
    67   32   69 1
    68   33   34 1
    69   33   70 1
    70   33   71 1
    71   34   35 am
    72   34   37 1
    73   35   36 2
    74   35   72 1
    75   37   73 1
@<TRIPOS>MOLECULE
CHEMBL365416
   67    67     0     0     0
SMALL
USER_CHARGES

@<TRIPOS>ATOM
      1 C1         -0.4440    1.5836   -0.2582 C.3       1 <0>        -0.1620
      2 C2         -0.2039    0.0747   -0.3378 C.3       1 <0>        -0.0691
      3 C3          0.7541   -0.3488    0.7776 C.3       1 <0>        -0.1314
      4 C4         -1.5344   -0.6628   -0.1746 C.3       1 <0>        -0.1438
      5 C5          0.4089   -0.2733   -1.6958 C.3       1 <0>         0.1402
      6 H1          0.2363   -1.3270   -1.9153 H         1 <0>         0.0969
      7 C6         -0.2235    0.5761   -2.7679 C.2       1 <0>         0.4955
      8 O1          0.0058    1.7657   -2.8257 O.2       1 <0>        -0.4659
      9 N1         -1.0571   -0.0122   -3.6712 N.am      1 <0>        -0.7440
     10 C7         -1.6420    0.8787   -4.6952 C.3       1 <0>         0.1159
     11 C8         -0.5075    1.5126   -5.5026 C.3       1 <0>        -0.1323
     12 C9         -0.9149    2.9226   -5.9347 C.3       1 <0>        -0.1141
     13 C10         0.1347    3.4847   -6.8956 C.3       1 <0>        -0.1202
     14 C11         0.6878    4.7969   -6.3360 C.3       1 <0>        -0.1220
     15 C12         2.2171    4.7598   -6.3664 C.3       1 <0>        -0.1178
     16 C13         2.7704    5.5764   -5.1968 C.3       1 <0>        -0.1231
     17 C14         4.0699    4.9398   -4.6999 C.3       1 <0>        -0.1157
     18 C15         4.0822    4.9334   -3.1700 C.3       1 <0>        -0.1220
     19 C16         4.6293    3.5950   -2.6699 C.3       1 <0>        -0.1280
     20 C17         3.8577    3.1631   -1.4213 C.3       1 <0>        -0.1182
     21 C18         3.6932    1.6421   -1.4241 C.3       1 <0>        -0.1304
     22 H2          4.1404    1.2266   -0.5211 H         1 <0>         0.0979
     23 C19         2.2271    1.2952   -1.4639 C.2       1 <0>         0.4933
     24 O2          1.3861    2.1566   -1.3168 O.2       1 <0>        -0.4338
     25 N2          1.8618   -0.0049   -1.6671 N.am      1 <0>        -0.7357
     26 C20         4.3894    1.0561   -2.6541 C.3       1 <0>         0.1428
     27 N3          5.8228    1.3518   -2.5910 N.am      1 <0>        -0.4713
     28 C21         6.5766    0.8261   -1.6051 C.2       1 <0>         0.4794
     29 O3          7.7428    1.1420   -1.4993 O.2       1 <0>        -0.5480
     30 O4          6.4164    2.1898   -3.5658 O.3       1 <0>        -0.3256
     31 H3          0.4527    2.0748    0.1198 H         1 <0>         0.0795
     32 H4         -0.6771    1.9673   -1.2515 H         1 <0>         0.1040
     33 H5         -1.2786    1.7838    0.4137 H         1 <0>         0.0231
     34 H6          0.3175   -0.1008    1.7451 H         1 <0>         0.0565
     35 H7          0.9251   -1.4238    0.7209 H         1 <0>         0.0518
     36 H8          1.7020    0.1766    0.6613 H         1 <0>         0.0550
     37 H9         -2.2169   -0.3611   -0.9691 H         1 <0>         0.0552
     38 H10        -1.3634   -1.7378   -0.2312 H         1 <0>         0.0553
     39 H11        -1.9710   -0.4148    0.7929 H         1 <0>         0.0624
     40 H12        -1.2550   -0.9614   -3.6439 H         1 <0>         0.4021
     41 H13        -2.2840    0.3000   -5.3593 H         1 <0>         0.0768
     42 H14        -2.2256    1.6605   -4.2090 H         1 <0>         0.0687
     43 H15         0.3905    1.5664   -4.8871 H         1 <0>         0.0794
     44 H16        -0.3069    0.9058   -6.3856 H         1 <0>         0.0551
     45 H17        -1.8823    2.8840   -6.4354 H         1 <0>         0.0547
     46 H18        -0.9853    3.5654   -5.0572 H         1 <0>         0.0696
     47 H19         0.9468    2.7664   -7.0074 H         1 <0>         0.0621
     48 H20        -0.3238    3.6688   -7.8672 H         1 <0>         0.0567
     49 H21         0.3324    5.6294   -6.9432 H         1 <0>         0.0561
     50 H22         0.3479    4.9255   -5.3084 H         1 <0>         0.0678
     51 H23         2.5573    3.7277   -6.2820 H         1 <0>         0.0616
     52 H24         2.5722    5.1838   -7.3057 H         1 <0>         0.0554
     53 H25         2.9685    6.5961   -5.5272 H         1 <0>         0.0552
     54 H26         2.0407    5.5921   -4.3873 H         1 <0>         0.0661
     55 H27         4.1369    3.9161   -5.0681 H         1 <0>         0.0624
     56 H28         4.9199    5.5146   -5.0677 H         1 <0>         0.0541
     57 H29         4.7162    5.7430   -2.8084 H         1 <0>         0.0519
     58 H30         3.0672    5.0728   -2.7979 H         1 <0>         0.0646
     59 H31         4.5122    2.8409   -3.4483 H         1 <0>         0.0858
     60 H32         5.6859    3.7031   -2.4248 H         1 <0>         0.0653
     61 H33         4.4079    3.4674   -0.5309 H         1 <0>         0.0600
     62 H34         2.8751    3.6349   -1.4201 H         1 <0>         0.0948
     63 H35         2.5160   -0.7109   -1.7875 H         1 <0>         0.4068
     64 H36         4.2417   -0.0237   -2.6752 H         1 <0>         0.0834
     65 H37         3.9665    1.4983   -3.5561 H         1 <0>         0.1117
     66 H38         6.1422    0.1235   -0.9094 H         1 <0>         0.1493
     67 H39         7.3656    2.3266   -3.4416 H         1 <0>         0.3922
@<TRIPOS>BOND
     1    1    2 1
     2    1   31 1
     3    1   32 1
     4    1   33 1
     5    2    3 1
     6    2    4 1
     7    2    5 1
     8    3   34 1
     9    3   35 1
    10    3   36 1
    11    4   37 1
    12    4   38 1
    13    4   39 1
    14    5    6 1
    15    5   25 1
    16    5    7 1
    17    7    8 2
    18    7    9 am
    19    9   10 1
    20    9   40 1
    21   10   11 1
    22   10   41 1
    23   10   42 1
    24   11   12 1
    25   11   43 1
    26   11   44 1
    27   12   13 1
    28   12   45 1
    29   12   46 1
    30   13   14 1
    31   13   47 1
    32   13   48 1
    33   14   15 1
    34   14   49 1
    35   14   50 1
    36   15   16 1
    37   15   51 1
    38   15   52 1
    39   16   17 1
    40   16   53 1
    41   16   54 1
    42   17   18 1
    43   17   55 1
    44   17   56 1
    45   18   19 1
    46   18   57 1
    47   18   58 1
    48   19   20 1
    49   19   59 1
    50   19   60 1
    51   20   21 1
    52   20   61 1
    53   20   62 1
    54   21   22 1
    55   21   23 1
    56   21   26 1
    57   23   24 2
    58   23   25 am
    59   25   63 1
    60   26   27 1
    61   26   64 1
    62   26   65 1
    63   27   28 am
    64   27   30 1
    65   28   29 2
    66   28   66 1
    67   30   67 1
@<TRIPOS>MOLECULE
CHEMBL308333
   62    62     0     0     0
SMALL
USER_CHARGES

@<TRIPOS>ATOM
      1 C1          3.2541    2.1779    2.6729 C.3       1 <0>        -0.1533
      2 C2          3.5223    0.6722    2.6297 C.3       1 <0>        -0.1245
      3 C3          2.1925   -0.0837    2.6626 C.3       1 <0>        -0.1167
      4 C4          2.4606   -1.5894    2.6195 C.3       1 <0>        -0.1220
      5 C5          1.1309   -2.3454    2.6523 C.3       1 <0>        -0.1012
      6 C6          1.3906   -3.8423    2.4715 C.3       1 <0>        -0.0906
      7 H1          1.9759   -4.0028    1.5661 H         1 <0>         0.1121
      8 C7          0.0559   -4.5810    2.3536 C.3       1 <0>        -0.1229
      9 C8         -0.6306   -4.1768    1.0744 C.2       1 <0>         0.5261
     10 O1         -0.0560   -3.4677    0.2757 O.2       1 <0>        -0.5085
     11 N1         -1.8830   -4.6035    0.8179 N.am      1 <0>        -0.5979
     12 O2         -2.5281   -4.2238   -0.3841 O.3       1 <0>        -0.3170
     13 C9          2.1519   -4.3674    3.6614 C.2       1 <0>         0.5240
     14 O3          2.4567   -3.6181    4.5650 O.2       1 <0>        -0.5188
     15 N2          2.4941   -5.6696    3.7213 N.am      1 <0>        -0.7120
     16 C10         3.2342   -6.1801    4.8780 C.3       1 <0>         0.1368
     17 H2          3.9252   -5.4157    5.2334 H         1 <0>         0.1131
     18 C11         2.2515   -6.5381    5.9947 C.3       1 <0>        -0.1069
     19 C12         1.4658   -5.2901    6.4022 C.3       1 <0>        -0.1379
     20 C13         1.2815   -7.6111    5.4959 C.3       1 <0>        -0.1463
     21 C14         4.0080   -7.4094    4.4766 C.2       1 <0>         0.5325
     22 O4          3.9473   -7.8188    3.3366 O.2       1 <0>        -0.5380
     23 N3          4.7676   -8.0538    5.3845 N.am      1 <0>        -0.6013
     24 C15         4.9262   -7.6706    6.7992 C.3       1 <0>         0.0968
     25 C16         6.2883   -8.2744    7.2233 C.3       1 <0>        -0.1335
     26 C17         6.2883   -9.6182    6.4476 C.3       1 <0>        -0.1268
     27 C18         5.5701   -9.2590    5.1296 C.3       1 <0>         0.1392
     28 H3          6.3063   -9.0564    4.3518 H         1 <0>         0.0890
     29 C19         4.6583  -10.4101    4.7002 C.3       1 <0>         0.0623
     30 O5          3.7918  -10.7602    5.7813 O.3       1 <0>        -0.5666
     31 H4          2.7180    2.4254    3.5891 H         1 <0>         0.0527
     32 H5          4.2015    2.7165    2.6495 H         1 <0>         0.0520
     33 H6          2.6518    2.4646    1.8108 H         1 <0>         0.0528
     34 H7          4.0583    0.4248    1.7135 H         1 <0>         0.0590
     35 H8          4.1246    0.3856    3.4918 H         1 <0>         0.0600
     36 H9          1.6564    0.1637    3.5789 H         1 <0>         0.0596
     37 H10         1.5902    0.2029    1.8006 H         1 <0>         0.0585
     38 H11         2.9967   -1.8369    1.7032 H         1 <0>         0.0556
     39 H12         3.0630   -1.8761    3.4815 H         1 <0>         0.0786
     40 H13         0.6396   -2.1750    3.6103 H         1 <0>         0.0680
     41 H14         0.4897   -1.9880    1.8466 H         1 <0>         0.0795
     42 H15         0.2351   -5.6561    2.3458 H         1 <0>         0.1035
     43 H16        -0.5776   -4.3244    3.2027 H         1 <0>         0.1055
     44 H17        -2.3426   -5.1707    1.4566 H         1 <0>         0.4082
     45 H18        -3.4228   -4.5780   -0.4792 H         1 <0>         0.3886
     46 H19         2.2503   -6.2689    2.9986 H         1 <0>         0.4080
     47 H20         2.8021   -6.9179    6.8553 H         1 <0>         0.0882
     48 H21         0.7657   -5.5451    7.1978 H         1 <0>         0.0518
     49 H22         2.1568   -4.5257    6.7576 H         1 <0>         0.0658
     50 H23         0.9152   -4.9103    5.5416 H         1 <0>         0.0555
     51 H24         1.8412   -8.5002    5.2056 H         1 <0>         0.0560
     52 H25         0.5814   -7.8661    6.2915 H         1 <0>         0.0598
     53 H26         0.7308   -7.2313    4.6353 H         1 <0>         0.0542
     54 H27         4.9450   -6.5853    6.8985 H         1 <0>         0.0785
     55 H28         4.1205   -8.0934    7.3994 H         1 <0>         0.0793
     56 H29         7.1140   -7.6388    6.9035 H         1 <0>         0.0768
     57 H30         6.3222   -8.4445    8.2994 H         1 <0>         0.0878
     58 H31         7.3078   -9.9524    6.2553 H         1 <0>         0.0815
     59 H32         5.7286  -10.3782    6.9928 H         1 <0>         0.0913
     60 H33         4.0618  -10.1004    3.8421 H         1 <0>         0.0611
     61 H34         5.2662  -11.2729    4.4278 H         1 <0>         0.0544
     62 H35         3.1843  -11.4850    5.5795 H         1 <0>         0.3790
@<TRIPOS>BOND
     1    1    2 1
     2    1   31 1
     3    1   32 1
     4    1   33 1
     5    2    3 1
     6    2   34 1
     7    2   35 1
     8    3    4 1
     9    3   36 1
    10    3   37 1
    11    4    5 1
    12    4   38 1
    13    4   39 1
    14    5    6 1
    15    5   40 1
    16    5   41 1
    17    6    7 1
    18    6    8 1
    19    6   13 1
    20    8    9 1
    21    8   42 1
    22    8   43 1
    23    9   10 2
    24    9   11 am
    25   11   12 1
    26   11   44 1
    27   12   45 1
    28   13   14 2
    29   13   15 am
    30   15   16 1
    31   15   46 1
    32   16   17 1
    33   16   18 1
    34   16   21 1
    35   18   19 1
    36   18   20 1
    37   18   47 1
    38   19   48 1
    39   19   49 1
    40   19   50 1
    41   20   51 1
    42   20   52 1
    43   20   53 1
    44   21   22 2
    45   21   23 am
    46   23   27 1
    47   23   24 1
    48   24   25 1
    49   24   54 1
    50   24   55 1
    51   25   26 1
    52   25   56 1
    53   25   57 1
    54   26   27 1
    55   26   58 1
    56   26   59 1
    57   27   28 1
    58   27   29 1
    59   29   30 1
    60   29   60 1
    61   29   61 1
    62   30   62 1
@<TRIPOS>MOLECULE
CHEMBL347204
   53    53     0     0     0
SMALL
USER_CHARGES

@<TRIPOS>ATOM
      1 C1          1.3413   -2.0360    2.5103 C.3       1 <0>        -0.1526
      2 C2          0.6058   -1.6640    1.2213 C.3       1 <0>        -0.1217
      3 C3          1.3370   -2.2728    0.0231 C.3       1 <0>        -0.1248
      4 C4          0.6015   -1.9009   -1.2659 C.3       1 <0>        -0.0964
      5 C5          1.4016   -2.3984   -2.4714 C.3       1 <0>        -0.1315
      6 H1          2.4235   -2.0245   -2.4085 H         1 <0>         0.1041
      7 C6          0.7512   -1.8908   -3.7599 C.3       1 <0>         0.1431
      8 N1          0.8341   -0.4288   -3.8057 N.am      1 <0>        -0.4749
      9 C7          2.0077    0.1711   -4.0870 C.2       1 <0>         0.4788
     10 O1          2.0763    1.3814   -4.1248 O.2       1 <0>        -0.5465
     11 O2         -0.3189    0.3539   -3.5543 O.3       1 <0>        -0.3314
     12 C8          1.4174   -3.9053   -2.4766 C.2       1 <0>         0.5253
     13 O3          0.8450   -4.5207   -1.6022 O.2       1 <0>        -0.5116
     14 N2          2.0675   -4.5691   -3.4529 N.am      1 <0>        -0.7195
     15 C9          2.0829   -6.0340   -3.4579 C.3       1 <0>         0.1156
     16 H2          2.1148   -6.4005   -2.4318 H         1 <0>         0.1205
     17 C10         3.2987   -6.5211   -4.2032 C.2       1 <0>         0.4381
     18 O4          3.9246   -5.7567   -4.9095 O.2       1 <0>        -0.4367
     19 C11         3.7105   -7.8673   -4.0804 C.2       1 <0>        -0.1224
     20 C12         4.8022   -8.4440   -4.6983 C.2       1 <0>        -0.0944
     21 C13         4.8267   -9.7852   -4.2933 C.2       1 <0>        -0.2324
     22 C14         3.7748   -9.9726   -3.4636 C.2       1 <0>         0.0162
     23 O5          3.1101   -8.8182   -3.3331 O.3       1 <0>        -0.1455
     24 C15         0.8199   -6.5549   -4.1465 C.3       1 <0>        -0.0677
     25 C16         0.7751   -6.0404   -5.5867 C.3       1 <0>        -0.1465
     26 C17         0.8359   -8.0848   -4.1517 C.3       1 <0>        -0.1497
     27 C18        -0.4145   -6.0604   -3.3898 C.3       1 <0>        -0.1308
     28 H3          1.3676   -3.1208    2.6135 H         1 <0>         0.0538
     29 H4          2.3600   -1.6499    2.4717 H         1 <0>         0.0515
     30 H5          0.8205   -1.6023    3.3639 H         1 <0>         0.0527
     31 H6         -0.4128   -2.0501    1.2598 H         1 <0>         0.0612
     32 H7          0.5796   -0.5793    1.1180 H         1 <0>         0.0572
     33 H8          2.3556   -1.8867   -0.0155 H         1 <0>         0.0532
     34 H9          1.3633   -3.3576    0.1263 H         1 <0>         0.0806
     35 H10        -0.3850   -2.3646   -1.2682 H         1 <0>         0.0741
     36 H11         0.4939   -0.8177   -1.3233 H         1 <0>         0.0736
     37 H12         1.2722   -2.3113   -4.6200 H         1 <0>         0.0954
     38 H13        -0.2948   -2.1963   -3.7837 H         1 <0>         0.1050
     39 H14         2.8870   -0.4259   -4.2787 H         1 <0>         0.1533
     40 H15        -0.1661    1.3073   -3.6069 H         1 <0>         0.3982
     41 H16         2.5253   -4.0769   -4.1522 H         1 <0>         0.4070
     42 H17         5.5000   -7.9571   -5.3634 H         1 <0>         0.1627
     43 H18         5.5503  -10.5306   -4.5888 H         1 <0>         0.1605
     44 H19         3.5154  -10.9031   -2.9806 H         1 <0>         0.2140
     45 H20         1.6545   -6.3927   -6.1259 H         1 <0>         0.0529
     46 H21        -0.1247   -6.4115   -6.0773 H         1 <0>         0.0637
     47 H22         0.7637   -4.9505   -5.5830 H         1 <0>         0.0585
     48 H23         0.8677   -8.4513   -3.1257 H         1 <0>         0.0672
     49 H24        -0.0639   -8.4559   -4.6424 H         1 <0>         0.0625
     50 H25         1.7153   -8.4371   -4.6909 H         1 <0>         0.0606
     51 H26        -0.4259   -4.9705   -3.3860 H         1 <0>         0.0549
     52 H27        -1.3143   -6.4315   -3.8804 H         1 <0>         0.0536
     53 H28        -0.3827   -6.4269   -2.3637 H         1 <0>         0.0674
@<TRIPOS>BOND
     1    1    2 1
     2    1   28 1
     3    1   29 1
     4    1   30 1
     5    2    3 1
     6    2   31 1
     7    2   32 1
     8    3    4 1
     9    3   33 1
    10    3   34 1
    11    4    5 1
    12    4   35 1
    13    4   36 1
    14    5    6 1
    15    5    7 1
    16    5   12 1
    17    7    8 1
    18    7   37 1
    19    7   38 1
    20    8    9 am
    21    8   11 1
    22    9   10 2
    23    9   39 1
    24   11   40 1
    25   12   13 2
    26   12   14 am
    27   14   15 1
    28   14   41 1
    29   15   16 1
    30   15   17 1
    31   15   24 1
    32   17   18 2
    33   17   19 1
    34   19   23 1
    35   19   20 2
    36   20   21 1
    37   20   42 1
    38   21   22 2
    39   21   43 1
    40   22   23 1
    41   22   44 1
    42   24   25 1
    43   24   26 1
    44   24   27 1
    45   25   45 1
    46   25   46 1
    47   25   47 1
    48   26   48 1
    49   26   49 1
    50   26   50 1
    51   27   51 1
    52   27   52 1
    53   27   53 1
@<TRIPOS>MOLECULE
CHEMBL53345
   30    31     0     0     0
SMALL
USER_CHARGES

@<TRIPOS>ATOM
      1 C1         -0.0167    1.3770    0.0096 C.ar      1 <0>        -0.0782
      2 C2          1.1672    2.0919    0.0021 C.ar      1 <0>        -0.0953
      3 C3          2.3801    1.4241   -0.0130 C.ar      1 <0>        -0.1359
      4 C4          2.4012    0.0485   -0.0207 C.ar      1 <0>        -0.0905
      5 C5          1.2158   -0.6785   -0.0132 C.ar      1 <0>         0.1735
      6 C6          0.0021   -0.0041    0.0020 C.ar      1 <0>        -0.1231
      7 N1          1.2561   -2.0731   -0.0222 N.am      1 <0>        -0.6581
      8 C7          2.4002   -2.7689   -0.0374 C.2       1 <0>         0.7167
      9 O1          2.3399   -3.9833   -0.0439 O.2       1 <0>        -0.5662
     10 N2          3.6131   -2.1871   -0.0464 N.am      1 <0>        -0.5958
     11 C8          3.7042   -0.7171   -0.0377 C.3       1 <0>         0.1345
     12 C9          4.8282   -3.0054   -0.0629 C.3       1 <0>         0.1357
     13 C10         5.2306   -3.2783   -1.4893 C.2       1 <0>         0.5041
     14 O2          4.5678   -2.8331   -2.4022 O.2       1 <0>        -0.5065
     15 N3          6.3272   -4.0171   -1.7505 N.am      1 <0>        -0.5948
     16 O3          6.7053   -4.2735   -3.0907 O.3       1 <0>        -0.3164
     17 C11         3.6715    2.2008   -0.0217 C.3       1 <0>         0.5090
     18 F1          3.3914    3.5715   -0.0120 F         1 <0>        -0.1703
     19 F2          4.4221    1.8702    1.1117 F         1 <0>        -0.1737
     20 F3          4.3998    1.8818   -1.1727 F         1 <0>        -0.1713
     21 H1         -0.9607    1.9013    0.0260 H         1 <0>         0.1459
     22 H2          1.1457    3.1717    0.0078 H         1 <0>         0.1474
     23 H3         -0.9250   -0.5580    0.0083 H         1 <0>         0.1434
     24 H4          0.4175   -2.5607   -0.0168 H         1 <0>         0.4294
     25 H5          4.2628   -0.4103   -0.9220 H         1 <0>         0.0917
     26 H6          4.2799   -0.4204    0.8389 H         1 <0>         0.0915
     27 H7          5.6318   -2.4729    0.4458 H         1 <0>         0.1238
     28 H8          4.6375   -3.9493    0.4478 H         1 <0>         0.1314
     29 H9          6.8573   -4.3731   -1.0204 H         1 <0>         0.4094
     30 H10         7.5041   -4.8116   -3.1780 H         1 <0>         0.3890
@<TRIPOS>BOND
     1    1    6 ar
     2    1    2 ar
     3    1   21 1
     4    2    3 ar
     5    2   22 1
     6    3    4 ar
     7    3   17 1
     8    4   11 1
     9    4    5 ar
    10    5    6 ar
    11    5    7 1
    12    6   23 1
    13    7    8 am
    14    7   24 1
    15    8    9 2
    16    8   10 am
    17   10   11 1
    18   10   12 1
    19   11   25 1
    20   11   26 1
    21   12   13 1
    22   12   27 1
    23   12   28 1
    24   13   14 2
    25   13   15 am
    26   15   16 1
    27   15   29 1
    28   16   30 1
    29   17   18 1
    30   17   19 1
    31   17   20 1
@<TRIPOS>MOLECULE
CHEMBL298647
   27    28     0     0     0
SMALL
USER_CHARGES

@<TRIPOS>ATOM
      1 C1         -0.0167    1.3782    0.0096 C.ar      1 <0>        -0.0657
      2 C2          1.1660    2.0927    0.0022 C.ar      1 <0>        -0.1517
      3 C3          2.3802    1.4197   -0.0130 C.ar      1 <0>         0.1855
      4 C4          2.3907    0.0289   -0.0205 C.ar      1 <0>        -0.1336
      5 C5          1.2116   -0.6813   -0.0140 C.ar      1 <0>         0.0116
      6 C6          0.0021   -0.0041    0.0020 C.ar      1 <0>        -0.1334
      7 Cl1         1.2390   -2.4170   -0.0243 Cl        1 <0>        -0.0524
      8 C7          3.7298   -0.6715   -0.0370 C.3       1 <0>         0.1519
      9 N1          4.9289    0.1837   -0.0439 N.am      1 <0>        -0.5980
     10 C8          4.7806    1.5209   -0.0353 C.2       1 <0>         0.7164
     11 O1          5.7791    2.2146   -0.0416 O.2       1 <0>        -0.5690
     12 N2          3.5848    2.1235   -0.0212 N.am      1 <0>        -0.6581
     13 C9          6.2662   -0.4141   -0.0594 C.3       1 <0>         0.1365
     14 C10         6.7115   -0.6120   -1.4854 C.2       1 <0>         0.5041
     15 O2          5.9835   -0.2857   -2.3989 O.2       1 <0>        -0.5068
     16 N3          7.9189   -1.1516   -1.7457 N.am      1 <0>        -0.5953
     17 O3          8.3373   -1.3375   -3.0856 O.3       1 <0>        -0.3168
     18 H1         -0.9608    1.9024    0.0260 H         1 <0>         0.1424
     19 H2          1.1458    3.1725    0.0078 H         1 <0>         0.1392
     20 H3         -0.9259   -0.5565    0.0079 H         1 <0>         0.1421
     21 H4          3.7823   -1.3171    0.8396 H         1 <0>         0.0858
     22 H5          3.7655   -1.3077   -0.9214 H         1 <0>         0.0858
     23 H6          3.5549    3.0930   -0.0160 H         1 <0>         0.4285
     24 H7          6.9659    0.2475    0.4513 H         1 <0>         0.1301
     25 H8          6.2394   -1.3775    0.4499 H         1 <0>         0.1231
     26 H9          8.5011   -1.4125   -1.0151 H         1 <0>         0.4092
     27 H10         9.2166   -1.7305   -3.1722 H         1 <0>         0.3887
@<TRIPOS>BOND
     1    1    6 ar
     2    1    2 ar
     3    1   18 1
     4    2    3 ar
     5    2   19 1
     6    3   12 1
     7    3    4 ar
     8    4    5 ar
     9    4    8 1
    10    5    6 ar
    11    5    7 1
    12    6   20 1
    13    8    9 1
    14    8   21 1
    15    8   22 1
    16    9   10 am
    17    9   13 1
    18   10   11 2
    19   10   12 am
    20   12   23 1
    21   13   14 1
    22   13   24 1
    23   13   25 1
    24   14   15 2
    25   14   16 am
    26   16   17 1
    27   16   26 1
    28   17   27 1
@<TRIPOS>MOLECULE
CHEMBL26038
   38    39     0     0     0
SMALL
USER_CHARGES

@<TRIPOS>ATOM
      1 C1         -0.0167    1.3779    0.0096 C.ar      1 <0>        -0.1193
      2 C2          1.1711    2.0854    0.0021 C.ar      1 <0>        -0.0753
      3 C3          2.3773    1.4107   -0.0130 C.ar      1 <0>        -0.0881
      4 C4          2.3960    0.0283   -0.0201 C.ar      1 <0>        -0.0467
      5 C5          1.2086   -0.6790   -0.0117 C.ar      1 <0>        -0.1846
      6 C6          0.0021   -0.0041    0.0020 C.ar      1 <0>        -0.0666
      7 C7          1.2291   -2.1858   -0.0204 C.3       1 <0>         0.5083
      8 F1          1.2492   -2.6596    1.2958 F         1 <0>        -0.1755
      9 F2          0.0864   -2.6639   -0.6707 F         1 <0>        -0.1770
     10 F3          2.3706   -2.6328   -0.6944 F         1 <0>        -0.1768
     11 C8          3.6720    2.1819   -0.0222 C.3       1 <0>         0.0926
     12 N1          4.1064    2.4260    1.3597 N.3       1 <0>        -0.6475
     13 C9          5.3684    3.1773    1.3899 C.3       1 <0>         0.1256
     14 C10         6.0904    2.8948    2.6821 C.ar      1 <0>        -0.0655
     15 C11         5.3786    2.7946    3.8632 C.ar      1 <0>        -0.0677
     16 C12         6.0386    2.5355    5.0496 C.ar      1 <0>        -0.1205
     17 C13         7.4134    2.3756    5.0561 C.ar      1 <0>         0.0765
     18 C14         8.1271    2.4756    3.8717 C.ar      1 <0>         0.0721
     19 C15         7.4627    2.7304    2.6845 C.ar      1 <0>        -0.1214
     20 F4          9.4692    2.3204    3.8756 F         1 <0>        -0.1243
     21 F5          8.0593    2.1228    6.2155 F         1 <0>        -0.1244
     22 C16         5.0773    4.6525    1.2893 C.2       1 <0>         0.5016
     23 O1          3.9314    5.0399    1.2011 O.2       1 <0>        -0.5145
     24 N2          6.0904    5.5414    1.2973 N.am      1 <0>        -0.5879
     25 O2          5.8169    6.9275    1.2027 O.3       1 <0>        -0.3169
     26 H1         -0.9591    1.9051    0.0259 H         1 <0>         0.1368
     27 H2          1.1565    3.1653    0.0076 H         1 <0>         0.1339
     28 H3          3.3385   -0.4989   -0.0326 H         1 <0>         0.1379
     29 H4         -0.9258   -0.5567    0.0079 H         1 <0>         0.1364
     30 H5          4.4344    1.6057   -0.5463 H         1 <0>         0.0905
     31 H6          3.5236    3.1349   -0.5302 H         1 <0>         0.0576
     32 H7          3.3891    2.9028    1.8853 H         1 <0>         0.3604
     33 H8          5.9931    2.8722    0.5504 H         1 <0>         0.1270
     34 H9          4.3059    2.9193    3.8587 H         1 <0>         0.1428
     35 H10         5.4816    2.4582    5.9716 H         1 <0>         0.1513
     36 H11         8.0170    2.8048    1.7606 H         1 <0>         0.1498
     37 H12         7.0068    5.2316    1.3678 H         1 <0>         0.4088
     38 H13         6.6062    7.4860    1.2166 H         1 <0>         0.3905
@<TRIPOS>BOND
     1    1    6 ar
     2    1    2 ar
     3    1   26 1
     4    2    3 ar
     5    2   27 1
     6    3    4 ar
     7    3   11 1
     8    4    5 ar
     9    4   28 1
    10    5    6 ar
    11    5    7 1
    12    6   29 1
    13    7    8 1
    14    7    9 1
    15    7   10 1
    16   11   12 1
    17   11   30 1
    18   11   31 1
    19   12   13 1
    20   12   32 1
    21   13   14 1
    22   13   22 1
    23   13   33 1
    24   14   19 ar
    25   14   15 ar
    26   15   16 ar
    27   15   34 1
    28   16   17 ar
    29   16   35 1
    30   17   18 ar
    31   17   21 1
    32   18   19 ar
    33   18   20 1
    34   19   36 1
    35   22   23 2
    36   22   24 am
    37   24   25 1
    38   24   37 1
    39   25   38 1
@<TRIPOS>MOLECULE
CHEMBL26038__1
   39    40     0     0     0
SMALL
USER_CHARGES

@<TRIPOS>ATOM
      1 C1         -0.0167    1.3779    0.0096 C.ar      1 <0>        -0.1116
      2 C2          1.1711    2.0854    0.0021 C.ar      1 <0>        -0.0549
      3 C3          2.3773    1.4107   -0.0130 C.ar      1 <0>        -0.1638
      4 C4          2.3960    0.0283   -0.0201 C.ar      1 <0>        -0.0456
      5 C5          1.2086   -0.6790   -0.0117 C.ar      1 <0>        -0.1768
      6 C6          0.0021   -0.0041    0.0020 C.ar      1 <0>        -0.0335
      7 C7          1.2291   -2.1858   -0.0204 C.3       1 <0>         0.5067
      8 F1          1.2492   -2.6596    1.2958 F         1 <0>        -0.1712
      9 F2          0.0864   -2.6639   -0.6707 F         1 <0>        -0.1686
     10 F3          2.3706   -2.6328   -0.6944 F         1 <0>        -0.1734
     11 C8          3.6720    2.1819   -0.0222 C.3       1 <0>         0.0307
     12 N1          4.1064    2.4260    1.3597 N.4       1 <0>        -0.4908
     13 C9          5.3684    3.1778    1.3507 C.3       1 <0>         0.0774
     14 C10         5.8774    3.3219    2.7618 C.ar      1 <0>        -0.1452
     15 C11         4.9916    3.5738    3.7930 C.ar      1 <0>        -0.0895
     16 C12         5.4559    3.7063    5.0880 C.ar      1 <0>        -0.1064
     17 C13         6.8090    3.5864    5.3537 C.ar      1 <0>         0.1113
     18 C14         7.6973    3.3333    4.3197 C.ar      1 <0>         0.0886
     19 C15         7.2285    3.1963    3.0246 C.ar      1 <0>        -0.0963
     20 F4          9.0184    3.2162    4.5765 F         1 <0>        -0.1073
     21 F5          7.2638    3.7162    6.6192 F         1 <0>        -0.1055
     22 C16         5.1352    4.5440    0.7589 C.2       1 <0>         0.5236
     23 O1          4.0267    4.8602    0.3817 O.2       1 <0>        -0.5004
     24 N2          6.1583    5.4143    0.6487 N.am      1 <0>        -0.5644
     25 O2          5.9391    6.6980    0.0926 O.3       1 <0>        -0.2918
     26 H1         -0.9591    1.9051    0.0259 H         1 <0>         0.1513
     27 H2          1.1565    3.1653    0.0076 H         1 <0>         0.1476
     28 H3          3.3385   -0.4989   -0.0326 H         1 <0>         0.1463
     29 H4         -0.9258   -0.5567    0.0079 H         1 <0>         0.1504
     30 H5          4.4344    1.6057   -0.5463 H         1 <0>         0.1447
     31 H6          3.5236    3.1349   -0.5302 H         1 <0>         0.1625
     32 H7          3.4006    2.9595    1.8448 H         1 <0>         0.4334
     33 H8          6.1055    2.6433    0.7514 H         1 <0>         0.1839
     34 H9          3.9357    3.6675    3.5863 H         1 <0>         0.1432
     35 H10         4.7631    3.9038    5.8926 H         1 <0>         0.1662
     36 H11         7.9189    2.9954    2.2187 H         1 <0>         0.1641
     37 H12         7.0448    5.1613    0.9504 H         1 <0>         0.4181
     38 H13         6.7316    7.2509    0.0551 H         1 <0>         0.4075
     39 H14         4.2437    1.5439    1.8299 H         1 <0>         0.4396
@<TRIPOS>BOND
     1    1    6 ar
     2    1    2 ar
     3    1   26 1
     4    2    3 ar
     5    2   27 1
     6    3    4 ar
     7    3   11 1
     8    4    5 ar
     9    4   28 1
    10    5    6 ar
    11    5    7 1
    12    6   29 1
    13    7    8 1
    14    7    9 1
    15    7   10 1
    16   11   12 1
    17   11   30 1
    18   11   31 1
    19   12   13 1
    20   12   32 1
    21   12   39 1
    22   13   14 1
    23   13   22 1
    24   13   33 1
    25   14   19 ar
    26   14   15 ar
    27   15   16 ar
    28   15   34 1
    29   16   17 ar
    30   16   35 1
    31   17   18 ar
    32   17   21 1
    33   18   19 ar
    34   18   20 1
    35   19   36 1
    36   22   23 2
    37   22   24 am
    38   24   25 1
    39   24   37 1
    40   25   38 1
@<TRIPOS>MOLECULE
CHEMBL26038__2
   38    39     0     0     0
SMALL
USER_CHARGES

@<TRIPOS>ATOM
      1 C1         -0.0167    1.3779    0.0096 C.ar      1 <0>        -0.1208
      2 C2          1.1711    2.0854    0.0021 C.ar      1 <0>        -0.0805
      3 C3          2.3773    1.4107   -0.0130 C.ar      1 <0>        -0.0874
      4 C4          2.3960    0.0283   -0.0201 C.ar      1 <0>        -0.0411
      5 C5          1.2086   -0.6790   -0.0117 C.ar      1 <0>        -0.1832
      6 C6          0.0021   -0.0041    0.0020 C.ar      1 <0>        -0.0669
      7 C7          1.2291   -2.1858   -0.0204 C.3       1 <0>         0.5077
      8 F1          1.2492   -2.6596    1.2958 F         1 <0>        -0.1751
      9 F2          0.0864   -2.6639   -0.6707 F         1 <0>        -0.1776
     10 F3          2.3706   -2.6328   -0.6944 F         1 <0>        -0.1753
     11 C8          3.6720    2.1819   -0.0222 C.3       1 <0>         0.0986
     12 N1          4.1064    2.4260    1.3597 N.3       1 <0>        -0.6573
     13 C9          5.3684    3.1773    1.3899 C.3       1 <0>         0.1324
     14 C10         5.4759    3.9265    2.6930 C.ar      1 <0>        -0.0907
     15 C11         5.0704    3.3258    3.8704 C.ar      1 <0>        -0.0698
     16 C12         5.1680    4.0109    5.0668 C.ar      1 <0>        -0.1209
     17 C13         5.6726    5.2996    5.0872 C.ar      1 <0>         0.0803
     18 C14         6.0797    5.9019    3.9065 C.ar      1 <0>         0.0711
     19 C15         5.9851    5.2113    2.7107 C.ar      1 <0>        -0.1188
     20 F4          6.5721    7.1598    3.9239 F         1 <0>        -0.1234
     21 F5          5.7680    5.9701    6.2562 F         1 <0>        -0.1230
     22 C16         6.5257    2.2205    1.2636 C.2       1 <0>         0.5289
     23 O1          6.3196    1.0299    1.1587 O.2       1 <0>        -0.4856
     24 N2          7.7899    2.6878    1.2671 N.am      1 <0>        -0.5974
     25 O2          8.8774    1.7887    1.1484 O.3       1 <0>        -0.3139
     26 H1         -0.9591    1.9051    0.0259 H         1 <0>         0.1361
     27 H2          1.1565    3.1653    0.0076 H         1 <0>         0.1305
     28 H3          3.3385   -0.4989   -0.0326 H         1 <0>         0.1409
     29 H4         -0.9258   -0.5567    0.0079 H         1 <0>         0.1362
     30 H5          4.4344    1.6057   -0.5463 H         1 <0>         0.0929
     31 H6          3.5236    3.1349   -0.5302 H         1 <0>         0.0506
     32 H7          3.3891    2.9028    1.8853 H         1 <0>         0.3585
     33 H8          5.3898    3.8850    0.5611 H         1 <0>         0.0924
     34 H9          4.6765    2.3203    3.8552 H         1 <0>         0.1547
     35 H10         4.8503    3.5408    5.9857 H         1 <0>         0.1531
     36 H11         6.3054    5.6779    1.7908 H         1 <0>         0.1503
     37 H12         7.9548    3.6400    1.3510 H         1 <0>         0.4048
     38 H13         9.7445    2.2165    1.1609 H         1 <0>         0.3889
@<TRIPOS>BOND
     1    1    6 ar
     2    1    2 ar
     3    1   26 1
     4    2    3 ar
     5    2   27 1
     6    3    4 ar
     7    3   11 1
     8    4    5 ar
     9    4   28 1
    10    5    6 ar
    11    5    7 1
    12    6   29 1
    13    7    8 1
    14    7    9 1
    15    7   10 1
    16   11   12 1
    17   11   30 1
    18   11   31 1
    19   12   13 1
    20   12   32 1
    21   13   14 1
    22   13   22 1
    23   13   33 1
    24   14   19 ar
    25   14   15 ar
    26   15   16 ar
    27   15   34 1
    28   16   17 ar
    29   16   35 1
    30   17   18 ar
    31   17   21 1
    32   18   19 ar
    33   18   20 1
    34   19   36 1
    35   22   23 2
    36   22   24 am
    37   24   25 1
    38   24   37 1
    39   25   38 1
@<TRIPOS>MOLECULE
CHEMBL26038__3
   39    40     0     0     0
SMALL
USER_CHARGES

@<TRIPOS>ATOM
      1 C1         -0.0167    1.3779    0.0096 C.ar      1 <0>        -0.1128
      2 C2          1.1711    2.0854    0.0021 C.ar      1 <0>        -0.0607
      3 C3          2.3773    1.4107   -0.0130 C.ar      1 <0>        -0.1641
      4 C4          2.3960    0.0283   -0.0201 C.ar      1 <0>        -0.0399
      5 C5          1.2086   -0.6790   -0.0117 C.ar      1 <0>        -0.1757
      6 C6          0.0021   -0.0041    0.0020 C.ar      1 <0>        -0.0334
      7 C7          1.2291   -2.1858   -0.0204 C.3       1 <0>         0.5059
      8 F1          1.2492   -2.6596    1.2958 F         1 <0>        -0.1712
      9 F2          0.0864   -2.6639   -0.6707 F         1 <0>        -0.1690
     10 F3          2.3706   -2.6328   -0.6944 F         1 <0>        -0.1714
     11 C8          3.6720    2.1819   -0.0222 C.3       1 <0>         0.0307
     12 N1          4.1064    2.4260    1.3597 N.4       1 <0>        -0.4908
     13 C9          5.3684    3.1778    1.3507 C.3       1 <0>         0.0778
     14 C10         5.7506    3.5346    2.7641 C.ar      1 <0>        -0.1453
     15 C11         5.5704    2.6156    3.7811 C.ar      1 <0>        -0.0893
     16 C12         5.9202    2.9406    5.0782 C.ar      1 <0>        -0.1064
     17 C13         6.4520    4.1870    5.3599 C.ar      1 <0>         0.1113
     18 C14         6.6331    5.1085    4.3399 C.ar      1 <0>         0.0883
     19 C15         6.2863    4.7782    3.0413 C.ar      1 <0>        -0.0962
     20 F4          7.1516    6.3258    4.6126 F         1 <0>        -0.1074
     21 F5          6.7937    4.5056    6.6276 F         1 <0>        -0.1055
     22 C16         6.4529    2.3314    0.7355 C.2       1 <0>         0.5222
     23 O1          6.1995    1.2121    0.3432 O.2       1 <0>        -0.4990
     24 N2          7.7045    2.8182    0.6213 N.am      1 <0>        -0.5646
     25 O2          8.7235    2.0229    0.0432 O.3       1 <0>        -0.2914
     26 H1         -0.9591    1.9051    0.0259 H         1 <0>         0.1509
     27 H2          1.1565    3.1653    0.0076 H         1 <0>         0.1441
     28 H3          3.3385   -0.4989   -0.0326 H         1 <0>         0.1499
     29 H4         -0.9258   -0.5567    0.0079 H         1 <0>         0.1504
     30 H5          4.4344    1.6057   -0.5463 H         1 <0>         0.1608
     31 H6          3.5236    3.1349   -0.5302 H         1 <0>         0.1463
     32 H7          3.4006    2.9595    1.8448 H         1 <0>         0.4396
     33 H8          5.2440    4.0897    0.7667 H         1 <0>         0.1840
     34 H9          5.1555    1.6429    3.5619 H         1 <0>         0.1434
     35 H10         5.7782    2.2221    5.8719 H         1 <0>         0.1662
     36 H11         6.4305    5.4937    2.2453 H         1 <0>         0.1640
     37 H12         7.9072    3.7134    0.9351 H         1 <0>         0.4178
     38 H13         9.5868    2.4569    0.0045 H         1 <0>         0.4073
     39 H14         4.2437    1.5439    1.8299 H         1 <0>         0.4333
@<TRIPOS>BOND
     1    1    6 ar
     2    1    2 ar
     3    1   26 1
     4    2    3 ar
     5    2   27 1
     6    3    4 ar
     7    3   11 1
     8    4    5 ar
     9    4   28 1
    10    5    6 ar
    11    5    7 1
    12    6   29 1
    13    7    8 1
    14    7    9 1
    15    7   10 1
    16   11   12 1
    17   11   30 1
    18   11   31 1
    19   12   13 1
    20   12   32 1
    21   12   39 1
    22   13   14 1
    23   13   22 1
    24   13   33 1
    25   14   19 ar
    26   14   15 ar
    27   15   16 ar
    28   15   34 1
    29   16   17 ar
    30   16   35 1
    31   17   18 ar
    32   17   21 1
    33   18   19 ar
    34   18   20 1
    35   19   36 1
    36   22   23 2
    37   22   24 am
    38   24   25 1
    39   24   37 1
    40   25   38 1
@<TRIPOS>MOLECULE
CHEMBL282858
   38    39     0     0     0
SMALL
USER_CHARGES

@<TRIPOS>ATOM
      1 C1         -0.0167    1.3780    0.0096 C.ar      1 <0>        -0.1203
      2 C2          1.1706    2.0866    0.0021 C.ar      1 <0>        -0.0827
      3 C3          2.3773    1.4137   -0.0131 C.ar      1 <0>        -0.1451
      4 C4          2.3974    0.0291   -0.0207 C.ar      1 <0>         0.0970
      5 C5          1.2080   -0.6793   -0.0132 C.ar      1 <0>        -0.1336
      6 C6          0.0021   -0.0041    0.0020 C.ar      1 <0>        -0.0713
      7 C7          1.2281   -2.1862   -0.0220 C.3       1 <0>         0.1312
      8 C8          1.4678   -2.6772   -1.4264 C.2       1 <0>         0.5302
      9 O1          0.6450   -3.3823   -1.9711 O.2       1 <0>        -0.4881
     10 N1          2.5966   -2.3327   -2.0773 N.am      1 <0>        -0.5998
     11 O2          2.8219   -2.7940   -3.3969 O.3       1 <0>        -0.3153
     12 N2         -0.0620   -2.6959    0.4614 N.3       1 <0>        -0.6566
     13 C9          0.0827   -4.0448    1.0250 C.3       1 <0>         0.0975
     14 C10        -1.2582   -4.5333    1.5093 C.ar      1 <0>        -0.0862
     15 C11        -1.6589   -4.2788    2.8078 C.ar      1 <0>        -0.0810
     16 C12        -2.8886   -4.7269    3.2520 C.ar      1 <0>        -0.1208
     17 C13        -3.7182   -5.4292    2.3976 C.ar      1 <0>        -0.0692
     18 C14        -3.3180   -5.6829    1.0992 C.ar      1 <0>        -0.1832
     19 C15        -2.0897   -5.2309    0.6536 C.ar      1 <0>        -0.0395
     20 C16        -4.2221   -6.4488    0.1681 C.3       1 <0>         0.5078
     21 F1         -5.3997   -6.7934    0.8402 F         1 <0>        -0.1779
     22 F2         -4.5332   -5.6528   -0.9395 F         1 <0>        -0.1740
     23 F3         -3.5728   -7.6114   -0.2608 F         1 <0>        -0.1759
     24 F4          3.5766   -0.6299   -0.0360 F         1 <0>        -0.1367
     25 H1         -0.9594    1.9048    0.0260 H         1 <0>         0.1371
     26 H2          1.1547    3.1665    0.0077 H         1 <0>         0.1385
     27 H3          3.3046    1.9675   -0.0193 H         1 <0>         0.1419
     28 H4         -0.9259   -0.5565    0.0083 H         1 <0>         0.1483
     29 H5          2.0265   -2.5427    0.6288 H         1 <0>         0.0911
     30 H6          3.2548   -1.7687   -1.6417 H         1 <0>         0.4049
     31 H7          3.6577   -2.4952   -3.7807 H         1 <0>         0.3878
     32 H8         -0.4710   -2.0649    1.1342 H         1 <0>         0.3567
     33 H9          0.4601   -4.7206    0.2577 H         1 <0>         0.0927
     34 H10         0.7824   -4.0164    1.8603 H         1 <0>         0.0503
     35 H11        -1.0108   -3.7302    3.4752 H         1 <0>         0.1304
     36 H12        -3.2013   -4.5287    4.2665 H         1 <0>         0.1362
     37 H13        -4.6788   -5.7800    2.7449 H         1 <0>         0.1388
     38 H14        -1.7786   -5.4259   -0.3620 H         1 <0>         0.1387
@<TRIPOS>BOND
     1    1    6 ar
     2    1    2 ar
     3    1   25 1
     4    2    3 ar
     5    2   26 1
     6    3    4 ar
     7    3   27 1
     8    4    5 ar
     9    4   24 1
    10    5    6 ar
    11    5    7 1
    12    6   28 1
    13    7    8 1
    14    7   12 1
    15    7   29 1
    16    8    9 2
    17    8   10 am
    18   10   11 1
    19   10   30 1
    20   11   31 1
    21   12   13 1
    22   12   32 1
    23   13   14 1
    24   13   33 1
    25   13   34 1
    26   14   19 ar
    27   14   15 ar
    28   15   16 ar
    29   15   35 1
    30   16   17 ar
    31   16   36 1
    32   17   18 ar
    33   17   37 1
    34   18   19 ar
    35   18   20 1
    36   19   38 1
    37   20   21 1
    38   20   22 1
    39   20   23 1
@<TRIPOS>MOLECULE
CHEMBL282858__1
   38    39     0     0     0
SMALL
USER_CHARGES

@<TRIPOS>ATOM
      1 C1         -0.0167    1.3780    0.0096 C.ar      1 <0>        -0.1244
      2 C2          1.1706    2.0866    0.0021 C.ar      1 <0>        -0.0844
      3 C3          2.3773    1.4137   -0.0131 C.ar      1 <0>        -0.1480
      4 C4          2.3974    0.0291   -0.0207 C.ar      1 <0>         0.0943
      5 C5          1.2080   -0.6793   -0.0132 C.ar      1 <0>        -0.1162
      6 C6          0.0021   -0.0041    0.0020 C.ar      1 <0>        -0.0576
      7 C7          1.2281   -2.1862   -0.0220 C.3       1 <0>         0.1255
      8 C8          1.3724   -2.6949    1.3892 C.2       1 <0>         0.5032
      9 O1          0.5149   -3.4065    1.8680 O.2       1 <0>        -0.5169
     10 N1          2.4544   -2.3591    2.1192 N.am      1 <0>        -0.5888
     11 O2          2.5900   -2.8371    3.4452 O.3       1 <0>        -0.3176
     12 N2         -0.0261   -2.6893   -0.5980 N.3       1 <0>        -0.6465
     13 C9          0.1570   -4.0310   -1.1674 C.3       1 <0>         0.0919
     14 C10        -1.1478   -4.5128   -1.7475 C.ar      1 <0>        -0.0866
     15 C11        -2.0379   -5.2161   -0.9571 C.ar      1 <0>        -0.0754
     16 C12        -3.2345   -5.6580   -1.4891 C.ar      1 <0>        -0.1193
     17 C13        -3.5417   -5.3964   -2.8115 C.ar      1 <0>        -0.0690
     18 C14        -2.6523   -4.6926   -3.6013 C.ar      1 <0>        -0.1848
     19 C15        -1.4572   -4.2468   -3.0680 C.ar      1 <0>        -0.0455
     20 C16        -2.9869   -4.4078   -5.0429 C.3       1 <0>         0.5085
     21 F1         -4.2396   -4.9514   -5.3470 F         1 <0>        -0.1772
     22 F2         -3.0160   -3.0246   -5.2504 F         1 <0>        -0.1754
     23 F3         -2.0158   -4.9831   -5.8694 F         1 <0>        -0.1765
     24 F4          3.5766   -0.6299   -0.0360 F         1 <0>        -0.1396
     25 H1         -0.9594    1.9048    0.0260 H         1 <0>         0.1347
     26 H2          1.1547    3.1665    0.0077 H         1 <0>         0.1365
     27 H3          3.3046    1.9675   -0.0193 H         1 <0>         0.1401
     28 H4         -0.9259   -0.5565    0.0083 H         1 <0>         0.1400
     29 H5          2.0689   -2.5348   -0.6216 H         1 <0>         0.1244
     30 H6          3.1403   -1.7900    1.7363 H         1 <0>         0.4087
     31 H7          3.3978   -2.5435    3.8884 H         1 <0>         0.3896
     32 H8         -0.7662   -2.6854    0.0879 H         1 <0>         0.3600
     33 H9          0.9116   -3.9924   -1.9530 H         1 <0>         0.0898
     34 H10         0.4819   -4.7166   -0.3848 H         1 <0>         0.0574
     35 H11        -1.7979   -5.4205    0.0759 H         1 <0>         0.1339
     36 H12        -3.9295   -6.2080   -0.8719 H         1 <0>         0.1367
     37 H13        -4.4764   -5.7424   -3.2274 H         1 <0>         0.1389
     38 H14        -0.7639   -3.6935   -3.6842 H         1 <0>         0.1356
@<TRIPOS>BOND
     1    1    6 ar
     2    1    2 ar
     3    1   25 1
     4    2    3 ar
     5    2   26 1
     6    3    4 ar
     7    3   27 1
     8    4    5 ar
     9    4   24 1
    10    5    6 ar
    11    5    7 1
    12    6   28 1
    13    7    8 1
    14    7   12 1
    15    7   29 1
    16    8    9 2
    17    8   10 am
    18   10   11 1
    19   10   30 1
    20   11   31 1
    21   12   13 1
    22   12   32 1
    23   13   14 1
    24   13   33 1
    25   13   34 1
    26   14   19 ar
    27   14   15 ar
    28   15   16 ar
    29   15   35 1
    30   16   17 ar
    31   16   36 1
    32   17   18 ar
    33   17   37 1
    34   18   19 ar
    35   18   20 1
    36   19   38 1
    37   20   21 1
    38   20   22 1
    39   20   23 1
@<TRIPOS>MOLECULE
CHEMBL285547
   39    41     0     0     0
SMALL
USER_CHARGES

@<TRIPOS>ATOM
      1 C1          6.9329   -1.6312   -2.6859 C.ar      1 <0>        -0.1100
      2 C2          5.9940   -2.5973   -2.3763 C.ar      1 <0>        -0.1226
      3 C3          4.9515   -2.2983   -1.5191 C.ar      1 <0>        -0.0934
      4 C4          4.8482   -1.0334   -0.9713 C.ar      1 <0>        -0.1148
      5 C5          5.7877   -0.0675   -1.2802 C.ar      1 <0>        -0.1012
      6 C6          6.8294   -0.3661   -2.1385 C.ar      1 <0>        -0.1232
      7 C7          3.7112   -0.7071   -0.0376 C.3       1 <0>         0.1315
      8 N1          4.0901   -1.0558    1.3339 N.am      1 <0>        -0.5344
      9 C8          4.8224   -0.1064    2.0404 C.ar      1 <0>         0.1645
     10 C9          4.8570    1.2057    1.5783 C.ar      1 <0>        -0.1464
     11 C10         5.5689    2.1679    2.2666 C.ar      1 <0>        -0.0822
     12 C11         6.2546    1.8402    3.4221 C.ar      1 <0>        -0.1264
     13 C12         6.2317    0.5396    3.8914 C.ar      1 <0>        -0.0562
     14 C13         5.5227   -0.4302    3.2021 C.ar      1 <0>        -0.1437
     15 S1          5.5070   -2.0978    3.7829 S.3       1 <0>        -0.0416
     16 C14         3.8933   -2.7020    3.1995 C.3       1 <0>        -0.0819
     17 C15         3.6950   -2.2444    1.7783 C.2       1 <0>         0.5272
     18 O1          3.1522   -3.0000    1.0000 O.2       1 <0>        -0.5008
     19 C16         2.7807   -2.1281    4.0791 C.3       1 <0>        -0.1195
     20 C17         2.9217   -2.6636    5.4807 C.2       1 <0>         0.5310
     21 O2          3.8233   -3.4290    5.7495 O.2       1 <0>        -0.4973
     22 N2          2.0459   -2.2920    6.4353 N.am      1 <0>        -0.5963
     23 O3          2.1784   -2.7953    7.7523 O.3       1 <0>        -0.3133
     24 H1          7.7499   -1.8661   -3.3521 H         1 <0>         0.1231
     25 H2          6.0746   -3.5856   -2.8043 H         1 <0>         0.1238
     26 H3          4.2175   -3.0529   -1.2777 H         1 <0>         0.1287
     27 H4          5.7068    0.9209   -0.8525 H         1 <0>         0.1219
     28 H5          7.5631    0.3886   -2.3802 H         1 <0>         0.1236
     29 H6          3.4895    0.3586   -0.0935 H         1 <0>         0.0988
     30 H7          2.8285   -1.2775   -0.3268 H         1 <0>         0.1097
     31 H8          4.3250    1.4725    0.6771 H         1 <0>         0.1355
     32 H9          5.5908    3.1835    1.8999 H         1 <0>         0.1330
     33 H10         6.8072    2.5986    3.9567 H         1 <0>         0.1337
     34 H11         6.7662    0.2805    4.7933 H         1 <0>         0.1367
     35 H12         3.8728   -3.7910    3.2416 H         1 <0>         0.1608
     36 H13         2.8556   -1.0408    4.0964 H         1 <0>         0.1064
     37 H14         1.8112   -2.4191    3.6748 H         1 <0>         0.1179
     38 H15         1.3248   -1.6799    6.2203 H         1 <0>         0.4082
     39 H16         1.5046   -2.4726    8.3662 H         1 <0>         0.3891
@<TRIPOS>BOND
     1    1    6 ar
     2    1    2 ar
     3    1   24 1
     4    2    3 ar
     5    2   25 1
     6    3    4 ar
     7    3   26 1
     8    4    5 ar
     9    4    7 1
    10    5    6 ar
    11    5   27 1
    12    6   28 1
    13    7    8 1
    14    7   29 1
    15    7   30 1
    16    8   17 am
    17    8    9 1
    18    9   14 ar
    19    9   10 ar
    20   10   11 ar
    21   10   31 1
    22   11   12 ar
    23   11   32 1
    24   12   13 ar
    25   12   33 1
    26   13   14 ar
    27   13   34 1
    28   14   15 1
    29   15   16 1
    30   16   17 1
    31   16   19 1
    32   16   35 1
    33   17   18 2
    34   19   20 1
    35   19   36 1
    36   19   37 1
    37   20   21 2
    38   20   22 am
    39   22   23 1
    40   22   38 1
    41   23   39 1
