@<TRIPOS>MOLECULE
ZINC04994864
   34    37     0     0     0
SMALL
USER_CHARGES
5-(8-quinolylcarbamoyl)-7-oxabicyclo[2.2.1]hepta-2,5-diene-6-carboxylic acid
@<TRIPOS>ATOM
      1 C1         -0.0848    1.2178    0.6418 C.ar      1 <0>        -0.0753
      2 C2         -1.2091    1.7355    0.0731 C.ar      1 <0>        -0.1390
      3 C3         -1.1661    2.9978   -0.5403 C.ar      1 <0>        -0.0789
      4 C4         -2.3121    3.5629   -1.1321 C.ar      1 <0>        -0.0619
      5 C5         -2.1964    4.7923   -1.7155 C.ar      1 <0>        -0.1752
      6 C6         -0.9683    5.4502   -1.7130 C.ar      1 <0>         0.1180
      7 N1          0.0964    4.9203   -1.1612 N.ar      1 <0>        -0.4695
      8 C7          0.0507    3.7217   -0.5739 C.ar      1 <0>         0.1013
      9 C8          1.2013    3.1568    0.0190 C.ar      1 <0>         0.1917
     10 C9          1.1177    1.9172    0.6161 C.ar      1 <0>        -0.1345
     11 N2          2.4129    3.8475    0.0002 N.am      1 <0>        -0.6626
     12 C10         3.5756    3.1714    0.0867 C.2       1 <0>         0.5617
     13 O1          3.5737    1.9558    0.0800 O.2       1 <0>        -0.4405
     14 C11         4.8510    3.9068    0.1897 C.2       1 <0>        -0.2281
     15 C12         6.1028    3.3854    0.2836 C.2       1 <0>        -0.0448
     16 C13         7.0317    4.6029    0.3620 C.3       1 <0>         0.1164
     17 H1          8.0790    4.4173    0.1236 H         1 <0>         0.1481
     18 C14         6.7592    5.2197    1.7381 C.2       1 <0>        -0.1639
     19 C15         5.5381    5.7276    1.6645 C.2       1 <0>        -0.1897
     20 C16         5.0550    5.4265    0.2075 C.3       1 <0>         0.1255
     21 H2          4.2209    6.0220   -0.1638 H         1 <0>         0.1325
     22 O2          6.3228    5.5408   -0.5193 O.3       1 <0>        -0.3547
     23 C17         6.4841    1.9610    0.3046 C.2       1 <0>         0.4846
     24 O3          5.6282    1.1021    0.2335 O.co2     1 <0>        -0.5665
     25 H3         -0.1263    0.2482    1.1156 H         1 <0>         0.1304
     26 H4         -2.1335    1.1777    0.0979 H         1 <0>         0.1273
     27 H5         -3.2562    3.0385   -1.1251 H         1 <0>         0.1372
     28 H6         -3.0562    5.2542   -2.1780 H         1 <0>         0.1344
     29 H7         -0.8914    6.4221   -2.1776 H         1 <0>         0.1571
     30 H8          1.9966    1.4836    1.0700 H         1 <0>         0.1585
     31 H9          2.4187    4.8146   -0.0753 H         1 <0>         0.4118
     32 H10         7.4235    5.2367    2.5895 H         1 <0>         0.1513
     33 H11         4.9980    6.2456    2.4432 H         1 <0>         0.1492
     34 O4          7.7821    1.6123    0.4026 O.co2     1 <0>        -0.7517
@<TRIPOS>BOND
     1    1   10 ar
     2    1    2 ar
     3    1   25 1
     4    2    3 ar
     5    2   26 1
     6    3    8 ar
     7    3    4 ar
     8    4    5 ar
     9    4   27 1
    10    5    6 ar
    11    5   28 1
    12    6    7 ar
    13    6   29 1
    14    7    8 ar
    15    8    9 ar
    16    9   10 ar
    17    9   11 1
    18   10   30 1
    19   11   12 am
    20   11   31 1
    21   12   13 2
    22   12   14 1
    23   14   20 1
    24   14   15 2
    25   15   16 1
    26   15   23 1
    27   16   17 1
    28   16   22 1
    29   16   18 1
    30   18   19 2
    31   18   32 1
    32   19   20 1
    33   19   33 1
    34   20   21 1
    35   20   22 1
    36   23   24 2
    37   23   34 1
@<TRIPOS>MOLECULE
ZINC36976350
   47    48     0     0     0
SMALL
USER_CHARGES

@<TRIPOS>ATOM
      1 C1         -0.0187    1.5258    0.0104 C.3       1 <0>        -0.1396
      2 C2          0.0021   -0.0041    0.0020 C.3       1 <0>        -0.0633
      3 C3          0.7421   -0.5109    1.2415 C.3       1 <0>        -0.1420
      4 C4         -1.4333   -0.5336    0.0129 C.3       1 <0>        -0.1398
      5 C5          0.7182   -0.4975   -1.2568 C.3       1 <0>        -0.0652
      6 C6          0.7390   -2.0273   -1.2652 C.3       1 <0>        -0.1339
      7 C7          1.4551   -2.5207   -2.5240 C.3       1 <0>        -0.0923
      8 C8          2.8905   -1.9912   -2.5349 C.3       1 <0>        -0.1029
      9 C9          2.8697   -0.4613   -2.5264 C.3       1 <0>        -0.1098
     10 C10         2.1536    0.0321   -1.2676 C.3       1 <0>        -0.1350
     11 C11         3.6194   -2.4904   -1.3140 C.2       1 <0>         0.5415
     12 O1          3.0471   -3.1999   -0.5139 O.2       1 <0>        -0.5257
     13 N1          4.9071   -2.1484   -1.1111 N.am      1 <0>        -0.5837
     14 C12         5.7180   -1.2914   -1.9951 C.3       1 <0>         0.0741
     15 C13         7.1845   -1.6972   -1.7047 C.3       1 <0>         0.0845
     16 H1          7.8695   -0.8831   -1.9417 H         1 <0>         0.0738
     17 C14         7.1386   -1.9580   -0.1759 C.3       1 <0>        -0.0990
     18 C15         5.7340   -2.5630    0.0316 C.3       1 <0>         0.0703
     19 H2          5.8020   -3.6504    0.0649 H         1 <0>         0.0648
     20 C16         5.1340   -2.0447    1.3132 C.2       1 <0>         0.4971
     21 O2          5.5640   -2.4298    2.3871 O.co2     1 <0>        -0.7032
     22 O3          4.2185   -1.2403    1.2761 O.co2     1 <0>        -0.6712
     23 O4          7.5382   -2.8844   -2.4171 O.3       1 <0>        -0.5541
     24 H3          1.0039    1.9031    0.0027 H         1 <0>         0.0581
     25 H4         -0.5459    1.8868   -0.8726 H         1 <0>         0.0460
     26 H5         -0.5289    1.8773    0.9072 H         1 <0>         0.0480
     27 H6          0.2319   -0.1594    2.1383 H         1 <0>         0.0384
     28 H7          0.7568   -1.6008    1.2356 H         1 <0>         0.0580
     29 H8          1.7647   -0.1336    1.2338 H         1 <0>         0.0764
     30 H9         -1.9605   -0.1726   -0.8702 H         1 <0>         0.0463
     31 H10        -1.4185   -1.6235    0.0069 H         1 <0>         0.0568
     32 H11        -1.9435   -0.1821    0.9097 H         1 <0>         0.0479
     33 H12         0.1910   -0.1364   -2.1398 H         1 <0>         0.0534
     34 H13         1.2661   -2.3884   -0.3821 H         1 <0>         0.1062
     35 H14        -0.2836   -2.4046   -1.2575 H         1 <0>         0.0520
     36 H15         1.4699   -3.6106   -2.5300 H         1 <0>         0.0617
     37 H16         0.9279   -2.1597   -3.4071 H         1 <0>         0.0570
     38 H17         3.4007   -2.3427   -3.4317 H         1 <0>         0.0803
     39 H18         3.8923   -0.0840   -2.5342 H         1 <0>         0.0655
     40 H19         2.3426   -0.1002   -3.4095 H         1 <0>         0.0599
     41 H20         2.1388    1.1220   -1.2617 H         1 <0>         0.0553
     42 H21         2.6808   -0.3290   -0.3846 H         1 <0>         0.1059
     43 H22         5.4712   -1.4826   -3.0395 H         1 <0>         0.0691
     44 H23         5.5603   -0.2403   -1.7535 H         1 <0>         0.0736
     45 H24         7.9133   -2.6662    0.1180 H         1 <0>         0.0825
     46 H25         7.2380   -1.0243    0.3778 H         1 <0>         0.0848
     47 H26         7.4856   -2.7964   -3.3787 H         1 <0>         0.3713
@<TRIPOS>BOND
     1    1    2 1
     2    1   24 1
     3    1   25 1
     4    1   26 1
     5    2    3 1
     6    2    4 1
     7    2    5 1
     8    3   27 1
     9    3   28 1
    10    3   29 1
    11    4   30 1
    12    4   31 1
    13    4   32 1
    14    5   10 1
    15    5    6 1
    16    5   33 1
    17    6    7 1
    18    6   34 1
    19    6   35 1
    20    7    8 1
    21    7   36 1
    22    7   37 1
    23    8    9 1
    24    8   11 1
    25    8   38 1
    26    9   10 1
    27    9   39 1
    28    9   40 1
    29   10   41 1
    30   10   42 1
    31   11   12 2
    32   11   13 am
    33   13   18 1
    34   13   14 1
    35   14   15 1
    36   14   43 1
    37   14   44 1
    38   15   16 1
    39   15   17 1
    40   15   23 1
    41   17   18 1
    42   17   45 1
    43   17   46 1
    44   18   19 1
    45   18   20 1
    46   20   21 2
    47   20   22 1
    48   23   47 1
@<TRIPOS>MOLECULE
ZINC39465339
   32    34     0     0     0
SMALL
USER_CHARGES

@<TRIPOS>ATOM
      1 C1         -0.0225    1.8097    0.0120 C.3       1 <0>        -0.1496
      2 S1          0.0021   -0.0041    0.0020 S.3       1 <0>        -0.1005
      3 C2          0.8484   -0.4107   -1.4889 C.ar      1 <0>        -0.1234
      4 C3          1.3147    0.5954   -2.3215 C.ar      1 <0>        -0.1013
      5 C4          1.9810    0.2809   -3.4966 C.ar      1 <0>        -0.0486
      6 C5          2.1801   -1.0404   -3.8367 C.ar      1 <0>        -0.0417
      7 C6          1.7153   -2.0503   -3.0071 C.ar      1 <0>        -0.1334
      8 C7          1.0567   -1.7427   -1.8331 C.ar      1 <0>         0.1161
      9 F1          0.6122   -2.7301   -1.0253 F         1 <0>        -0.1301
     10 C8          2.9016   -1.4258   -5.1032 C.3       1 <0>        -0.0740
     11 C9          2.9140   -0.2409   -6.0688 C.3       1 <0>         0.0314
     12 N1          3.4271    0.9417   -5.3606 N.3       1 <0>        -0.2665
     13 C10         2.4649    1.4128   -4.3646 C.3       1 <0>         0.0293
     14 H1          1.6097    1.8478   -4.8818 H         1 <0>         0.0676
     15 C11         3.0812    2.4963   -3.4745 C.3       1 <0>         0.1153
     16 O1          3.4345    3.6250   -4.2985 O.3       1 <0>        -0.7305
     17 P1          4.3047    3.3532   -5.6453 P.3       1 <0>         2.2972
     18 O2          5.8029    3.2153   -5.2939 O.2       1 <0>        -1.0953
     19 N2          3.7309    1.9329   -6.2673 N.pl3     1 <0>        -1.0102
     20 O3          4.0980    4.5038   -6.6555 O.3       1 <0>        -1.0910
     21 H2          1.0001    2.1870    0.0043 H         1 <0>         0.0888
     22 H3         -0.5497    2.1708   -0.8711 H         1 <0>         0.0864
     23 H4         -0.5327    2.1613    0.9088 H         1 <0>         0.1122
     24 H5          1.1579    1.6298   -2.0535 H         1 <0>         0.1383
     25 H6          1.8734   -3.0835   -3.2790 H         1 <0>         0.1429
     26 H7          3.9264   -1.7101   -4.8647 H         1 <0>         0.0969
     27 H8          2.3910   -2.2684   -5.5695 H         1 <0>         0.0872
     28 H9          3.5599   -0.4676   -6.9170 H         1 <0>         0.0935
     29 H10         1.9010   -0.0453   -6.4202 H         1 <0>         0.0433
     30 H11         2.3570    2.8061   -2.7210 H         1 <0>         0.0858
     31 H12         3.9745    2.1052   -2.9875 H         1 <0>         0.0702
     32 H13         3.6145    1.8042   -7.2216 H         1 <0>         0.3937
@<TRIPOS>BOND
     1    1    2 1
     2    1   21 1
     3    1   22 1
     4    1   23 1
     5    2    3 1
     6    3    8 ar
     7    3    4 ar
     8    4    5 ar
     9    4   24 1
    10    5   13 1
    11    5    6 ar
    12    6    7 ar
    13    6   10 1
    14    7    8 ar
    15    7   25 1
    16    8    9 1
    17   10   11 1
    18   10   26 1
    19   10   27 1
    20   11   12 1
    21   11   28 1
    22   11   29 1
    23   12   19 1
    24   12   13 1
    25   13   14 1
    26   13   15 1
    27   15   16 1
    28   15   30 1
    29   15   31 1
    30   16   17 1
    31   17   18 2
    32   17   19 1
    33   17   20 1
    34   19   32 1
@<TRIPOS>MOLECULE
ZINC42186627
   40    41     0     0     0
SMALL
USER_CHARGES

@<TRIPOS>ATOM
      1 C1          0.3209    0.7919   -0.0084 C.3       1 <0>        -0.1811
      2 C2         -0.1121   -0.6743    0.0528 C.3       1 <0>         0.1763
      3 C3          0.4955   -1.4530   -1.1272 C.3       1 <0>        -0.1586
      4 C4          1.3838   -2.5564   -0.5163 C.3       1 <0>        -0.1190
      5 C5          0.8019   -2.7701    0.9032 C.3       1 <0>        -0.1249
      6 C6          0.4283   -1.3316    1.3395 C.3       1 <0>        -0.1173
      7 N1         -1.5737   -0.7675    0.0173 N.pl3     1 <0>        -1.1201
      8 S1         -2.4212   -0.0289   -1.1986 S.o2      1 <0>         2.7840
      9 O1         -3.7797   -0.4141   -1.0388 O.2       1 <0>        -0.9915
     10 O2         -2.0116    1.3317   -1.2108 O.2       1 <0>        -0.9719
     11 N2         -1.9064   -0.6910   -2.6265 N.pl3     1 <0>        -1.0041
     12 C7         -2.4766   -1.9540   -3.1147 C.3       1 <0>         0.1247
     13 C8         -2.9847   -1.7454   -4.5447 C.3       1 <0>        -0.1299
     14 C9         -1.8496   -1.1925   -5.4096 C.3       1 <0>        -0.0929
     15 C10        -1.3966    0.1604   -4.8558 C.3       1 <0>        -0.1659
     16 H1         -2.2406    0.8501   -4.8448 H         1 <0>         0.0647
     17 C11        -0.8749   -0.0234   -3.4322 C.3       1 <0>         0.1421
     18 C12        -0.3016    0.7195   -5.7272 C.2       1 <0>         0.5010
     19 O3         -0.5146    0.9410   -6.9070 O.co2     1 <0>        -0.6976
     20 O4          0.7974    0.9502   -5.2523 O.co2     1 <0>        -0.6960
     21 H2          1.4093    0.8497   -0.0065 H         1 <0>         0.0688
     22 H3         -0.0655    1.2471   -0.9204 H         1 <0>         0.0914
     23 H4         -0.0728    1.3234    0.8580 H         1 <0>         0.0612
     24 H5         -0.2971   -1.9010   -1.7266 H         1 <0>         0.0854
     25 H6          1.0988   -0.7864   -1.7434 H         1 <0>         0.0853
     26 H7          1.3096   -3.4732   -1.1010 H         1 <0>         0.0655
     27 H8          2.4200   -2.2230   -0.4576 H         1 <0>         0.0670
     28 H9         -0.0834   -3.4048    0.8662 H         1 <0>         0.0658
     29 H10         1.5540   -3.1927    1.5693 H         1 <0>         0.0654
     30 H11         1.3101   -0.8005    1.6979 H         1 <0>         0.0792
     31 H12        -0.3433   -1.3547    2.1091 H         1 <0>         0.0699
     32 H13        -2.0450   -1.2618    0.7061 H         1 <0>         0.4103
     33 H14        -1.7091   -2.7279   -3.1088 H         1 <0>         0.0648
     34 H15        -3.3050   -2.2532   -2.4726 H         1 <0>         0.0798
     35 H16        -3.3226   -2.6977   -4.9533 H         1 <0>         0.0673
     36 H17        -3.8138   -1.0378   -4.5367 H         1 <0>         0.0638
     37 H18        -1.0113   -1.8890   -5.3972 H         1 <0>         0.0551
     38 H19        -2.2016   -1.0663   -6.4334 H         1 <0>         0.0669
     39 H20        -0.6468    0.9507   -2.9996 H         1 <0>         0.0899
     40 H21         0.0262   -0.6364   -3.4529 H         1 <0>         0.0751
@<TRIPOS>BOND
     1    1    2 1
     2    1   21 1
     3    1   22 1
     4    1   23 1
     5    2    6 1
     6    2    3 1
     7    2    7 1
     8    3    4 1
     9    3   24 1
    10    3   25 1
    11    4    5 1
    12    4   26 1
    13    4   27 1
    14    5    6 1
    15    5   28 1
    16    5   29 1
    17    6   30 1
    18    6   31 1
    19    7    8 1
    20    7   32 1
    21    8    9 2
    22    8   10 2
    23    8   11 1
    24   11   17 1
    25   11   12 1
    26   12   13 1
    27   12   33 1
    28   12   34 1
    29   13   14 1
    30   13   35 1
    31   13   36 1
    32   14   15 1
    33   14   37 1
    34   14   38 1
    35   15   16 1
    36   15   17 1
    37   15   18 1
    38   17   39 1
    39   17   40 1
    40   18   19 2
    41   18   20 1
@<TRIPOS>MOLECULE
ZINC50222499
   27    28     0     0     0
SMALL
USER_CHARGES

@<TRIPOS>ATOM
      1 C1         -0.0704    1.3943    0.0164 C.2       1 <0>        -0.1406
      2 C2          1.1225    2.0936    0.0100 C.2       1 <0>        -0.1327
      3 C3          2.2894    1.4020   -0.0045 C.2       1 <0>        -0.1267
      4 S1          1.7164   -0.2888   -0.0096 S.3       1 <0>         0.1080
      5 C4         -0.0382    0.0396    0.0080 C.2       1 <0>        -0.1107
      6 C5         -1.1862   -0.9367    0.0123 C.3       1 <0>        -0.0304
      7 S2         -1.6621   -1.3182   -1.6961 S.3       1 <0>        -0.1817
      8 C6         -3.0361   -2.4890   -1.5179 C.3       1 <0>        -0.0909
      9 C7         -3.5323   -2.8925   -2.8825 C.2       1 <0>         0.5038
     10 O1         -3.0093   -2.4342   -3.8795 O.2       1 <0>        -0.5984
     11 N1         -4.5430   -3.7505   -2.9959 N.2       1 <0>        -0.6699
     12 C8         -5.0501   -4.0263   -4.1945 C.2       1 <0>         0.6556
     13 N2         -4.5299   -3.5658   -5.3725 N.pl3     1 <0>        -0.7452
     14 C9         -5.4000   -4.1126   -6.4299 C.3       1 <0>         0.0213
     15 C10        -6.4320   -4.9106   -5.6594 C.2       1 <0>         0.4561
     16 O2         -7.4561   -5.6086   -6.1754 O.3       1 <0>        -0.6251
     17 N3         -6.1264   -4.7916   -4.3954 N.2       1 <0>        -0.6270
     18 Cl1         3.9174    2.0047   -0.0154 Cl        1 <0>         0.0115
     19 H1         -1.0137    1.9199    0.0324 H         1 <0>         0.1447
     20 H2          1.1251    3.1736    0.0161 H         1 <0>         0.1421
     21 H3         -0.8819   -1.8531    0.5180 H         1 <0>         0.0976
     22 H4         -2.0349   -0.4973    0.5364 H         1 <0>         0.1061
     23 H5         -2.6929   -3.3728   -0.9801 H         1 <0>         0.1050
     24 H6         -3.8459   -2.0170   -0.9617 H         1 <0>         0.1052
     25 H7         -5.8765   -3.3077   -6.9895 H         1 <0>         0.0956
     26 H8         -4.8323   -4.7616   -7.0968 H         1 <0>         0.0966
     27 H9         -3.7518   -2.9984   -5.4881 H         1 <0>         0.4301
@<TRIPOS>BOND
     1    1    5 2
     2    1    2 1
     3    1   19 1
     4    2    3 2
     5    2   20 1
     6    3    4 1
     7    3   18 1
     8    4    5 1
     9    5    6 1
    10    6    7 1
    11    6   21 1
    12    6   22 1
    13    7    8 1
    14    8    9 1
    15    8   23 1
    16    8   24 1
    17    9   10 2
    18    9   11 1
    19   11   12 2
    20   12   13 1
    21   12   17 1
    22   13   14 1
    23   13   27 1
    24   14   15 1
    25   14   25 1
    26   14   26 1
    27   15   16 1
    28   15   17 2
@<TRIPOS>MOLECULE
ZINC03142476
   27    28     0     0     0
SMALL
USER_CHARGES
2-(2-hydroxy-5-nitro-phenyl)thiazolidine-4-carboxylic acid
@<TRIPOS>ATOM
      1 C1         -1.3235    3.3186    0.0321 C.ar      1 <0>        -0.0044
      2 C2         -2.5280    3.9955    0.0358 C.ar      1 <0>        -0.2275
      3 C3         -3.7204    3.2868    0.0376 C.ar      1 <0>         0.3292
      4 C4         -3.7002    1.8995    0.0299 C.ar      1 <0>        -0.2685
      5 C5         -2.4935    1.2275    0.0205 C.ar      1 <0>         0.0220
      6 C6         -1.3061    1.9363    0.0188 C.ar      1 <0>        -0.1605
      7 N1         -0.0144    1.2138    0.0087 N.pl3     1 <0>         0.0589
      8 O1          0.0021   -0.0041    0.0020 O.2       1 <0>        -0.2048
      9 O2          1.0320    1.8371    0.0021 O.3       1 <0>        -0.2034
     10 C7         -4.9939    1.1264    0.0324 C.3       1 <0>         0.1699
     11 H1         -5.8172    1.7412    0.3962 H         1 <0>         0.1708
     12 C8         -5.9257   -1.0855    0.4315 C.3       1 <0>        -0.0317
     13 H2         -6.8875   -0.7275    0.7988 H         1 <0>         0.1468
     14 C9         -5.9849   -1.2173   -1.1129 C.3       1 <0>        -0.0630
     15 S1         -5.3620    0.4353   -1.6374 S.3       1 <0>        -0.2379
     16 C10        -5.6322   -2.4343    1.0360 C.2       1 <0>         0.4665
     17 O3         -4.5184   -2.6915    1.4273 O.co2     1 <0>        -0.6060
     18 H3         -0.3948    3.8699    0.0355 H         1 <0>         0.1358
     19 H4         -2.5410    5.0754    0.0413 H         1 <0>         0.1329
     20 H5         -2.4773    0.1477    0.0142 H         1 <0>         0.1277
     21 H6         -5.3281   -2.0133   -1.4638 H         1 <0>         0.1203
     22 H7         -7.0078   -1.3776   -1.4537 H         1 <0>         0.1350
     23 N2         -4.8662   -0.1354    0.8272 N.4       1 <0>        -0.5152
     24 H8         -4.9581    0.0807    1.8267 H         1 <0>         0.4319
     25 H9         -3.9469   -0.5574    0.6513 H         1 <0>         0.4322
     26 O4         -6.6082   -3.3500    1.1398 O.co2     1 <0>        -0.7020
     27 O5         -4.9064    3.9503    0.0463 O.3       1 <0>        -0.6548
@<TRIPOS>BOND
     1    1    6 ar
     2    1    2 ar
     3    1   18 1
     4    2    3 ar
     5    2   19 1
     6    3    4 ar
     7    3   27 1
     8    4    5 ar
     9    4   10 1
    10    5    6 ar
    11    5   20 1
    12    6    7 1
    13    7    8 2
    14    7    9 1
    15   10   11 1
    16   10   15 1
    17   10   23 1
    18   12   13 1
    19   12   14 1
    20   12   16 1
    21   12   23 1
    22   14   15 1
    23   14   21 1
    24   14   22 1
    25   16   17 2
    26   16   26 1
    27   23   24 1
    28   23   25 1
@<TRIPOS>MOLECULE
ZINC37022204
   22    23     0     0     0
SMALL
USER_CHARGES

@<TRIPOS>ATOM
      1 C1         -0.0171    1.4131    0.0098 C.2       1 <0>        -0.3304
      2 C2          1.1530    2.0832    0.0022 C.2       1 <0>         0.1201
      3 O1          2.3210    1.4311   -0.0129 O.3       1 <0>        -0.1947
      4 C3          2.3885    0.0927   -0.0207 C.2       1 <0>        -0.2299
      5 C4          1.2651   -0.6579   -0.0136 C.2       1 <0>         0.1320
      6 C5          0.0021   -0.0041    0.0020 C.2       1 <0>         0.3606
      7 O2         -1.0373   -0.6461    0.0085 O.2       1 <0>        -0.5117
      8 O3          1.3407   -2.0167   -0.0221 O.3       1 <0>        -0.6965
      9 C6          1.1448    3.5901    0.0104 C.3       1 <0>        -0.0551
     10 S1          1.5999    4.1883    1.6614 S.3       1 <0>         0.0744
     11 C7          1.5453    5.9429    1.5090 C.2       1 <0>         0.0494
     12 N1          1.2421    6.6818    0.4591 N.2       1 <0>        -0.2804
     13 N2          1.2613    8.0538    0.5594 N.2       1 <0>        -0.3729
     14 C8          1.5827    8.6238    1.7041 C.2       1 <0>         0.3441
     15 S2          1.8782    7.1967    2.7370 S.3       1 <0>        -0.0074
     16 N3          1.6643    9.9741    2.0233 N.pl3     1 <0>        -0.7931
     17 H1         -0.9550    1.9483    0.0261 H         1 <0>         0.1337
     18 H2          3.3534   -0.3923   -0.0333 H         1 <0>         0.1707
     19 H3          1.8625    3.9613   -0.7212 H         1 <0>         0.1190
     20 H4          0.1477    3.9494   -0.2441 H         1 <0>         0.1266
     21 H5          1.4682   10.6444    1.3501 H         1 <0>         0.4205
     22 H6          1.9174   10.2463    2.9193 H         1 <0>         0.4213
@<TRIPOS>BOND
     1    1    6 1
     2    1    2 2
     3    1   17 1
     4    2    3 1
     5    2    9 1
     6    3    4 1
     7    4    5 2
     8    4   18 1
     9    5    6 1
    10    5    8 1
    11    6    7 2
    12    9   10 1
    13    9   19 1
    14    9   20 1
    15   10   11 1
    16   11   15 1
    17   11   12 2
    18   12   13 1
    19   13   14 2
    20   14   15 1
    21   14   16 1
    22   16   21 1
    23   16   22 1
@<TRIPOS>MOLECULE
ZINC39465320
   29    31     0     0     0
SMALL
USER_CHARGES

@<TRIPOS>ATOM
      1 C1         -0.0167    1.3807    0.0096 C.ar      1 <0>        -0.1311
      2 C2          1.1703    2.0960    0.0021 C.ar      1 <0>        -0.0455
      3 C3          2.3771    1.4305   -0.0148 C.ar      1 <0>        -0.0548
      4 C4          2.3968    0.0421   -0.0229 C.ar      1 <0>        -0.0918
      5 C5          1.2179   -0.6746   -0.0146 C.ar      1 <0>        -0.0621
      6 C6          0.0021   -0.0041    0.0020 C.ar      1 <0>         0.1143
      7 O1         -1.1636   -0.7032    0.0104 O.3       1 <0>        -0.4861
      8 Cl1         1.2545   -2.4102   -0.0244 Cl        1 <0>        -0.0593
      9 C7          3.6941    2.1613   -0.0271 C.3       1 <0>         0.0282
     10 H1          4.1096    2.1165   -1.0338 H         1 <0>         0.0703
     11 C8          4.6608    1.4648    0.9353 C.3       1 <0>         0.1142
     12 O2          5.9521    2.0966    0.8296 O.3       1 <0>        -0.7302
     13 P1          6.0274    3.7179    0.9330 P.3       1 <0>         2.2967
     14 O3          5.9968    4.1604    2.4129 O.2       1 <0>        -1.0959
     15 N1          4.6877    4.2773    0.1418 N.pl3     1 <0>        -1.0117
     16 N2          3.5240    3.5645    0.3492 N.3       1 <0>        -0.2627
     17 C9          2.4345    4.1863   -0.4189 C.3       1 <0>         0.0300
     18 C10         1.1028    3.6019    0.0134 C.3       1 <0>        -0.0775
     19 O4          7.3111    4.2373    0.2479 O.3       1 <0>        -1.0915
     20 H2         -0.9605    1.9055    0.0260 H         1 <0>         0.1399
     21 H3          3.3419   -0.4805   -0.0361 H         1 <0>         0.1437
     22 H4         -1.5100   -0.9007   -0.8706 H         1 <0>         0.3901
     23 H5          4.2907    1.5576    1.9563 H         1 <0>         0.0705
     24 H6          4.7462    0.4113    0.6690 H         1 <0>         0.0897
     25 H7          4.7216    5.0637   -0.4251 H         1 <0>         0.3946
     26 H8          2.4394    5.2636   -0.2533 H         1 <0>         0.0942
     27 H9          2.5699    3.9770   -1.4800 H         1 <0>         0.0406
     28 H10         0.3083    3.9344   -0.6547 H         1 <0>         0.0885
     29 H11         0.8933    3.9481    1.0255 H         1 <0>         0.0946
@<TRIPOS>BOND
     1    1    6 ar
     2    1    2 ar
     3    1   20 1
     4    2   18 1
     5    2    3 ar
     6    3    4 ar
     7    3    9 1
     8    4    5 ar
     9    4   21 1
    10    5    6 ar
    11    5    8 1
    12    6    7 1
    13    7   22 1
    14    9   10 1
    15    9   16 1
    16    9   11 1
    17   11   12 1
    18   11   23 1
    19   11   24 1
    20   12   13 1
    21   13   14 2
    22   13   15 1
    23   13   19 1
    24   15   16 1
    25   15   25 1
    26   16   17 1
    27   17   18 1
    28   17   26 1
    29   17   27 1
    30   18   28 1
    31   18   29 1
@<TRIPOS>MOLECULE
ZINC48919047
   30    31     0     0     0
SMALL
USER_CHARGES

@<TRIPOS>ATOM
      1 C1         -0.2158    1.4274    0.0344 C.3       1 <0>         0.1167
      2 N1         -0.0076   -0.0225    0.0125 N.pl3     1 <0>        -0.6752
      3 C2          0.2003   -0.7517    1.2660 C.3       1 <0>         0.1178
      4 C3         -0.0072   -0.7125   -1.2084 C.ar      1 <0>         0.0713
      5 C4         -1.1951   -1.2215   -1.7197 C.ar      1 <0>         0.1456
      6 C5         -1.1941   -1.9013   -2.9239 C.ar      1 <0>        -0.1677
      7 C6         -0.0066   -2.0754   -3.6222 C.ar      1 <0>         0.2216
      8 C7          1.1807   -1.5675   -3.1117 C.ar      1 <0>        -0.1917
      9 C8          1.1802   -0.8826   -1.9105 C.ar      1 <0>         0.1425
     10 F1          2.3344   -0.3833   -1.4169 F         1 <0>        -0.1258
     11 N2         -0.0063   -2.7640   -4.8418 N.am      1 <0>        -0.6635
     12 C9         -1.0709   -2.6792   -5.6638 C.2       1 <0>         0.6243
     13 O1         -1.9899   -1.9306   -5.3931 O.2       1 <0>        -0.4911
     14 C10        -1.1213   -3.4962   -6.8946 C.2       1 <0>         0.1876
     15 N3         -0.1953   -4.3430   -7.2904 N.2       1 <0>        -0.3505
     16 N4         -0.6432   -4.8993   -8.4995 N.pl3     1 <0>        -0.5357
     17 C11        -1.8434   -4.3357   -8.7606 C.2       1 <0>         0.5349
     18 O2         -2.6251   -4.5938   -9.8359 O.3       1 <0>        -0.7048
     19 N5         -2.1225   -3.5006   -7.7900 N.2       1 <0>        -0.5835
     20 F2         -2.3504   -1.0525   -1.0402 F         1 <0>        -0.1234
     21 H1          0.7463    1.9339   -0.0428 H         1 <0>         0.0365
     22 H2         -0.8471    1.7166   -0.8058 H         1 <0>         0.0560
     23 H3         -0.7016    1.7107    0.9682 H         1 <0>         0.0596
     24 H4         -0.7619   -1.0794    1.6595 H         1 <0>         0.0367
     25 H5          0.8319   -1.6205    1.0805 H         1 <0>         0.0547
     26 H6          0.6855   -0.0978    1.9906 H         1 <0>         0.0593
     27 H7         -2.1171   -2.2971   -3.3211 H         1 <0>         0.1580
     28 H8          2.1041   -1.7036   -3.6552 H         1 <0>         0.1481
     29 H9          0.7602   -3.3021   -5.0948 H         1 <0>         0.4243
     30 H10        -0.1816   -5.5585   -9.0410 H         1 <0>         0.4179
@<TRIPOS>BOND
     1    1    2 1
     2    1   21 1
     3    1   22 1
     4    1   23 1
     5    2    3 1
     6    2    4 1
     7    3   24 1
     8    3   25 1
     9    3   26 1
    10    4    9 ar
    11    4    5 ar
    12    5    6 ar
    13    5   20 1
    14    6    7 ar
    15    6   27 1
    16    7    8 ar
    17    7   11 1
    18    8    9 ar
    19    8   28 1
    20    9   10 1
    21   11   12 am
    22   11   29 1
    23   12   13 2
    24   12   14 1
    25   14   19 1
    26   14   15 2
    27   15   16 1
    28   16   17 1
    29   16   30 1
    30   17   18 1
    31   17   19 2
@<TRIPOS>MOLECULE
ZINC61685209
   24    25     0     0     0
SMALL
USER_CHARGES

@<TRIPOS>ATOM
      1 C1         -0.0167    1.3807    0.0096 C.ar      1 <0>        -0.2419
      2 C2          1.1697    2.0909    0.0021 C.ar      1 <0>         0.0449
      3 C3          2.3774    1.4215   -0.0130 C.ar      1 <0>        -0.7040
      4 C4          2.4011    0.0322   -0.0207 C.ar      1 <0>         0.3418
      5 C5          1.2091   -0.6799   -0.0132 C.ar      1 <0>        -0.2626
      6 C6          0.0021   -0.0041    0.0020 C.ar      1 <0>         0.1800
      7 F1         -1.1587   -0.6952    0.0094 F         1 <0>        -0.1403
      8 N1          3.6215   -0.6467   -0.0365 N.pl3     1 <0>        -0.8517
      9 S1          3.8879    2.3287   -0.0232 S.o2      1 <0>         2.6026
     10 O1          4.6872    1.7750   -1.0593 O.2       1 <0>        -1.0404
     11 O2          3.5354    3.7048    0.0143 O.2       1 <0>        -1.0358
     12 N2          4.6658    2.0004    1.4014 N.2       1 <0>        -1.0777
     13 C7          5.9127    2.5926    1.6749 C.2       1 <0>         0.1087
     14 C8          6.6092    3.4846    0.8331 C.2       1 <0>         0.0019
     15 N3          7.7212    3.8156    1.4261 N.2       1 <0>        -0.3352
     16 O3          7.7714    3.1430    2.6712 O.3       1 <0>        -0.0953
     17 C9          6.6497    2.4110    2.7920 C.2       1 <0>        -0.0986
     18 H1         -0.9597    1.9069    0.0260 H         1 <0>         0.1342
     19 H2          1.1518    3.1707    0.0077 H         1 <0>         0.1465
     20 H3          1.2242   -1.7598   -0.0195 H         1 <0>         0.1348
     21 H4          4.4537   -0.1483   -0.0421 H         1 <0>         0.4172
     22 H5          3.6370   -1.6166   -0.0419 H         1 <0>         0.4000
     23 H6          6.2786    3.8323   -0.1345 H         1 <0>         0.1743
     24 H7          6.3862    1.7861    3.6326 H         1 <0>         0.1966
@<TRIPOS>BOND
     1    1    6 ar
     2    1    2 ar
     3    1   18 1
     4    2    3 ar
     5    2   19 1
     6    3    4 ar
     7    3    9 1
     8    4    5 ar
     9    4    8 1
    10    5    6 ar
    11    5   20 1
    12    6    7 1
    13    8   21 1
    14    8   22 1
    15    9   10 2
    16    9   11 2
    17    9   12 1
    18   12   13 1
    19   13   17 2
    20   13   14 1
    21   14   15 2
    22   14   23 1
    23   15   16 1
    24   16   17 1
    25   17   24 1
@<TRIPOS>MOLECULE
ZINC18151992
   36    37     0     0     0
SMALL
USER_CHARGES

@<TRIPOS>ATOM
      1 C1         -1.5628   -2.0591   -1.9302 C.3       1 <0>        -0.1245
      2 C2         -2.0224   -0.7194   -1.3513 C.3       1 <0>        -0.0868
      3 C3         -1.4117   -0.5257    0.0127 C.2       1 <0>         0.3607
      4 C4         -0.1255   -0.0212    0.1312 C.2       1 <0>        -0.4135
      5 C5          0.4515    0.3155    1.4452 C.2       1 <0>         0.5775
      6 N1          1.7109    0.8018    1.4742 N.am      1 <0>        -0.6938
      7 C6          2.4130    0.9730    0.3445 C.2       1 <0>         0.6657
      8 N2          1.9406    0.6861   -0.8655 N.2       1 <0>        -0.6766
      9 C7          0.7252    0.1958   -1.0465 C.2       1 <0>         0.5221
     10 O1          0.2750   -0.0926   -2.2856 O.3       1 <0>        -0.6490
     11 O2          3.5447    1.4158    0.4311 O.2       1 <0>        -0.5973
     12 O3         -0.1863    0.1606    2.4702 O.2       1 <0>        -0.5845
     13 N3         -2.1148   -0.8423    1.1160 N.pl3     1 <0>        -0.5399
     14 N4         -3.3944   -1.3063    1.0007 N.3       1 <0>        -0.3126
     15 C8         -4.3497   -0.3728    1.6111 C.3       1 <0>         0.0346
     16 C9         -5.7776   -0.8500    1.3366 C.3       1 <0>        -0.1122
     17 C10        -5.9626   -2.2533    1.9206 C.3       1 <0>        -0.1244
     18 C11        -4.9244   -3.1951    1.3043 C.3       1 <0>        -0.1120
     19 C12        -3.5212   -2.6498    1.5797 C.3       1 <0>         0.0371
     20 H1         -2.0045   -2.1992   -2.9168 H         1 <0>         0.0530
     21 H2         -0.4761   -2.0648   -2.0145 H         1 <0>         0.0798
     22 H3         -1.8805   -2.8675   -1.2718 H         1 <0>         0.0320
     23 H4         -1.7048    0.0890   -2.0098 H         1 <0>         0.1169
     24 H5         -3.1091   -0.7137   -1.2670 H         1 <0>         0.0717
     25 H6         -1.7128   -0.7410    1.9930 H         1 <0>         0.4078
     26 H7         -4.1808   -0.3322    2.6871 H         1 <0>         0.0416
     27 H8         -4.2103    0.6204    1.1840 H         1 <0>         0.0834
     28 H9         -6.4861   -0.1655    1.8030 H         1 <0>         0.0720
     29 H10        -5.9517   -0.8776    0.2610 H         1 <0>         0.0764
     30 H11        -5.8269   -2.2189    3.0016 H         1 <0>         0.0595
     31 H12        -6.9647   -2.6148    1.6897 H         1 <0>         0.0677
     32 H13        -5.0233   -4.1859    1.7476 H         1 <0>         0.0722
     33 H14        -5.0850   -3.2596    0.2281 H         1 <0>         0.0769
     34 H15        -2.7801   -3.3105    1.1298 H         1 <0>         0.0842
     35 H16        -3.3562   -2.5986    2.6559 H         1 <0>         0.0409
     36 H17         2.1142    1.0313    2.3260 H         1 <0>         0.3932
@<TRIPOS>BOND
     1    1    2 1
     2    1   20 1
     3    1   21 1
     4    1   22 1
     5    2    3 1
     6    2   23 1
     7    2   24 1
     8    3    4 2
     9    3   13 1
    10    4    9 1
    11    4    5 1
    12    5    6 am
    13    5   12 2
    14    6    7 am
    15    6   36 1
    16    7    8 1
    17    7   11 2
    18    8    9 2
    19    9   10 1
    20   13   14 1
    21   13   25 1
    22   14   19 1
    23   14   15 1
    24   15   16 1
    25   15   26 1
    26   15   27 1
    27   16   17 1
    28   16   28 1
    29   16   29 1
    30   17   18 1
    31   17   30 1
    32   17   31 1
    33   18   19 1
    34   18   32 1
    35   18   33 1
    36   19   34 1
    37   19   35 1
@<TRIPOS>MOLECULE
ZINC12641191
   50    52     0     0     0
SMALL
USER_CHARGES
4-[2-[(4,6,8-trimethyl-2-quinolyl)amino]ethyl]benzenesulfonamide
@<TRIPOS>ATOM
      1 C1          1.1298   10.4973    7.4524 C.3       1 <0>        -0.1286
      2 C2          1.1276    9.6997    6.1738 C.ar      1 <0>        -0.0712
      3 C3          1.1072   10.3636    4.9494 C.ar      1 <0>        -0.0412
      4 C4          1.1038    9.6729    3.7764 C.ar      1 <0>        -0.1105
      5 C5          1.1221    8.2677    3.7942 C.ar      1 <0>         0.1612
      6 C6          1.1428    7.5948    5.0403 C.ar      1 <0>        -0.1048
      7 C7          1.1452    8.3390    6.2302 C.ar      1 <0>        -0.0636
      8 C8          1.1612    6.1853    5.0591 C.ar      1 <0>         0.1107
      9 C9          1.1544    5.5236    3.8681 C.ar      1 <0>        -0.2297
     10 C10         1.1391    6.2471    2.6672 C.ar      1 <0>         0.5071
     11 N1          1.1372    5.5598    1.4626 N.pl3     1 <0>        -0.6940
     12 C11         1.1571    4.0950    1.4550 C.3       1 <0>         0.1073
     13 C12         1.1505    3.5924    0.0099 C.3       1 <0>        -0.0999
     14 C13         1.1709    2.0855    0.0021 C.ar      1 <0>        -0.0383
     15 C14        -0.0167    1.3781    0.0096 C.ar      1 <0>        -0.1328
     16 C15         0.0021   -0.0041    0.0020 C.ar      1 <0>        -0.0126
     17 C16         1.2084   -0.6789   -0.0132 C.ar      1 <0>        -0.6689
     18 C17         2.3961    0.0285   -0.0212 C.ar      1 <0>        -0.0126
     19 C18         2.3773    1.4107   -0.0145 C.ar      1 <0>        -0.1328
     20 S1          1.2323   -2.4407   -0.0217 S.o2      1 <0>         2.6992
     21 O1          2.4885   -2.8324    0.5148 O.2       1 <0>        -0.9580
     22 O2         -0.0018   -2.8663    0.5395 O.2       1 <0>        -0.9580
     23 N2          1.2232   -2.9228   -1.6059 N.pl3     1 <0>        -1.2485
     24 C19         1.1830    5.4299    6.3629 C.3       1 <0>        -0.1476
     25 C20         1.0817   10.4123    2.4634 C.3       1 <0>        -0.1263
     26 H1          2.1578   10.7025    7.7509 H         1 <0>         0.0859
     27 H2          0.6026   11.4382    7.2946 H         1 <0>         0.0794
     28 H3          0.6305    9.9281    8.2365 H         1 <0>         0.0795
     29 H4          1.0935   11.4434    4.9304 H         1 <0>         0.1499
     30 H5          1.1613    7.8354    7.1855 H         1 <0>         0.1558
     31 H6          1.1642    4.4438    3.8491 H         1 <0>         0.1800
     32 H7          1.1228    6.0490    0.6251 H         1 <0>         0.4202
     33 H8          0.2770    3.7170    1.9752 H         1 <0>         0.0961
     34 H9          2.0567    3.7412    1.9586 H         1 <0>         0.0960
     35 H10         2.0306    3.9704   -0.5103 H         1 <0>         0.0940
     36 H11         0.2509    3.9462   -0.4937 H         1 <0>         0.0940
     37 H12        -0.9592    1.9054    0.0170 H         1 <0>         0.1364
     38 H13        -0.9258   -0.5567    0.0083 H         1 <0>         0.1487
     39 H14         3.3386   -0.4987   -0.0324 H         1 <0>         0.1488
     40 H15         3.3052    1.9634   -0.0205 H         1 <0>         0.1364
     41 H16         1.2072   -2.2605   -2.3144 H         1 <0>         0.4167
     42 H17         1.2339   -3.8676   -1.8254 H         1 <0>         0.4248
     43 H18         0.1608    5.2346    6.6868 H         1 <0>         0.1110
     44 H19         1.7079    4.4844    6.2263 H         1 <0>         0.0985
     45 H20         1.6963    6.0245    7.1187 H         1 <0>         0.0964
     46 H21         0.0489   10.5773    2.1567 H         1 <0>         0.0890
     47 H22         1.5844   11.3725    2.5787 H         1 <0>         0.0947
     48 H23         1.5959    9.8217    1.7052 H         1 <0>         0.0617
     49 N3          1.1200    7.6012    2.5889 N.ar      1 <0>        -0.5587
     50 H24         1.1049    8.0968    1.6899 H         1 <0>         0.4592
@<TRIPOS>BOND
     1    1    2 1
     2    1   26 1
     3    1   27 1
     4    1   28 1
     5    2    7 ar
     6    2    3 ar
     7    3    4 ar
     8    3   29 1
     9    4    5 ar
    10    4   25 1
    11    5    6 ar
    12    5   49 ar
    13    6    7 ar
    14    6    8 ar
    15    7   30 1
    16    8    9 ar
    17    8   24 1
    18    9   10 ar
    19    9   31 1
    20   10   11 1
    21   10   49 ar
    22   11   12 1
    23   11   32 1
    24   12   13 1
    25   12   33 1
    26   12   34 1
    27   13   14 1
    28   13   35 1
    29   13   36 1
    30   14   19 ar
    31   14   15 ar
    32   15   16 ar
    33   15   37 1
    34   16   17 ar
    35   16   38 1
    36   17   18 ar
    37   17   20 1
    38   18   19 ar
    39   18   39 1
    40   19   40 1
    41   20   21 2
    42   20   22 2
    43   20   23 1
    44   23   41 1
    45   23   42 1
    46   24   43 1
    47   24   44 1
    48   24   45 1
    49   25   46 1
    50   25   47 1
    51   25   48 1
    52   49   50 1
@<TRIPOS>MOLECULE
ZINC37616450
   36    37     0     0     0
SMALL
USER_CHARGES

@<TRIPOS>ATOM
      1 C1          0.0535    1.2473   -0.6072 C.ar      1 <0>        -0.0892
      2 C2          1.2412    1.9562   -0.6249 C.ar      1 <0>        -0.0036
      3 C3          2.3787    1.4206   -0.0477 C.ar      1 <0>        -0.0739
      4 C4          2.3334    0.1738    0.5503 C.ar      1 <0>        -0.0663
      5 C5          1.1470   -0.5420    0.5717 C.ar      1 <0>         0.0750
      6 C6          0.0014   -0.0032   -0.0093 C.ar      1 <0>         0.1508
      7 N1         -1.2008   -0.7228    0.0101 N.am      1 <0>        -0.6637
      8 C7         -2.3745   -0.0708    0.1270 C.2       1 <0>         0.5113
      9 O1         -2.3966    1.1419    0.1339 O.2       1 <0>        -0.4445
     10 C8         -3.6596   -0.8485    0.2491 C.3       1 <0>         0.0357
     11 C9         -4.2654   -1.1177   -1.1507 C.3       1 <0>        -0.1307
     12 C10        -4.9780    0.2181   -1.4774 C.3       1 <0>        -0.1243
     13 C11        -5.5714    0.6705   -0.1271 C.3       1 <0>        -0.1219
     14 C12        -4.7330   -0.0077    0.9706 C.3       1 <0>        -0.1237
     15 N2         -3.4290   -2.1109    0.9640 N.4       1 <0>        -0.6312
     16 O2          1.1013   -1.7683    1.1584 O.3       1 <0>        -0.3208
     17 C13         0.7723   -1.8105    2.5484 C.3       1 <0>         0.4028
     18 F1          1.7202   -1.0815    3.2744 F         1 <0>        -0.1805
     19 F2         -0.4955   -1.2525    2.7446 F         1 <0>        -0.2172
     20 Br1         3.8910   -0.5540    1.3379 Br        1 <0>         0.0131
     21 Cl1         1.3047    3.5212   -1.3736 Cl        1 <0>        -0.0217
     22 H1         -0.8341    1.6693   -1.0548 H         1 <0>         0.1662
     23 H2          3.3042    1.9769   -0.0642 H         1 <0>         0.1622
     24 H3         -1.1882   -1.6901   -0.0606 H         1 <0>         0.4092
     25 H4         -3.4804   -1.3247   -1.8781 H         1 <0>         0.1014
     26 H5         -4.9820   -1.9380   -1.1102 H         1 <0>         0.1116
     27 H6         -4.2615    0.9529   -1.8446 H         1 <0>         0.0853
     28 H7         -5.7709    0.0587   -2.2082 H         1 <0>         0.0968
     29 H8         -5.5026    1.7542   -0.0334 H         1 <0>         0.0904
     30 H9         -6.6116    0.3539   -0.0516 H         1 <0>         0.0864
     31 H10        -5.3665   -0.6534    1.5789 H         1 <0>         0.1000
     32 H11        -4.2575    0.7469    1.5970 H         1 <0>         0.1082
     33 H12        -3.0861   -1.9140    1.8923 H         1 <0>         0.4415
     34 H13        -4.2952   -2.6246    1.0274 H         1 <0>         0.4469
     35 H14         0.7705   -2.8456    2.8900 H         1 <0>         0.1872
     36 H15        -2.7475   -2.6613    0.4634 H         1 <0>         0.4312
@<TRIPOS>BOND
     1    1    6 ar
     2    1    2 ar
     3    1   22 1
     4    2    3 ar
     5    2   21 1
     6    3    4 ar
     7    3   23 1
     8    4    5 ar
     9    4   20 1
    10    5    6 ar
    11    5   16 1
    12    6    7 1
    13    7    8 am
    14    7   24 1
    15    8    9 2
    16    8   10 1
    17   10   14 1
    18   10   11 1
    19   10   15 1
    20   11   12 1
    21   11   25 1
    22   11   26 1
    23   12   13 1
    24   12   27 1
    25   12   28 1
    26   13   14 1
    27   13   29 1
    28   13   30 1
    29   14   31 1
    30   14   32 1
    31   15   33 1
    32   15   34 1
    33   15   36 1
    34   16   17 1
    35   17   18 1
    36   17   19 1
    37   17   35 1
@<TRIPOS>MOLECULE
ZINC42636606
   58    60     0     0     0
SMALL
USER_CHARGES

@<TRIPOS>ATOM
      1 C1         -1.4921   -0.2276    0.1356 C.3       1 <0>        -0.1772
      2 C2         -0.0118    0.1479    0.0432 C.3       1 <0>         0.0788
      3 H1          0.0853    1.2323   -0.0092 H         1 <0>         0.1485
      4 C3          0.5870   -0.4704   -1.1938 C.ar      1 <0>        -0.1492
      5 C4          0.9562   -1.8028   -1.1942 C.ar      1 <0>        -0.1280
      6 C5          1.5064   -2.3608   -2.3293 C.ar      1 <0>        -0.1022
      7 C6          1.6916   -1.5953   -3.4736 C.ar      1 <0>        -0.0439
      8 C7          1.3194   -0.2700   -3.4749 C.ar      1 <0>        -0.0594
      9 C8          0.7635    0.2895   -2.3313 C.ar      1 <0>        -0.0879
     10 C9          1.4759    0.6149   -4.6838 C.3       1 <0>        -0.0883
     11 C10         2.4603   -0.0005   -5.6763 C.3       1 <0>        -0.1236
     12 C11         2.0395   -1.4513   -5.9388 C.3       1 <0>        -0.1244
     13 C12         2.3050   -2.2663   -4.6746 C.3       1 <0>        -0.0928
     14 N1          0.6948   -0.3502    1.2308 N.4       1 <0>        -0.4931
     15 C13         2.0846    0.1251    1.2089 C.3       1 <0>         0.0064
     16 H2          2.5489   -0.1531    0.2628 H         1 <0>         0.1694
     17 C14         2.1054    1.6476    1.3590 C.3       1 <0>        -0.1795
     18 C15         2.8481   -0.5023    2.3467 C.2       1 <0>         0.5039
     19 O1          2.2894   -1.2699    3.1015 O.2       1 <0>        -0.5025
     20 N2          4.1517   -0.2105    2.5255 N.am      1 <0>        -0.6450
     21 C16         4.8884   -0.8743    3.5131 C.ar      1 <0>         0.1161
     22 C17         5.8861   -0.1999    4.2070 C.ar      1 <0>        -0.1054
     23 C18         6.6164   -0.8510    5.1832 C.ar      1 <0>        -0.1012
     24 C19         6.3602   -2.1754    5.4752 C.ar      1 <0>        -0.0859
     25 C20         5.3603   -2.8615    4.7841 C.ar      1 <0>        -0.1140
     26 C21         4.6191   -2.2026    3.8031 C.ar      1 <0>        -0.0574
     27 C22         5.0836   -4.2804    5.0949 C.2       1 <0>         0.5558
     28 O2          4.2124   -4.8760    4.4918 O.2       1 <0>        -0.5318
     29 N3          5.7974   -4.9133    6.0470 N.am      1 <0>        -0.7271
     30 C23         5.5233   -6.3191    6.3549 C.3       1 <0>         0.0844
     31 H3         -1.9035    0.1447    1.0738 H         1 <0>         0.0862
     32 H4         -2.0326    0.2170   -0.7000 H         1 <0>         0.1106
     33 H5         -1.5948   -1.3122    0.0989 H         1 <0>         0.0849
     34 H6          0.8145   -2.4046   -0.3086 H         1 <0>         0.1193
     35 H7          1.7959   -3.4012   -2.3283 H         1 <0>         0.1345
     36 H8          0.4716    1.3293   -2.3314 H         1 <0>         0.1330
     37 H9          0.5069    0.7371   -5.1676 H         1 <0>         0.0847
     38 H10         1.8456    1.5909   -4.3694 H         1 <0>         0.0806
     39 H11         2.4404    0.5620   -6.6096 H         1 <0>         0.0760
     40 H12         3.4659    0.0197   -5.2562 H         1 <0>         0.0677
     41 H13         0.9777   -1.4872   -6.1825 H         1 <0>         0.0689
     42 H14         2.6206   -1.8580   -6.7665 H         1 <0>         0.0763
     43 H15         3.3808   -2.3575   -4.5251 H         1 <0>         0.0856
     44 H16         1.8732   -3.2604   -4.7906 H         1 <0>         0.0835
     45 H17         0.2361   -0.0099    2.0625 H         1 <0>         0.4344
     46 H18         3.1371    1.9912    1.4343 H         1 <0>         0.1101
     47 H19         1.6326    2.1048    0.4898 H         1 <0>         0.1001
     48 H20         1.5613    1.9313    2.2599 H         1 <0>         0.0928
     49 H21         4.5793    0.4596    1.9696 H         1 <0>         0.4204
     50 H22         6.0917    0.8362    3.9823 H         1 <0>         0.1368
     51 H23         7.3905   -0.3218    5.7190 H         1 <0>         0.1431
     52 H24         6.9335   -2.6809    6.2382 H         1 <0>         0.1349
     53 H25         3.8412   -2.7271    3.2681 H         1 <0>         0.1459
     54 H26         6.4926   -4.4380    6.5283 H         1 <0>         0.4032
     55 H27         4.4904   -6.4235    6.6871 H         1 <0>         0.0643
     56 H28         5.6807   -6.9240    5.4620 H         1 <0>         0.0645
     57 H29         6.1947   -6.6556    7.1448 H         1 <0>         0.0820
     58 H30         0.6844   -1.3592    1.2299 H         1 <0>         0.4320
@<TRIPOS>BOND
     1    1    2 1
     2    1   31 1
     3    1   32 1
     4    1   33 1
     5    2    3 1
     6    2    4 1
     7    2   14 1
     8    4    9 ar
     9    4    5 ar
    10    5    6 ar
    11    5   34 1
    12    6    7 ar
    13    6   35 1
    14    7   13 1
    15    7    8 ar
    16    8    9 ar
    17    8   10 1
    18    9   36 1
    19   10   11 1
    20   10   37 1
    21   10   38 1
    22   11   12 1
    23   11   39 1
    24   11   40 1
    25   12   13 1
    26   12   41 1
    27   12   42 1
    28   13   43 1
    29   13   44 1
    30   14   15 1
    31   14   45 1
    32   14   58 1
    33   15   16 1
    34   15   17 1
    35   15   18 1
    36   17   46 1
    37   17   47 1
    38   17   48 1
    39   18   19 2
    40   18   20 am
    41   20   21 1
    42   20   49 1
    43   21   26 ar
    44   21   22 ar
    45   22   23 ar
    46   22   50 1
    47   23   24 ar
    48   23   51 1
    49   24   25 ar
    50   24   52 1
    51   25   26 ar
    52   25   27 1
    53   26   53 1
    54   27   28 2
    55   27   29 am
    56   29   30 1
    57   29   54 1
    58   30   55 1
    59   30   56 1
    60   30   57 1
@<TRIPOS>MOLECULE
ZINC55098947
   49    52     0     0     0
SMALL
USER_CHARGES

@<TRIPOS>ATOM
      1 C1         -0.0079    1.3895    0.0347 C.ar      1 <0>        -0.1194
      2 C2          1.1810    2.1001    0.0229 C.ar      1 <0>        -0.0961
      3 C3          2.3924    1.4364   -0.0010 C.ar      1 <0>        -0.1177
      4 C4          2.4255    0.0499   -0.0128 C.ar      1 <0>         0.1406
      5 C5          1.2228   -0.6742   -0.0004 C.ar      1 <0>        -0.0778
      6 C6          0.0050    0.0111    0.0232 C.ar      1 <0>        -0.0908
      7 C7          1.2443   -2.1456   -0.0132 C.2       1 <0>        -0.0715
      8 C8          0.0897   -2.8351   -0.0012 C.2       1 <0>        -0.1073
      9 C9          0.1112   -4.3063   -0.0141 C.ar      1 <0>         0.1819
     10 C10        -1.1063   -5.0134   -0.0071 C.ar      1 <0>        -0.1561
     11 C11        -1.0982   -6.3748   -0.0194 C.ar      1 <0>        -0.0537
     12 C12         0.1470   -7.0370   -0.0388 C.ar      1 <0>        -0.0919
     13 C13         0.2247   -8.4382   -0.0527 C.ar      1 <0>        -0.0992
     14 C14         1.4428   -9.0482   -0.0718 C.ar      1 <0>        -0.1010
     15 C15         2.6176   -8.3013   -0.0773 C.ar      1 <0>        -0.1244
     16 C16         2.5825   -6.9360   -0.0638 C.ar      1 <0>         0.1252
     17 C17         1.3381   -6.2697   -0.0449 C.ar      1 <0>         0.1095
     18 N1          1.2738   -4.9366   -0.0373 N.ar      1 <0>        -0.4641
     19 O1          3.7389   -6.2230   -0.0685 O.3       1 <0>        -0.4835
     20 N2          3.6484   -0.6222   -0.0374 N.am      1 <0>        -0.6538
     21 C18         4.6903   -0.1008   -0.7148 C.2       1 <0>         0.5164
     22 O2          4.5908    0.9906   -1.2344 O.2       1 <0>        -0.5120
     23 C19         5.9790   -0.8740   -0.8268 C.3       1 <0>        -0.1330
     24 H1          5.8027   -1.8337   -1.3127 H         1 <0>         0.1439
     25 C20         6.6001   -1.0873    0.5727 C.3       1 <0>        -0.1440
     26 C21         8.1157   -0.8993    0.3115 C.3       1 <0>        -0.0008
     27 N3          8.1544    0.1958   -0.6913 N.4       1 <0>        -0.5171
     28 C22         7.0237   -0.0606   -1.6132 C.3       1 <0>         0.0004
     29 H2         -0.9495    1.9180    0.0576 H         1 <0>         0.1319
     30 H3          1.1609    3.1799    0.0320 H         1 <0>         0.1311
     31 H4          3.3149    1.9979   -0.0108 H         1 <0>         0.1385
     32 H5         -0.9247   -0.5385    0.0329 H         1 <0>         0.1348
     33 H6          2.1873   -2.6718   -0.0322 H         1 <0>         0.1296
     34 H7         -0.8533   -2.3090    0.0178 H         1 <0>         0.1371
     35 H8         -2.0438   -4.4775    0.0082 H         1 <0>         0.1431
     36 H9         -2.0223   -6.9338   -0.0139 H         1 <0>         0.1464
     37 H10        -0.6781   -9.0310   -0.0480 H         1 <0>         0.1368
     38 H11         1.4978  -10.1268   -0.0824 H         1 <0>         0.1362
     39 H12         3.5707   -8.8088   -0.0921 H         1 <0>         0.1380
     40 H13         4.0648   -6.0081   -0.9532 H         1 <0>         0.3866
     41 H14         3.7484   -1.4645    0.4332 H         1 <0>         0.4165
     42 H15         6.2340   -0.3388    1.2754 H         1 <0>         0.1042
     43 H16         6.3935   -2.0936    0.9371 H         1 <0>         0.1300
     44 H17         8.6296   -0.6021    1.2257 H         1 <0>         0.1432
     45 H18         8.5516   -1.8108   -0.0973 H         1 <0>         0.1419
     46 H19         8.0376    1.0887   -0.2361 H         1 <0>         0.4344
     47 H20         7.3678   -0.6326   -2.4749 H         1 <0>         0.1440
     48 H21         6.5892    0.8839   -1.9406 H         1 <0>         0.1556
     49 H22         9.0269    0.1733   -1.1975 H         1 <0>         0.4371
@<TRIPOS>BOND
     1    1    6 ar
     2    1    2 ar
     3    1   29 1
     4    2    3 ar
     5    2   30 1
     6    3    4 ar
     7    3   31 1
     8    4    5 ar
     9    4   20 1
    10    5    6 ar
    11    5    7 1
    12    6   32 1
    13    7    8 2
    14    7   33 1
    15    8    9 1
    16    8   34 1
    17    9   18 ar
    18    9   10 ar
    19   10   11 ar
    20   10   35 1
    21   11   12 ar
    22   11   36 1
    23   12   17 ar
    24   12   13 ar
    25   13   14 ar
    26   13   37 1
    27   14   15 ar
    28   14   38 1
    29   15   16 ar
    30   15   39 1
    31   16   17 ar
    32   16   19 1
    33   17   18 ar
    34   19   40 1
    35   20   21 am
    36   20   41 1
    37   21   22 2
    38   21   23 1
    39   23   24 1
    40   23   28 1
    41   23   25 1
    42   25   26 1
    43   25   42 1
    44   25   43 1
    45   26   27 1
    46   26   44 1
    47   26   45 1
    48   27   28 1
    49   27   46 1
    50   27   49 1
    51   28   47 1
    52   28   48 1
@<TRIPOS>MOLECULE
ZINC66244676
   44    45     0     0     0
SMALL
USER_CHARGES

@<TRIPOS>ATOM
      1 C1          0.5323    1.0602   -0.1131 C.2       1 <0>        -0.1183
      2 C2          0.4781   -0.2484   -0.1361 C.2       1 <0>        -0.2131
      3 C3         -0.8543   -0.9488   -0.0644 C.3       1 <0>         0.1204
      4 N1         -0.9922   -1.8542   -1.2079 N.pl3     1 <0>        -0.6548
      5 C4         -2.0746   -2.5667   -1.3481 C.cat     1 <0>         0.7317
      6 N2         -3.0868   -2.4687   -0.4229 N.pl3     1 <0>        -0.8117
      7 N3         -2.2040   -3.4164   -2.4212 N.pl3     1 <0>        -0.6916
      8 C5         -3.4206   -4.2173   -2.5788 C.3       1 <0>         0.0856
      9 C6         -3.3633   -4.9760   -3.9061 C.3       1 <0>        -0.0207
     10 C7         -2.2276   -6.0029   -3.8608 C.3       1 <0>        -0.1542
     11 C8         -2.5222   -7.0299   -2.7643 C.3       1 <0>         0.0579
     12 O1         -3.7832   -7.6511   -3.0217 O.3       1 <0>        -0.3694
     13 C9         -4.8889   -6.7459   -3.0288 C.3       1 <0>         0.0570
     14 C10        -4.6894   -5.7075   -4.1359 C.3       1 <0>        -0.1577
     15 C11        -3.1219   -4.0041   -5.0323 C.ar      1 <0>        -0.0824
     16 C12        -2.0023   -4.1375   -5.8322 C.ar      1 <0>        -0.0972
     17 C13        -1.7803   -3.2467   -6.8651 C.ar      1 <0>        -0.0955
     18 C14        -2.6789   -2.2208   -7.0996 C.ar      1 <0>        -0.0201
     19 C15        -3.7994   -2.0871   -6.2999 C.ar      1 <0>        -0.0953
     20 C16        -4.0237   -2.9821   -5.2690 C.ar      1 <0>        -0.0211
     21 Cl1        -5.4330   -2.8187   -4.2686 Cl        1 <0>        -0.0440
     22 Cl2        -2.3995   -1.1015   -8.3968 Cl        1 <0>        -0.0374
     23 H1          1.4872    1.5622   -0.1644 H         1 <0>         0.1190
     24 H2         -0.3782    1.6373   -0.0472 H         1 <0>         0.1075
     25 H3          1.3884   -0.8254   -0.2065 H         1 <0>         0.1293
     26 H4         -0.9147   -1.5210    0.8614 H         1 <0>         0.1059
     27 H5         -1.6550   -0.2096   -0.0876 H         1 <0>         0.1003
     28 H6         -2.9955   -1.8692    0.3342 H         1 <0>         0.4366
     29 H7         -3.8923   -2.9990   -0.5272 H         1 <0>         0.4351
     30 H8         -1.4899   -3.4856   -3.0739 H         1 <0>         0.4317
     31 H9         -3.4962   -4.9288   -1.7565 H         1 <0>         0.0998
     32 H10        -4.2909   -3.5611   -2.5726 H         1 <0>         0.1049
     33 H11        -2.1552   -6.5087   -4.8236 H         1 <0>         0.0964
     34 H12        -1.2873   -5.4967   -3.6425 H         1 <0>         0.0764
     35 H13        -1.7387   -7.7876   -2.7560 H         1 <0>         0.1051
     36 H14        -2.5544   -6.5294   -1.7966 H         1 <0>         0.0489
     37 H15        -5.8103   -7.2990   -3.2110 H         1 <0>         0.1078
     38 H16        -4.9521   -6.2416   -2.0646 H         1 <0>         0.0506
     39 H17        -5.5096   -4.9899   -4.1144 H         1 <0>         0.0964
     40 H18        -4.6666   -6.2072   -5.1043 H         1 <0>         0.0932
     41 H19        -1.3007   -4.9380   -5.6496 H         1 <0>         0.1508
     42 H20        -0.9051   -3.3509   -7.4893 H         1 <0>         0.1482
     43 H21        -4.5010   -1.2866   -6.4825 H         1 <0>         0.1500
     44 H22        -0.2781   -1.9234   -1.8606 H         1 <0>         0.4381
@<TRIPOS>BOND
     1    1    2 2
     2    1   23 1
     3    1   24 1
     4    2    3 1
     5    2   25 1
     6    3    4 1
     7    3   26 1
     8    3   27 1
     9    4    5 2
    10    4   44 1
    11    5    6 1
    12    5    7 1
    13    6   28 1
    14    6   29 1
    15    7    8 1
    16    7   30 1
    17    8    9 1
    18    8   31 1
    19    8   32 1
    20    9   14 1
    21    9   10 1
    22    9   15 1
    23   10   11 1
    24   10   33 1
    25   10   34 1
    26   11   12 1
    27   11   35 1
    28   11   36 1
    29   12   13 1
    30   13   14 1
    31   13   37 1
    32   13   38 1
    33   14   39 1
    34   14   40 1
    35   15   20 ar
    36   15   16 ar
    37   16   17 ar
    38   16   41 1
    39   17   18 ar
    40   17   42 1
    41   18   19 ar
    42   18   22 1
    43   19   20 ar
    44   19   43 1
    45   20   21 1
@<TRIPOS>MOLECULE
ZINC22048213
   14    15     0     0     0
SMALL
USER_CHARGES
5-amino-2-chloro-6H-thiazolo[5,4-e]pyrimidin-7-one
@<TRIPOS>ATOM
      1 C1         -3.5455    2.9406    0.0348 C.ar      1 <0>        -0.3859
      2 C2         -2.3676    3.6759    0.0341 C.ar      1 <0>         0.5608
      3 O1         -2.3896    4.8956    0.0404 O.3       1 <0>        -0.6027
      4 N1         -1.1924    3.0000    0.0296 N.ar      1 <0>        -0.6835
      5 C3         -1.2095    1.6362    0.0167 C.ar      1 <0>         0.6107
      6 N2         -2.3141    0.9386    0.0181 N.ar      1 <0>        -0.6431
      7 C4         -3.5403    1.5332    0.0272 C.ar      1 <0>         0.3708
      8 N3         -4.7494    0.9683    0.0294 N.2       1 <0>        -0.5106
      9 C5         -5.8566    1.6704    0.0381 C.2       1 <0>         0.1343
     10 S1         -5.2803    3.3092    0.0445 S.3       1 <0>         0.1232
     11 Cl1        -7.4968    1.1016    0.0417 Cl        1 <0>         0.0371
     12 N4         -0.0111    0.9658    0.0074 N.pl3     1 <0>        -0.8529
     13 H1          0.0038   -0.1341   -0.0031 H         1 <0>         0.4179
     14 H2          0.9340    1.5286    0.0104 H         1 <0>         0.4239
@<TRIPOS>BOND
     1    1    7 ar
     2    1   10 1
     3    1    2 ar
     4    2    3 1
     5    2    4 ar
     6    4    5 ar
     7    5    6 ar
     8    5   12 1
     9    6    7 ar
    10    7    8 1
    11    8    9 2
    12    9   10 1
    13    9   11 1
    14   12   13 1
    15   12   14 1
@<TRIPOS>MOLECULE
ZINC08828690
   25    26     0     0     0
SMALL
USER_CHARGES

@<TRIPOS>ATOM
      1 C1         -0.0184    1.5028    0.0103 C.3       1 <0>        -0.1073
      2 C2          0.0021   -0.0041    0.0020 C.ar      1 <0>        -0.0990
      3 C3          0.0057   -0.6888   -1.1991 C.ar      1 <0>        -0.1343
      4 C4          0.0245   -2.0707   -1.2067 C.ar      1 <0>        -0.1214
      5 C5          0.0400   -2.7685   -0.0132 C.ar      1 <0>        -0.0913
      6 C6          0.0373   -2.0840    1.1875 C.ar      1 <0>        -0.0430
      7 C7          0.0229   -0.7015    1.1951 C.ar      1 <0>        -0.1270
      8 C8          0.0538   -2.8445    2.4885 C.3       1 <0>         0.1062
      9 H1         -0.3145   -2.1985    3.2854 H         1 <0>         0.0836
     10 C9          1.4565   -3.2565    2.7988 C.2       1 <0>         0.4519
     11 N1          1.6639   -4.5189    2.9120 N.2       1 <0>        -0.9736
     12 S1          0.2122   -5.2959    2.6582 S.o2      1 <0>         2.5583
     13 O1          0.3286   -6.0259    1.4446 O.2       1 <0>        -1.0480
     14 O2         -0.1706   -5.8921    3.8900 O.2       1 <0>        -1.0485
     15 N2         -0.8253   -4.0196    2.3731 N.2       1 <0>        -1.0559
     16 N3          2.4633   -2.3403    2.9532 N.pl3     1 <0>        -0.8187
     17 H2          1.0042    1.8801    0.0026 H         1 <0>         0.0633
     18 H3         -0.5455    1.8639   -0.8728 H         1 <0>         0.0599
     19 H4         -0.5286    1.8543    0.9071 H         1 <0>         0.0621
     20 H5         -0.0064   -0.1437   -2.1314 H         1 <0>         0.1120
     21 H6          0.0266   -2.6056   -2.1449 H         1 <0>         0.1157
     22 H7          0.0540   -3.8484   -0.0191 H         1 <0>         0.1303
     23 H8          0.0246   -0.1666    2.1333 H         1 <0>         0.1165
     24 H9          2.2754   -1.3931    2.8614 H         1 <0>         0.4036
     25 H10         3.3640   -2.6387    3.1544 H         1 <0>         0.4047
@<TRIPOS>BOND
     1    1    2 1
     2    1   17 1
     3    1   18 1
     4    1   19 1
     5    2    7 ar
     6    2    3 ar
     7    3    4 ar
     8    3   20 1
     9    4    5 ar
    10    4   21 1
    11    5    6 ar
    12    5   22 1
    13    6    7 ar
    14    6    8 1
    15    7   23 1
    16    8    9 1
    17    8   15 1
    18    8   10 1
    19   10   11 2
    20   10   16 1
    21   11   12 1
    22   12   13 2
    23   12   14 2
    24   12   15 1
    25   16   24 1
    26   16   25 1
@<TRIPOS>MOLECULE
ZINC40521964
   28    28     0     0     0
SMALL
USER_CHARGES

@<TRIPOS>ATOM
      1 C1         -3.1785    4.0984   -2.0919 C.1       1 <0>        -0.1782
      2 C2         -2.2539    3.7198   -1.4752 C.1       1 <0>        -0.1446
      3 C3         -1.1262    3.2581   -0.7231 C.ar      1 <0>         0.0264
      4 C4         -1.2162    2.0815    0.0225 C.ar      1 <0>        -0.1198
      5 C5         -0.1281    1.6386    0.7466 C.ar      1 <0>        -0.0990
      6 C6          1.0531    2.3568    0.7366 C.ar      1 <0>        -0.1435
      7 C7          1.1525    3.5291   -0.0025 C.ar      1 <0>         0.1774
      8 C8          0.0668    3.9792   -0.7377 C.ar      1 <0>        -0.0973
      9 N1          2.3507    4.2526   -0.0093 N.am      1 <0>        -0.6919
     10 C9          2.3256    5.5968   -0.1036 C.2       1 <0>         0.6961
     11 O1          1.2632    6.1878   -0.0854 O.2       1 <0>        -0.5700
     12 N2          3.4783    6.2859   -0.2181 N.am      1 <0>        -0.7362
     13 C10         3.4510    7.7471   -0.3206 C.3       1 <0>         0.1567
     14 C11         4.8815    8.2767   -0.4396 C.3       1 <0>        -0.1954
     15 C12         4.8535    9.7797   -0.5450 C.2       1 <0>         0.4957
     16 O2          3.7882   10.3724   -0.5267 O.co2     1 <0>        -0.6915
     17 O3          5.8962   10.4031   -0.6486 O.co2     1 <0>        -0.7006
     18 H1         -4.0053    4.4370   -2.6434 H         1 <0>         0.2242
     19 H2         -2.1374    1.5179    0.0331 H         1 <0>         0.1250
     20 H3         -0.1997    0.7282    1.3231 H         1 <0>         0.1300
     21 H4          1.9014    2.0055    1.3054 H         1 <0>         0.1277
     22 H5          0.1435    4.8878   -1.3164 H         1 <0>         0.1424
     23 H6          3.1990    3.7865    0.0538 H         1 <0>         0.4063
     24 H7          4.3258    5.8144   -0.2327 H         1 <0>         0.3929
     25 H8          2.8811    8.0389   -1.2027 H         1 <0>         0.0697
     26 H9          2.9817    8.1651    0.5699 H         1 <0>         0.0697
     27 H10         5.4515    7.9849    0.4425 H         1 <0>         0.0638
     28 H11         5.3509    7.8587   -1.3301 H         1 <0>         0.0639
@<TRIPOS>BOND
     1    1    2 3
     2    1   18 1
     3    2    3 1
     4    3    8 ar
     5    3    4 ar
     6    4    5 ar
     7    4   19 1
     8    5    6 ar
     9    5   20 1
    10    6    7 ar
    11    6   21 1
    12    7    8 ar
    13    7    9 1
    14    8   22 1
    15    9   10 am
    16    9   23 1
    17   10   11 2
    18   10   12 am
    19   12   13 1
    20   12   24 1
    21   13   14 1
    22   13   25 1
    23   13   26 1
    24   14   15 1
    25   14   27 1
    26   14   28 1
    27   15   16 2
    28   15   17 1
@<TRIPOS>MOLECULE
ZINC49594589
   22    22     0     0     0
SMALL
USER_CHARGES

@<TRIPOS>ATOM
      1 C1         -0.0169    1.3953    0.0097 C.ar      1 <0>        -0.1395
      2 C2          1.1648    2.1004    0.0022 C.ar      1 <0>        -0.0542
      3 C3          2.3851    1.4207   -0.0136 C.ar      1 <0>        -0.2048
      4 C4          2.4071    0.0216   -0.0213 C.ar      1 <0>         0.1682
      5 C5          1.2224   -0.6862   -0.0133 C.ar      1 <0>        -0.1745
      6 C6          0.0021   -0.0041    0.0020 C.ar      1 <0>         0.0334
      7 C7         -1.2625   -0.7576    0.0106 C.2       1 <0>        -0.1433
      8 C8         -1.2440   -2.1076    0.0031 C.2       1 <0>        -0.1391
      9 C9         -2.4993   -2.8556    0.0116 C.2       1 <0>         0.5017
     10 O1         -3.5681   -2.2579    0.0254 O.co2     1 <0>        -0.6857
     11 O2         -2.4825   -4.0801    0.0049 O.co2     1 <0>        -0.6880
     12 F1          3.5872   -0.6358   -0.0370 F         1 <0>        -0.1182
     13 C10         3.6533    2.1794   -0.0226 C.2       1 <0>         0.5667
     14 O3          4.7152    1.5881   -0.0363 O.2       1 <0>        -0.5335
     15 N1          3.6323    3.5270   -0.0156 N.am      1 <0>        -0.8529
     16 H1         -0.9596    1.9221    0.0261 H         1 <0>         0.1391
     17 H2          1.1488    3.1802    0.0082 H         1 <0>         0.1329
     18 H3          1.2380   -1.7661   -0.0197 H         1 <0>         0.1468
     19 H4         -2.2051   -0.2305    0.0228 H         1 <0>         0.1365
     20 H5         -0.3014   -2.6347   -0.0091 H         1 <0>         0.1042
     21 H6          2.7849    3.9988   -0.0046 H         1 <0>         0.4002
     22 H7          4.4647    4.0250   -0.0215 H         1 <0>         0.4038
@<TRIPOS>BOND
     1    1    6 ar
     2    1    2 ar
     3    1   16 1
     4    2    3 ar
     5    2   17 1
     6    3    4 ar
     7    3   13 1
     8    4    5 ar
     9    4   12 1
    10    5    6 ar
    11    5   18 1
    12    6    7 1
    13    7    8 2
    14    7   19 1
    15    8    9 1
    16    8   20 1
    17    9   10 2
    18    9   11 1
    19   13   14 2
    20   13   15 am
    21   15   21 1
    22   15   22 1
@<TRIPOS>MOLECULE
ZINC65347142
   27    28     0     0     0
SMALL
USER_CHARGES

@<TRIPOS>ATOM
      1 C1         -0.0184    1.5028    0.0103 C.3       1 <0>        -0.0778
      2 C2          0.0021   -0.0041    0.0020 C.2       1 <0>         0.1354
      3 C3          0.0081   -0.8308   -1.1487 C.2       1 <0>        -0.1439
      4 C4          0.0276   -2.1246   -0.7283 C.2       1 <0>         0.0740
      5 O1          0.0336   -2.1204    0.6122 O.3       1 <0>        -0.0881
      6 N1          0.0229   -0.7744    1.0500 N.2       1 <0>        -0.3390
      7 C5          0.0394   -3.3452   -1.6122 C.3       1 <0>        -0.0739
      8 C6         -0.0045   -0.3694   -2.5563 C.ar      1 <0>        -0.1045
      9 C7          1.1892   -0.1380   -3.2367 C.ar      1 <0>         0.1417
     10 N2          1.1842    0.2720   -4.4874 N.ar      1 <0>        -0.5497
     11 C8          0.0605    0.4827   -5.1554 C.ar      1 <0>         0.3833
     12 C9         -1.1771    0.2781   -4.5577 C.ar      1 <0>        -0.2017
     13 C10        -1.2258   -0.1624   -3.2326 C.ar      1 <0>        -0.0381
     14 C11        -2.5167   -0.3987   -2.5581 C.2       1 <0>         0.5169
     15 O2         -3.5645   -0.2137   -3.1609 O.co2     1 <0>        -0.6839
     16 O3         -2.5388   -0.7795   -1.3962 O.co2     1 <0>        -0.6595
     17 N3          0.1199    0.9161   -6.4760 N.pl3     1 <0>        -0.8603
     18 H1          1.0042    1.8801    0.0026 H         1 <0>         0.0800
     19 H2         -0.5455    1.8639   -0.8728 H         1 <0>         0.0818
     20 H3         -0.5286    1.8543    0.9071 H         1 <0>         0.0760
     21 H4          1.0698   -3.6257   -1.8306 H         1 <0>         0.0819
     22 H5         -0.4609   -4.1682   -1.1019 H         1 <0>         0.0793
     23 H6         -0.4822   -3.1244   -2.5435 H         1 <0>         0.0871
     24 H7          2.1303   -0.2968   -2.7313 H         1 <0>         0.1481
     25 H8         -2.0882    0.4531   -5.1107 H         1 <0>         0.1337
     26 H9          0.9798    1.0616   -6.9005 H         1 <0>         0.3967
     27 H10        -0.6987    1.0728   -6.9723 H         1 <0>         0.4047
@<TRIPOS>BOND
     1    1    2 1
     2    1   18 1
     3    1   19 1
     4    1   20 1
     5    2    6 2
     6    2    3 1
     7    3    4 2
     8    3    8 1
     9    4    5 1
    10    4    7 1
    11    5    6 1
    12    7   21 1
    13    7   22 1
    14    7   23 1
    15    8   13 ar
    16    8    9 ar
    17    9   10 ar
    18    9   24 1
    19   10   11 ar
    20   11   12 ar
    21   11   17 1
    22   12   13 ar
    23   12   25 1
    24   13   14 1
    25   14   15 2
    26   14   16 1
    27   17   26 1
    28   17   27 1
@<TRIPOS>MOLECULE
ZINC21506022
   23    24     0     0     0
SMALL
USER_CHARGES
5-amino-2,4-difluoro-N-(1,3,4-thiadiazol-2-yl)benzenesulfonamide
@<TRIPOS>ATOM
      1 C1         -1.0743    2.4977    0.1676 C.ar      1 <0>        -0.0363
      2 C2         -1.0087    3.8834    0.2118 C.ar      1 <0>         0.1701
      3 C3          0.2236    4.5219    0.1269 C.ar      1 <0>         0.0706
      4 C4          1.3806    3.7744    0.0044 C.ar      1 <0>        -0.1671
      5 C5          1.3116    2.3920   -0.0336 C.ar      1 <0>         0.1551
      6 C6          0.0851    1.7552    0.0508 C.ar      1 <0>        -0.6512
      7 S1          0.0020   -0.0042    0.0020 S.o2      1 <0>         2.6272
      8 O1          0.9533   -0.4820    0.9433 O.2       1 <0>        -0.9694
      9 O2         -1.3752   -0.3477    0.0694 O.2       1 <0>        -0.9984
     10 N1          0.5355   -0.4783   -1.4923 N.2       1 <0>        -0.9729
     11 C7         -0.1705   -0.1129   -2.6288 C.2       1 <0>         0.4101
     12 N2         -1.2299    0.6745   -2.7592 N.2       1 <0>        -0.4209
     13 N3         -1.7540    0.9031   -3.8834 N.2       1 <0>        -0.2372
     14 C8         -1.2853    0.3770   -4.9967 C.2       1 <0>        -0.0533
     15 S2          0.0913   -0.5625   -4.3422 S.3       1 <0>        -0.1339
     16 F1          2.4430    1.6633   -0.1529 F         1 <0>        -0.1191
     17 F2          0.2905    5.8707    0.1636 F         1 <0>        -0.1384
     18 N4         -2.1819    4.6372    0.3354 N.pl3     1 <0>        -0.8942
     19 H1         -2.0307    1.9999    0.2289 H         1 <0>         0.1554
     20 H2          2.3384    4.2690   -0.0612 H         1 <0>         0.1469
     21 H3         -1.6302    0.4853   -6.0143 H         1 <0>         0.2148
     22 H4         -2.1289    5.7354    0.3703 H         1 <0>         0.4174
     23 H5         -3.1567    4.1313    0.3976 H         1 <0>         0.4247
@<TRIPOS>BOND
     1    1    6 ar
     2    1    2 ar
     3    1   19 1
     4    2    3 ar
     5    2   18 1
     6    3    4 ar
     7    3   17 1
     8    4    5 ar
     9    4   20 1
    10    5    6 ar
    11    5   16 1
    12    6    7 1
    13    7    8 2
    14    7    9 2
    15    7   10 1
    16   10   11 1
    17   11   15 1
    18   11   12 2
    19   12   13 1
    20   13   14 2
    21   14   15 1
    22   14   21 1
    23   18   22 1
    24   18   23 1
@<TRIPOS>MOLECULE
ZINC42440799
   35    36     0     0     0
SMALL
USER_CHARGES

@<TRIPOS>ATOM
      1 C1         -0.7780    0.9185    0.3278 C.3       1 <0>        -0.1647
      2 C2         -0.1984   -0.4553   -0.0150 C.3       1 <0>         0.1368
      3 H1          0.4723   -0.3661   -0.8695 H         1 <0>         0.1038
      4 C3         -1.3367   -1.4228   -0.3544 C.3       1 <0>        -0.1283
      5 C4         -2.1972   -1.6487    0.8909 C.3       1 <0>        -0.1005
      6 C5         -1.3438   -2.2756    1.9958 C.3       1 <0>        -0.1231
      7 H2         -0.9264   -3.2184    1.6424 H         1 <0>         0.1044
      8 C6         -0.2056   -1.3178    2.3619 C.3       1 <0>         0.1045
      9 N1          0.5428   -0.9795    1.1403 N.am      1 <0>        -0.6044
     10 C7          1.8786   -1.1487    1.0798 C.2       1 <0>         0.6180
     11 O1          2.4657   -0.9813    0.0281 O.2       1 <0>        -0.5334
     12 C8          2.6273   -1.5366    2.2877 C.2       1 <0>        -0.2807
     13 C9          3.8829   -2.1188    2.3852 C.2       1 <0>        -0.0568
     14 C10         4.3848   -2.3935    3.6250 C.2       1 <0>        -0.1796
     15 C11         3.6179   -2.0790    4.7396 C.2       1 <0>        -0.1253
     16 S1          2.1548   -1.3708    4.0013 S.3       1 <0>         0.1046
     17 C12         3.9319   -2.2739    6.1598 C.2       1 <0>         0.5514
     18 O2          4.9984   -2.7774    6.4872 O.co2     1 <0>        -0.6574
     19 O3          3.1274   -1.9330    7.0168 O.co2     1 <0>        -0.6664
     20 C13        -2.1997   -2.5281    3.2102 C.2       1 <0>         0.5271
     21 O4         -3.3766   -2.2357    3.1941 O.2       1 <0>        -0.5436
     22 N2         -1.6573   -3.0790    4.3142 N.am      1 <0>        -0.8503
     23 H3          0.0331    1.6039    0.5739 H         1 <0>         0.0599
     24 H4         -1.3316    1.3033   -0.5286 H         1 <0>         0.0692
     25 H5         -1.4483    0.8271    1.1825 H         1 <0>         0.0624
     26 H6         -1.9505   -0.9979   -1.1486 H         1 <0>         0.0811
     27 H7         -0.9194   -2.3737   -0.6857 H         1 <0>         0.0693
     28 H8         -2.5941   -0.6940    1.2361 H         1 <0>         0.0767
     29 H9         -3.0222   -2.3174    0.6457 H         1 <0>         0.0750
     30 H10        -0.6191   -0.4094    2.7999 H         1 <0>         0.0810
     31 H11         0.4617   -1.7996    3.0765 H         1 <0>         0.1012
     32 H12         4.4524   -2.3506    1.4973 H         1 <0>         0.1353
     33 H13         5.3587   -2.8468    3.7368 H         1 <0>         0.1425
     34 H14        -0.7160   -3.3129    4.3271 H         1 <0>         0.4060
     35 H15        -2.2082   -3.2416    5.0958 H         1 <0>         0.4041
@<TRIPOS>BOND
     1    1    2 1
     2    1   23 1
     3    1   24 1
     4    1   25 1
     5    2    3 1
     6    2    9 1
     7    2    4 1
     8    4    5 1
     9    4   26 1
    10    4   27 1
    11    5    6 1
    12    5   28 1
    13    5   29 1
    14    6    7 1
    15    6    8 1
    16    6   20 1
    17    8    9 1
    18    8   30 1
    19    8   31 1
    20    9   10 am
    21   10   11 2
    22   10   12 1
    23   12   16 1
    24   12   13 2
    25   13   14 1
    26   13   32 1
    27   14   15 2
    28   14   33 1
    29   15   16 1
    30   15   17 1
    31   17   18 2
    32   17   19 1
    33   20   21 2
    34   20   22 am
    35   22   34 1
    36   22   35 1
@<TRIPOS>MOLECULE
ZINC50197277
   41    41     0     0     0
SMALL
USER_CHARGES

@<TRIPOS>ATOM
      1 C1         -0.0187    1.5258    0.0104 C.3       1 <0>        -0.1701
      2 C2          0.0021   -0.0041    0.0020 C.3       1 <0>         0.2031
      3 C3          0.6316   -0.4780   -1.3071 C.3       1 <0>        -0.1398
      4 C4          2.1687   -0.6368   -1.1396 C.3       1 <0>        -0.5603
      5 S1          2.2200   -1.3581    0.5597 S.o2      1 <0>         2.3651
      6 O1          3.3895   -0.9022    1.2258 O.2       1 <0>        -0.9384
      7 O2          1.9522   -2.7516    0.4841 O.2       1 <0>        -0.9286
      8 C5          0.7507   -0.4947    1.2566 C.3       1 <0>        -0.5857
      9 N1         -1.3784   -0.4911    0.0586 N.am      1 <0>        -0.7457
     10 C6         -2.2541   -0.1482   -0.9068 C.2       1 <0>         0.7074
     11 O3         -1.8984    0.5653   -1.8247 O.2       1 <0>        -0.5825
     12 N2         -3.5241   -0.5963   -0.8547 N.am      1 <0>        -0.7319
     13 C7         -4.4760   -0.2236   -1.9042 C.3       1 <0>         0.1852
     14 C8         -4.6225    1.2989   -1.9425 C.3       1 <0>        -0.1604
     15 C9         -3.9638   -0.7209   -3.2574 C.3       1 <0>        -0.1611
     16 C10        -5.8358   -0.8595   -1.6086 C.3       1 <0>        -0.0922
     17 C11        -6.8299   -0.4702   -2.7045 C.3       1 <0>        -0.1796
     18 C12        -8.1693   -1.0966   -2.4134 C.2       1 <0>         0.4888
     19 O4         -8.3153   -1.7901   -1.4213 O.co2     1 <0>        -0.7005
     20 O5         -9.1070   -0.9099   -3.1699 O.co2     1 <0>        -0.7062
     21 H1          1.0039    1.9031    0.0027 H         1 <0>         0.0646
     22 H2         -0.5459    1.8868   -0.8726 H         1 <0>         0.0943
     23 H3         -0.5289    1.8773    0.9072 H         1 <0>         0.0622
     24 H4          0.1985   -1.4378   -1.5889 H         1 <0>         0.0914
     25 H5          0.4277    0.2521   -2.0904 H         1 <0>         0.1199
     26 H6          2.5796   -1.3267   -1.8767 H         1 <0>         0.1426
     27 H7          2.6742    0.3282   -1.1770 H         1 <0>         0.1398
     28 H8          1.0576    0.3483    1.8757 H         1 <0>         0.1510
     29 H9          0.1322   -1.1875    1.8273 H         1 <0>         0.1456
     30 H10        -1.6622   -1.0604    0.7909 H         1 <0>         0.3980
     31 H11        -3.8080   -1.1656   -0.1224 H         1 <0>         0.3953
     32 H12        -3.6537    1.7519   -2.1531 H         1 <0>         0.0726
     33 H13        -5.3307    1.5762   -2.7233 H         1 <0>         0.0667
     34 H14        -4.9874    1.6532   -0.9784 H         1 <0>         0.0487
     35 H15        -3.8594   -1.8056   -3.2301 H         1 <0>         0.0494
     36 H16        -4.6720   -0.4436   -4.0382 H         1 <0>         0.0668
     37 H17        -2.9950   -0.2679   -3.4680 H         1 <0>         0.0728
     38 H18        -5.7315   -1.9442   -1.5812 H         1 <0>         0.0645
     39 H19        -6.2008   -0.5052   -0.6445 H         1 <0>         0.0641
     40 H20        -6.9343    0.6144   -2.7318 H         1 <0>         0.0616
     41 H21        -6.4650   -0.8245   -3.6686 H         1 <0>         0.0618
@<TRIPOS>BOND
     1    1    2 1
     2    1   21 1
     3    1   22 1
     4    1   23 1
     5    2    8 1
     6    2    3 1
     7    2    9 1
     8    3    4 1
     9    3   24 1
    10    3   25 1
    11    4    5 1
    12    4   26 1
    13    4   27 1
    14    5    6 2
    15    5    7 2
    16    5    8 1
    17    8   28 1
    18    8   29 1
    19    9   10 am
    20    9   30 1
    21   10   11 2
    22   10   12 am
    23   12   13 1
    24   12   31 1
    25   13   14 1
    26   13   15 1
    27   13   16 1
    28   14   32 1
    29   14   33 1
    30   14   34 1
    31   15   35 1
    32   15   36 1
    33   15   37 1
    34   16   17 1
    35   16   38 1
    36   16   39 1
    37   17   18 1
    38   17   40 1
    39   17   41 1
    40   18   19 2
    41   18   20 1
@<TRIPOS>MOLECULE
ZINC39958824
   39    41     0     0     0
SMALL
USER_CHARGES

@<TRIPOS>ATOM
      1 C1         -0.0187    1.5258    0.0104 C.3       1 <0>        -0.1451
      2 C2          0.0021   -0.0041    0.0020 C.3       1 <0>        -0.1232
      3 C3         -1.4333   -0.5336    0.0129 C.3       1 <0>         0.1432
      4 H1         -1.9701   -0.1109    0.8621 H         1 <0>         0.0904
      5 C4         -1.4133   -2.0590    0.1302 C.3       1 <0>         0.0695
      6 O1         -0.6117   -2.6069   -0.9183 O.3       1 <0>        -0.5641
      7 N1         -2.1054   -0.1483   -1.2305 N.am      1 <0>        -0.7082
      8 C5         -2.6898    1.0618   -1.3336 C.2       1 <0>         0.5217
      9 O2         -2.6594    1.8317   -0.3970 O.2       1 <0>        -0.5703
     10 C6         -3.3812    1.4581   -2.6126 C.3       1 <0>         0.2089
     11 H2         -3.9546    2.3735   -2.4661 H         1 <0>         0.0638
     12 N2         -2.3989    1.6352   -3.6935 N.2       1 <0>        -0.7332
     13 C7         -2.7152    0.7139   -4.6765 C.2       1 <0>         0.2942
     14 N3         -3.7474    0.0083   -4.3408 N.2       1 <0>        -0.4860
     15 O3         -4.2363    0.3989   -3.0689 O.3       1 <0>        -0.2567
     16 C8         -1.9723    0.5562   -5.9431 C.2       1 <0>         0.0306
     17 C9         -0.8573    1.3269   -6.2791 C.2       1 <0>        -0.0878
     18 C10        -0.2009    1.1203   -7.5099 C.2       1 <0>        -0.1166
     19 C11        -0.7177    0.4504   -8.5455 C.2       1 <0>        -0.1244
     20 C12        -2.1091   -0.1109   -8.4468 C.3       1 <0>         0.0606
     21 H3         -2.8395    0.6176   -8.7988 H         1 <0>         0.1399
     22 C13        -2.3289   -0.4278   -6.9672 C.2       1 <0>        -0.0556
     23 C14        -2.8251   -1.6648   -6.9298 C.2       1 <0>        -0.1728
     24 C15        -2.7187   -2.2515   -8.2133 C.2       1 <0>         0.1403
     25 N4         -2.2931   -1.3869   -9.1270 N.2       1 <0>        -0.4866
     26 H4          1.0039    1.9031    0.0027 H         1 <0>         0.0380
     27 H5         -0.5459    1.8868   -0.8726 H         1 <0>         0.0686
     28 H6         -0.5289    1.8773    0.9072 H         1 <0>         0.0520
     29 H7          0.5123   -0.3556   -0.8948 H         1 <0>         0.0683
     30 H8          0.5293   -0.3651    0.8851 H         1 <0>         0.0566
     31 H9         -0.9936   -2.3437    1.0951 H         1 <0>         0.0539
     32 H10        -2.4301   -2.4431    0.0488 H         1 <0>         0.0509
     33 H11        -0.5540   -3.5721   -0.9058 H         1 <0>         0.3755
     34 H12        -2.1298   -0.7641   -1.9796 H         1 <0>         0.4061
     35 H13        -0.4976    2.0820   -5.5958 H         1 <0>         0.1377
     36 H14         0.7905    1.5332   -7.6247 H         1 <0>         0.1169
     37 H15        -0.1393    0.3136   -9.4473 H         1 <0>         0.1253
     38 H16        -3.2427   -2.1441   -6.0568 H         1 <0>         0.1502
     39 H17        -2.9717   -3.2788   -8.4299 H         1 <0>         0.1678
@<TRIPOS>BOND
     1    1    2 1
     2    1   26 1
     3    1   27 1
     4    1   28 1
     5    2    3 1
     6    2   29 1
     7    2   30 1
     8    3    4 1
     9    3    5 1
    10    3    7 1
    11    5    6 1
    12    5   31 1
    13    5   32 1
    14    6   33 1
    15    7    8 am
    16    7   34 1
    17    8    9 2
    18    8   10 1
    19   10   11 1
    20   10   15 1
    21   10   12 1
    22   12   13 1
    23   13   14 2
    24   13   16 1
    25   14   15 1
    26   16   22 1
    27   16   17 2
    28   17   18 1
    29   17   35 1
    30   18   19 2
    31   18   36 1
    32   19   20 1
    33   19   37 1
    34   20   21 1
    35   20   25 1
    36   20   22 1
    37   22   23 2
    38   23   24 1
    39   23   38 1
    40   24   25 2
    41   24   39 1
@<TRIPOS>MOLECULE
ZINC64426901
   38    40     0     0     0
SMALL
USER_CHARGES

@<TRIPOS>ATOM
      1 C1         -0.0184    1.5028    0.0103 C.3       1 <0>        -0.1020
      2 C2          0.0021   -0.0041    0.0020 C.ar      1 <0>        -0.1324
      3 C3          0.0057   -0.6858   -1.2028 C.ar      1 <0>        -0.1111
      4 C4          0.0244   -2.0641   -1.2193 C.ar      1 <0>        -0.1348
      5 C5          0.0401   -2.7742   -0.0132 C.ar      1 <0>         0.1580
      6 C6          0.0368   -2.0772    1.2005 C.ar      1 <0>        -0.1211
      7 C7          0.0229   -0.6988    1.1993 C.ar      1 <0>        -0.1114
      8 N1          0.0581   -4.1360   -0.0207 N.2       1 <0>        -0.5534
      9 C8          0.8793   -4.7894    0.7796 C.2       1 <0>         0.4713
     10 N2          1.7319   -4.1614    1.6431 N.2       1 <0>        -0.7128
     11 C9          2.5277   -4.8325    2.4433 C.2       1 <0>         0.6147
     12 N3          2.5935   -6.2025    2.5146 N.2       1 <0>        -0.7254
     13 C10         1.3929   -6.9541    2.1195 C.3       1 <0>         0.1509
     14 H1          0.6215   -6.9443    2.8895 H         1 <0>         0.1292
     15 C11         0.9524   -6.2568    0.8246 C.2       1 <0>         0.1319
     16 N4          0.7790   -7.2224    0.0003 N.2       1 <0>        -0.3314
     17 N5          1.2654   -8.3240    0.4478 N.2       1 <0>        -0.0348
     18 N6          1.6827   -8.3038    1.6292 N.2       1 <0>        -0.1800
     19 N7          3.3517   -4.1147    3.2657 N.pl3     1 <0>        -0.6972
     20 C12         3.3250   -2.6504    3.2325 C.3       1 <0>         0.1177
     21 C13         4.3345   -2.0989    4.2414 C.3       1 <0>         0.0880
     22 H2          5.3339   -2.4500    3.9844 H         1 <0>         0.0999
     23 C14         4.3066   -0.5696    4.2068 C.3       1 <0>        -0.1793
     24 O1          3.9931   -2.5520    5.5530 O.3       1 <0>        -0.5615
     25 H3          1.0042    1.8801    0.0026 H         1 <0>         0.0588
     26 H4         -0.5455    1.8639   -0.8728 H         1 <0>         0.0567
     27 H5         -0.5286    1.8543    0.9071 H         1 <0>         0.0566
     28 H6         -0.0065   -0.1363   -2.1325 H         1 <0>         0.1107
     29 H7          0.0265   -2.5944   -2.1601 H         1 <0>         0.1150
     30 H8          0.0485   -2.6178    2.1354 H         1 <0>         0.1201
     31 H9          0.0244   -0.1593    2.1349 H         1 <0>         0.1069
     32 H10         3.9538   -4.5753    3.8709 H         1 <0>         0.4055
     33 H11         3.5854   -2.3048    2.2321 H         1 <0>         0.0665
     34 H12         2.3257   -2.2993    3.4895 H         1 <0>         0.0628
     35 H13         3.3072   -0.2185    4.4638 H         1 <0>         0.0607
     36 H14         5.0258   -0.1767    4.9255 H         1 <0>         0.0635
     37 H15         4.5670   -0.2240    3.2063 H         1 <0>         0.0682
     38 H16         3.1146   -2.2758    5.8482 H         1 <0>         0.3749
@<TRIPOS>BOND
     1    1    2 1
     2    1   25 1
     3    1   26 1
     4    1   27 1
     5    2    7 ar
     6    2    3 ar
     7    3    4 ar
     8    3   28 1
     9    4    5 ar
    10    4   29 1
    11    5    6 ar
    12    5    8 1
    13    6    7 ar
    14    6   30 1
    15    7   31 1
    16    8    9 2
    17    9   15 1
    18    9   10 1
    19   10   11 2
    20   11   12 1
    21   11   19 1
    22   12   13 1
    23   13   14 1
    24   13   18 1
    25   13   15 1
    26   15   16 2
    27   16   17 1
    28   17   18 2
    29   19   20 1
    30   19   32 1
    31   20   21 1
    32   20   33 1
    33   20   34 1
    34   21   22 1
    35   21   23 1
    36   21   24 1
    37   23   35 1
    38   23   36 1
    39   23   37 1
    40   24   38 1
@<TRIPOS>MOLECULE
ZINC20267931
   49    50     0     0     0
SMALL
USER_CHARGES
4-(3-aminopropoxy)-N-cyclopentyl-2,5-dimethyl-benzenesulfonamide
@<TRIPOS>ATOM
      1 C1         -1.2426   -0.7999    0.0653 C.3       1 <0>        -0.1687
      2 C2          0.0265   -0.0006    0.2121 C.ar      1 <0>         0.0591
      3 C3          1.2101   -0.6372    0.5326 C.ar      1 <0>        -0.2274
      4 C4          2.3779    0.0991    0.6671 C.ar      1 <0>         0.1778
      5 C5          2.3542    1.4736    0.4793 C.ar      1 <0>        -0.1349
      6 C6          1.1684    2.1053    0.1590 C.ar      1 <0>         0.0199
      7 C7          0.0055    1.3690    0.0254 C.ar      1 <0>        -0.7090
      8 S1         -1.5041    2.1770   -0.3905 S.o2      1 <0>         2.6923
      9 O1         -1.2073    3.5625   -0.4969 O.2       1 <0>        -0.9547
     10 O2         -2.0799    1.4370   -1.4583 O.2       1 <0>        -0.9556
     11 N1         -2.5223    2.0091    0.9047 N.pl3     1 <0>        -1.1195
     12 C8         -2.1867    2.6350    2.1861 C.3       1 <0>         0.1457
     13 C9         -1.5501    1.5953    3.1314 C.3       1 <0>        -0.1459
     14 C10        -2.1024    1.9654    4.5303 C.3       1 <0>        -0.1236
     15 C11        -3.5624    2.3808    4.2224 C.3       1 <0>        -0.1208
     16 C12        -3.4662    3.1344    2.8798 C.3       1 <0>        -0.1234
     17 C13         3.6213    2.2765    0.6241 C.3       1 <0>        -0.1085
     18 O3          3.5433   -0.5248    0.9828 O.3       1 <0>        -0.3043
     19 C14         3.4929   -1.9416    1.1620 C.3       1 <0>         0.0549
     20 C15         4.8891   -2.4617    1.5098 C.3       1 <0>        -0.1539
     21 C16         4.8351   -3.9786    1.7017 C.3       1 <0>         0.0018
     22 N2          6.1757   -4.4780    2.0357 N.4       1 <0>        -0.6857
     23 H1         -1.0296   -1.8632    0.2495 H         1 <0>         0.0812
     24 H2         -1.6379   -0.6763   -0.9537 H         1 <0>         0.1128
     25 H3         -1.9866   -0.4435    0.7930 H         1 <0>         0.0843
     26 H4          1.2259   -1.7072    0.6787 H         1 <0>         0.1336
     27 H5          1.1494    3.1752    0.0127 H         1 <0>         0.1529
     28 H6         -3.3576    1.2960    0.8429 H         1 <0>         0.4390
     29 H7         -1.4984    3.4553    1.9346 H         1 <0>         0.0928
     30 H8         -1.8535    0.5842    2.8221 H         1 <0>         0.0733
     31 H9         -0.4543    1.6797    3.0847 H         1 <0>         0.0654
     32 H10        -2.0406    1.0892    5.1924 H         1 <0>         0.0674
     33 H11        -1.5070    2.7877    4.9538 H         1 <0>         0.0704
     34 H12        -4.1913    1.4815    4.1468 H         1 <0>         0.0687
     35 H13        -3.9388    3.0245    5.0311 H         1 <0>         0.0713
     36 H14        -3.3947    4.2198    3.0435 H         1 <0>         0.0781
     37 H15        -4.3370    2.9160    2.2442 H         1 <0>         0.0807
     38 H16         3.4051    3.3391    0.4396 H         1 <0>         0.0740
     39 H17         4.3654    1.9218   -0.1043 H         1 <0>         0.0711
     40 H18         4.0183    2.1545    1.6427 H         1 <0>         0.0709
     41 H19         2.7975   -2.1833    1.9793 H         1 <0>         0.0754
     42 H20         3.1457   -2.4166    0.2326 H         1 <0>         0.0758
     43 H21         5.5845   -2.2200    0.6925 H         1 <0>         0.0999
     44 H22         5.2364   -1.9867    2.4392 H         1 <0>         0.0996
     45 H23         4.1397   -4.2202    2.5190 H         1 <0>         0.1323
     46 H24         4.4879   -4.4537    0.7723 H         1 <0>         0.1326
     47 H25         6.1368   -5.5686    2.1737 H         1 <0>         0.4638
     48 H26         6.5229   -4.0030    2.9651 H         1 <0>         0.4585
     49 H27         6.8711   -4.2363    1.2184 H         1 <0>         0.4588
@<TRIPOS>BOND
     1    1    2 1
     2    1   23 1
     3    1   24 1
     4    1   25 1
     5    2    7 ar
     6    2    3 ar
     7    3    4 ar
     8    3   26 1
     9    4    5 ar
    10    4   18 1
    11    5    6 ar
    12    5   17 1
    13    6    7 ar
    14    6   27 1
    15    7    8 1
    16    8    9 2
    17    8   10 2
    18    8   11 1
    19   11   12 1
    20   11   28 1
    21   12   16 1
    22   12   13 1
    23   12   29 1
    24   13   14 1
    25   13   30 1
    26   13   31 1
    27   14   15 1
    28   14   32 1
    29   14   33 1
    30   15   16 1
    31   15   34 1
    32   15   35 1
    33   16   36 1
    34   16   37 1
    35   17   38 1
    36   17   39 1
    37   17   40 1
    38   18   19 1
    39   19   20 1
    40   19   41 1
    41   19   42 1
    42   20   21 1
    43   20   43 1
    44   20   44 1
    45   21   22 1
    46   21   45 1
    47   21   46 1
    48   22   47 1
    49   22   48 1
    50   22   49 1
@<TRIPOS>MOLECULE
ZINC38018545
   33    34     0     0     0
SMALL
USER_CHARGES

@<TRIPOS>ATOM
      1 C1         -0.0187    1.5258    0.0104 C.3       1 <0>        -0.1787
      2 C2          0.0021   -0.0041    0.0020 C.3       1 <0>         0.0883
      3 H1          0.5123   -0.3556   -0.8948 H         1 <0>         0.1506
      4 C3         -1.4117   -0.5257    0.0127 C.ar      1 <0>        -0.1503
      5 C4         -2.0143   -0.8636    1.2091 C.ar      1 <0>        -0.1460
      6 C5         -3.3155   -1.3432    1.2190 C.ar      1 <0>         0.1231
      7 C6         -4.0120   -1.4836    0.0276 C.ar      1 <0>        -0.1053
      8 C7         -3.4096   -1.1457   -1.1684 C.ar      1 <0>        -0.1103
      9 C8         -2.1099   -0.6611   -1.1778 C.ar      1 <0>         0.1308
     10 O1         -1.5187   -0.3231   -2.3549 O.3       1 <0>        -0.4905
     11 O2         -3.9084   -1.6762    2.3965 O.3       1 <0>        -0.4930
     12 N1          0.7126   -0.4907    1.1921 N.4       1 <0>        -0.5118
     13 C9          2.1220   -0.0825    1.1220 C.3       1 <0>         0.0945
     14 C10         2.8508   -0.5817    2.3429 C.2       1 <0>        -0.2640
     15 C11         3.5019   -1.7559    2.5273 C.2       1 <0>        -0.0785
     16 C12         4.1061   -2.0036    3.7460 C.2       1 <0>        -0.1354
     17 C13         4.0289   -1.0636    4.7207 C.2       1 <0>        -0.1335
     18 S1          3.0871    0.2236    3.9186 S.3       1 <0>         0.1528
     19 Br1         4.7407   -1.1031    6.4722 Br        1 <0>         0.0747
     20 H2          1.0039    1.9031    0.0027 H         1 <0>         0.0866
     21 H3         -0.5459    1.8868   -0.8726 H         1 <0>         0.1141
     22 H4         -0.5289    1.8773    0.9072 H         1 <0>         0.0829
     23 H5         -1.4719   -0.7547    2.1366 H         1 <0>         0.1275
     24 H6         -5.0252   -1.8574    0.0353 H         1 <0>         0.1480
     25 H7         -3.9517   -1.2557   -2.0960 H         1 <0>         0.1496
     26 H8         -1.0439   -1.0506   -2.7797 H         1 <0>         0.4003
     27 H9         -4.3836   -0.9469    2.8177 H         1 <0>         0.4040
     28 H10         0.2896   -0.0986    2.0201 H         1 <0>         0.4257
     29 H11         2.5788   -0.5061    0.2276 H         1 <0>         0.1542
     30 H12         2.1837    1.0050    1.0814 H         1 <0>         0.1483
     31 H13         3.5479   -2.4875    1.7342 H         1 <0>         0.1523
     32 H14         4.6310   -2.9314    3.9193 H         1 <0>         0.1574
     33 H15         0.6554   -1.4974    1.2298 H         1 <0>         0.4316
@<TRIPOS>BOND
     1    1    2 1
     2    1   20 1
     3    1   21 1
     4    1   22 1
     5    2    3 1
     6    2    4 1
     7    2   12 1
     8    4    9 ar
     9    4    5 ar
    10    5    6 ar
    11    5   23 1
    12    6    7 ar
    13    6   11 1
    14    7    8 ar
    15    7   24 1
    16    8    9 ar
    17    8   25 1
    18    9   10 1
    19   10   26 1
    20   11   27 1
    21   12   13 1
    22   12   28 1
    23   12   33 1
    24   13   14 1
    25   13   29 1
    26   13   30 1
    27   14   18 1
    28   14   15 2
    29   15   16 1
    30   15   31 1
    31   16   17 2
    32   16   32 1
    33   17   18 1
    34   17   19 1
@<TRIPOS>MOLECULE
ZINC43290073
   36    37     0     0     0
SMALL
USER_CHARGES

@<TRIPOS>ATOM
      1 C1         -0.1467    1.4195   -0.0478 C.3       1 <0>        -0.1904
      2 C2         -0.0362   -0.1056    0.0036 C.3       1 <0>         0.0089
      3 H1         -1.0346   -0.5411    0.0437 H         1 <0>         0.1566
      4 C3          0.7506   -0.5182    1.2493 C.3       1 <0>         0.1629
      5 H2          1.7490   -0.0827    1.2092 H         1 <0>         0.1214
      6 C4          0.8594   -2.0204    1.3000 C.2       1 <0>        -0.2366
      7 C5          1.9009   -2.8131    0.9472 C.2       1 <0>        -0.1045
      8 C6          1.7754   -4.1836    1.0801 C.2       1 <0>        -0.1478
      9 C7          0.6142   -4.6937    1.5595 C.2       1 <0>        -0.1120
     10 S1         -0.3469   -3.2171    1.8476 S.3       1 <0>         0.1665
     11 Br1         3.2013   -5.3292    0.6001 Br        1 <0>        -0.0088
     12 O1          0.0732   -0.0501    2.4172 O.3       1 <0>        -0.2798
     13 C8          0.5390    1.0941    2.9837 C.ar      1 <0>         0.1113
     14 C9          0.0094    1.5398    4.1860 C.ar      1 <0>        -0.1361
     15 C10         0.4850    2.7029    4.7599 C.ar      1 <0>        -0.0528
     16 C11         1.4876    3.4229    4.1370 C.ar      1 <0>        -0.1100
     17 C12         2.0167    2.9811    2.9384 C.ar      1 <0>        -0.0569
     18 C13         1.5489    1.8153    2.3635 C.ar      1 <0>        -0.2143
     19 C14         2.0041    4.6916    4.7651 C.3       1 <0>         0.1133
     20 O2          3.0947    4.3826    5.6353 O.3       1 <0>        -0.5688
     21 N1          0.6601   -0.5869   -1.1970 N.4       1 <0>        -0.6309
     22 H3          0.8517    1.8550   -0.0879 H         1 <0>         0.0878
     23 H4         -0.7072    1.7134   -0.9352 H         1 <0>         0.0947
     24 H5         -0.6634    1.7766    0.8431 H         1 <0>         0.1139
     25 H6          2.8149   -2.3806    0.5676 H         1 <0>         0.1486
     26 H7          0.3428   -5.7254    1.7278 H         1 <0>         0.2073
     27 H8         -0.7742    0.9781    4.6726 H         1 <0>         0.1394
     28 H9          0.0730    3.0503    5.6959 H         1 <0>         0.1392
     29 H10         2.7996    3.5454    2.4536 H         1 <0>         0.1321
     30 H11         1.9656    1.4682    1.4295 H         1 <0>         0.1259
     31 H12         2.3440    5.3715    3.9839 H         1 <0>         0.0578
     32 H13         1.2060    5.1651    5.3368 H         1 <0>         0.0599
     33 H14         3.4776    5.1539    6.0751 H         1 <0>         0.3879
     34 H15         1.5843   -0.1837   -1.2341 H         1 <0>         0.4338
     35 H16         0.7330   -1.5927   -1.1631 H         1 <0>         0.4360
     36 H17         0.1413   -0.3148   -2.0185 H         1 <0>         0.4441
@<TRIPOS>BOND
     1    1    2 1
     2    1   22 1
     3    1   23 1
     4    1   24 1
     5    2    3 1
     6    2    4 1
     7    2   21 1
     8    4    5 1
     9    4    6 1
    10    4   12 1
    11    6   10 1
    12    6    7 2
    13    7    8 1
    14    7   25 1
    15    8    9 2
    16    8   11 1
    17    9   10 1
    18    9   26 1
    19   12   13 1
    20   13   18 ar
    21   13   14 ar
    22   14   15 ar
    23   14   27 1
    24   15   16 ar
    25   15   28 1
    26   16   17 ar
    27   16   19 1
    28   17   18 ar
    29   17   29 1
    30   18   30 1
    31   19   20 1
    32   19   31 1
    33   19   32 1
    34   20   33 1
    35   21   34 1
    36   21   35 1
    37   21   36 1
@<TRIPOS>MOLECULE
ZINC60341379
   59    62     0     0     0
SMALL
USER_CHARGES

@<TRIPOS>ATOM
      1 C1         -0.6801    0.3320    1.5632 C.ar      1 <0>        -0.1094
      2 C2          0.2545    1.3500    1.5205 C.ar      1 <0>        -0.1190
      3 C3          1.5383    1.0836    1.0923 C.ar      1 <0>        -0.1159
      4 C4          1.9011   -0.2001    0.7048 C.ar      1 <0>        -0.0749
      5 C5          0.9721   -1.2148    0.7522 C.ar      1 <0>        -0.0607
      6 C6         -0.3214   -0.9437    1.1802 C.ar      1 <0>        -0.1176
      7 C7          1.2994   -2.6326    0.3627 C.3       1 <0>        -0.0871
      8 C8          2.5788   -2.6793   -0.4702 C.3       1 <0>        -0.1177
      9 C9          3.6709   -1.9041    0.2763 C.3       1 <0>        -0.1086
     10 C10         3.3174   -0.4187    0.2406 C.3       1 <0>        -0.0562
     11 H1          3.4225   -0.0486   -0.7792 H         1 <0>         0.1011
     12 C11         4.2583    0.3379    1.1424 C.2       1 <0>         0.5261
     13 O1          4.3107    0.0715    2.3245 O.2       1 <0>        -0.4988
     14 N1          5.0416    1.3104    0.6354 N.am      1 <0>        -0.6808
     15 C12         5.9926    1.9376    1.4478 C.ar      1 <0>         0.1916
     16 C13         6.6396    1.2183    2.4442 C.ar      1 <0>        -0.1223
     17 C14         7.5777    1.8403    3.2445 C.ar      1 <0>        -0.0719
     18 C15         7.8731    3.1778    3.0545 C.ar      1 <0>        -0.1831
     19 C16         7.2304    3.8969    2.0635 C.ar      1 <0>        -0.0673
     20 C17         6.2957    3.2792    1.2559 C.ar      1 <0>        -0.1461
     21 C18         8.8974    3.8533    3.9295 C.3       1 <0>         0.0478
     22 N2         10.2261    3.7253    3.3163 N.4       1 <0>        -0.3802
     23 C19        10.6105    2.3092    3.2763 C.3       1 <0>        -0.0172
     24 C20        11.9577    2.1624    2.5655 C.3       1 <0>        -0.1408
     25 C21        13.0201    2.9601    3.3272 C.3       1 <0>        -0.1312
     26 C22        12.5730    4.4213    3.4274 C.3       1 <0>        -0.1326
     27 H2         12.5039    4.8501    2.4276 H         1 <0>         0.1220
     28 C23        11.2030    4.4844    4.1062 C.3       1 <0>         0.0096
     29 C24        13.5749    5.1996    4.2407 C.2       1 <0>         0.5284
     30 O2         13.2274    5.7543    5.2616 O.2       1 <0>        -0.5317
     31 N3         14.8572    5.2792    3.8334 N.am      1 <0>        -0.8426
     32 H3         -1.6863    0.5339    1.8995 H         1 <0>         0.1269
     33 H4         -0.0199    2.3504    1.8209 H         1 <0>         0.1240
     34 H5          2.2674    1.8796    1.0577 H         1 <0>         0.1109
     35 H6         -1.0522   -1.7382    1.2131 H         1 <0>         0.1268
     36 H7          1.4352   -3.2306    1.2639 H         1 <0>         0.0816
     37 H8          0.4757   -3.0444   -0.2204 H         1 <0>         0.0816
     38 H9          2.8910   -3.7148   -0.6056 H         1 <0>         0.0788
     39 H10         2.4010   -2.2189   -1.4421 H         1 <0>         0.0705
     40 H11         3.7211   -2.2448    1.3105 H         1 <0>         0.0811
     41 H12         4.6328   -2.0644   -0.2106 H         1 <0>         0.0735
     42 H13         4.9460    1.5756   -0.2928 H         1 <0>         0.4181
     43 H14         6.4090    0.1738    2.5933 H         1 <0>         0.1456
     44 H15         8.0809    1.2816    4.0197 H         1 <0>         0.1346
     45 H16         7.4630    4.9414    1.9179 H         1 <0>         0.1358
     46 H17         5.7978    3.8400    0.4787 H         1 <0>         0.1389
     47 H18         8.6460    4.9086    4.0349 H         1 <0>         0.1383
     48 H19         8.9037    3.3814    4.9121 H         1 <0>         0.1365
     49 H20        10.6934    1.9268    4.2936 H         1 <0>         0.1304
     50 H21         9.8519    1.7424    2.7367 H         1 <0>         0.1350
     51 H22        12.2422    1.1106    2.5384 H         1 <0>         0.1176
     52 H23        11.8758    2.5444    1.5479 H         1 <0>         0.0907
     53 H24        13.1387    2.5458    4.3284 H         1 <0>         0.0904
     54 H25        13.9691    2.9050    2.7939 H         1 <0>         0.0993
     55 H26        10.8818    5.5234    4.1792 H         1 <0>         0.1398
     56 H27        11.2733    4.0556    5.1058 H         1 <0>         0.1388
     57 H28        15.1352    4.8356    3.0168 H         1 <0>         0.4062
     58 H29        15.5021    5.7802    4.3569 H         1 <0>         0.4151
     59 H30        10.1982    4.0908    2.3763 H         1 <0>         0.4207
@<TRIPOS>BOND
     1    1    6 ar
     2    1    2 ar
     3    1   32 1
     4    2    3 ar
     5    2   33 1
     6    3    4 ar
     7    3   34 1
     8    4   10 1
     9    4    5 ar
    10    5    6 ar
    11    5    7 1
    12    6   35 1
    13    7    8 1
    14    7   36 1
    15    7   37 1
    16    8    9 1
    17    8   38 1
    18    8   39 1
    19    9   10 1
    20    9   40 1
    21    9   41 1
    22   10   11 1
    23   10   12 1
    24   12   13 2
    25   12   14 am
    26   14   15 1
    27   14   42 1
    28   15   20 ar
    29   15   16 ar
    30   16   17 ar
    31   16   43 1
    32   17   18 ar
    33   17   44 1
    34   18   19 ar
    35   18   21 1
    36   19   20 ar
    37   19   45 1
    38   20   46 1
    39   21   22 1
    40   21   47 1
    41   21   48 1
    42   22   28 1
    43   22   23 1
    44   22   59 1
    45   23   24 1
    46   23   49 1
    47   23   50 1
    48   24   25 1
    49   24   51 1
    50   24   52 1
    51   25   26 1
    52   25   53 1
    53   25   54 1
    54   26   27 1
    55   26   28 1
    56   26   29 1
    57   28   55 1
    58   28   56 1
    59   29   30 2
    60   29   31 am
    61   31   57 1
    62   31   58 1
@<TRIPOS>MOLECULE
ZINC39489982
   51    53     0     0     0
SMALL
USER_CHARGES

@<TRIPOS>ATOM
      1 C1         -0.0167    1.3791    0.0096 C.ar      1 <0>        -0.0973
      2 C2          1.1675    2.0879    0.0021 C.ar      1 <0>        -0.0731
      3 C3          2.3837    1.4075   -0.0132 C.ar      1 <0>         0.0253
      4 C4          2.3966    0.0138   -0.0208 C.ar      1 <0>        -0.0816
      5 C5          1.2063   -0.6846   -0.0132 C.ar      1 <0>        -0.1087
      6 C6          0.0021   -0.0041    0.0020 C.ar      1 <0>        -0.1644
      7 C7         -1.2943   -0.7724    0.0108 C.3       1 <0>         0.0465
      8 N1         -1.7293   -1.0146   -1.3713 N.4       1 <0>        -0.3782
      9 C8         -0.7570   -1.8849   -2.0433 C.3       1 <0>        -0.0183
     10 C9         -1.1624   -2.0747   -3.5065 C.3       1 <0>        -0.1385
     11 C10        -2.5514   -2.7168   -3.5664 C.3       1 <0>        -0.1386
     12 C11        -3.5429   -1.8377   -2.7988 C.3       1 <0>        -0.1605
     13 H1         -3.6173   -0.8642   -3.2834 H         1 <0>         0.1397
     14 C12        -3.0492   -1.6567   -1.3618 C.3       1 <0>        -0.0068
     15 C13        -4.9179   -2.5088   -2.7869 C.3       1 <0>         0.4673
     16 F1         -4.8220   -3.7572   -2.1629 F         1 <0>        -0.1740
     17 F2         -5.8230   -1.7051   -2.0854 F         1 <0>        -0.1736
     18 F3         -5.3657   -2.6776   -4.1014 F         1 <0>        -0.1651
     19 C14         3.6596    2.1637   -0.0218 C.ar      1 <0>         0.3601
     20 N2          3.6259    3.4892   -0.0093 N.ar      1 <0>        -0.5833
     21 C15         4.7495    4.1941   -0.0160 C.ar      1 <0>         0.4357
     22 O1          4.7110    5.5487   -0.0028 O.3       1 <0>        -0.6668
     23 C16         5.9716    3.5215   -0.0366 C.ar      1 <0>        -0.3018
     24 C17         5.9638    2.1387   -0.0491 C.ar      1 <0>         0.1491
     25 N3          4.8057    1.4978   -0.0363 N.ar      1 <0>        -0.6033
     26 C18         7.2597    1.3699   -0.0719 C.3       1 <0>        -0.0814
     27 C19         7.2905    0.3873    1.1005 C.3       1 <0>         0.0003
     28 N4          8.5537   -0.3622    1.0783 N.4       1 <0>        -0.6377
     29 H2         -0.9597    1.9052    0.0260 H         1 <0>         0.1332
     30 H3          1.1516    3.1677    0.0077 H         1 <0>         0.1515
     31 H4          3.3362   -0.5185   -0.0330 H         1 <0>         0.1422
     32 H5          1.2150   -1.7646   -0.0194 H         1 <0>         0.1294
     33 H6         -1.1481   -1.7260    0.5181 H         1 <0>         0.1363
     34 H7         -2.0555   -0.1948    0.5353 H         1 <0>         0.1390
     35 H8          0.2316   -1.4281   -1.9970 H         1 <0>         0.1405
     36 H9         -0.7321   -2.8540   -1.5450 H         1 <0>         0.1313
     37 H10        -1.1873   -1.1062   -4.0059 H         1 <0>         0.0937
     38 H11        -0.4402   -2.7226   -4.0032 H         1 <0>         0.1214
     39 H12        -2.8689   -2.8023   -4.6056 H         1 <0>         0.1091
     40 H13        -2.5151   -3.7071   -3.1125 H         1 <0>         0.0972
     41 H14        -2.9756   -2.6306   -0.8780 H         1 <0>         0.1431
     42 H15        -3.7530   -1.0314   -0.8123 H         1 <0>         0.1449
     43 H16         6.9028    4.0684   -0.0429 H         1 <0>         0.1216
     44 H17         7.3393    0.8195   -1.0094 H         1 <0>         0.0966
     45 H18         8.0956    2.0641    0.0139 H         1 <0>         0.0963
     46 H19         7.2109    0.9377    2.0380 H         1 <0>         0.1317
     47 H20         6.4546   -0.3070    1.0147 H         1 <0>         0.1411
     48 H21         8.5740   -1.0101    1.8515 H         1 <0>         0.4358
     49 H22         8.6273   -0.8716    0.2105 H         1 <0>         0.4332
     50 H23         9.3275    0.2805    1.1577 H         1 <0>         0.4343
     51 H24        -1.7875   -0.1357   -1.8634 H         1 <0>         0.4257
@<TRIPOS>BOND
     1    1    6 ar
     2    1    2 ar
     3    1   29 1
     4    2    3 ar
     5    2   30 1
     6    3    4 ar
     7    3   19 1
     8    4    5 ar
     9    4   31 1
    10    5    6 ar
    11    5   32 1
    12    6    7 1
    13    7    8 1
    14    7   33 1
    15    7   34 1
    16    8   14 1
    17    8    9 1
    18    8   51 1
    19    9   10 1
    20    9   35 1
    21    9   36 1
    22   10   11 1
    23   10   37 1
    24   10   38 1
    25   11   12 1
    26   11   39 1
    27   11   40 1
    28   12   13 1
    29   12   14 1
    30   12   15 1
    31   14   41 1
    32   14   42 1
    33   15   16 1
    34   15   17 1
    35   15   18 1
    36   19   25 ar
    37   19   20 ar
    38   20   21 ar
    39   21   22 1
    40   21   23 ar
    41   23   24 ar
    42   23   43 1
    43   24   25 ar
    44   24   26 1
    45   26   27 1
    46   26   44 1
    47   26   45 1
    48   27   28 1
    49   27   46 1
    50   27   47 1
    51   28   48 1
    52   28   49 1
    53   28   50 1
@<TRIPOS>MOLECULE
ZINC36396391
   48    50     0     0     0
SMALL
USER_CHARGES

@<TRIPOS>ATOM
      1 C1         -0.0187    1.5258    0.0104 C.3       1 <0>        -0.1541
      2 C2          0.0021   -0.0041    0.0020 C.3       1 <0>         0.0525
      3 O1         -1.3386   -0.4987    0.0122 O.3       1 <0>        -0.3138
      4 C3         -1.4984   -1.8493    0.0064 C.ar      1 <0>         0.1346
      5 C4         -0.3867   -2.6787   -0.0029 C.ar      1 <0>        -0.1877
      6 C5         -0.5478   -4.0502   -0.0092 C.ar      1 <0>        -0.0507
      7 C6         -1.8240   -4.5991   -0.0057 C.ar      1 <0>        -0.1439
      8 C7         -2.9367   -3.7674    0.0041 C.ar      1 <0>        -0.0941
      9 C8         -2.7731   -2.3963    0.0157 C.ar      1 <0>        -0.1330
     10 S1         -2.0311   -6.3489   -0.0143 S.3       1 <0>        -0.0230
     11 C9         -3.8306   -6.5778   -0.0063 C.3       1 <0>        -0.1499
     12 C10        -4.1496   -8.0506   -0.0128 C.2       1 <0>         0.5375
     13 O2         -3.2515   -8.8656   -0.0219 O.2       1 <0>        -0.4327
     14 N1         -5.4330   -8.4621   -0.0085 N.am      1 <0>        -0.6138
     15 C11        -5.7267   -9.8179   -0.0145 C.2       1 <0>         0.4085
     16 N2         -4.8603  -10.8001   -0.0186 N.2       1 <0>        -0.2614
     17 N3         -5.4891  -11.9225   -0.0236 N.2       1 <0>        -0.2474
     18 C12        -6.7717  -11.7022   -0.0229 C.2       1 <0>         0.1314
     19 O3         -6.9548  -10.3683   -0.0112 O.3       1 <0>        -0.2321
     20 C13        -7.8551  -12.7497   -0.0282 C.3       1 <0>         0.0105
     21 C14        -7.7164  -13.6362    1.2129 C.3       1 <0>        -0.1449
     22 C15        -8.7691  -14.7455    1.1609 C.3       1 <0>        -0.0024
     23 N4         -8.5712  -15.5567   -0.0463 N.4       1 <0>        -0.5080
     24 C16        -8.7736  -14.7288   -1.2413 C.3       1 <0>        -0.0024
     25 C17        -7.7210  -13.6189   -1.2818 C.3       1 <0>        -0.1449
     26 H1          1.0039    1.9031    0.0027 H         1 <0>         0.0815
     27 H2         -0.5459    1.8868   -0.8726 H         1 <0>         0.0676
     28 H3         -0.5289    1.8773    0.9072 H         1 <0>         0.0676
     29 H4          0.5123   -0.3556   -0.8948 H         1 <0>         0.0646
     30 H5          0.5293   -0.3651    0.8851 H         1 <0>         0.0645
     31 H6          0.6053   -2.2518   -0.0056 H         1 <0>         0.1367
     32 H7          0.3179   -4.6958   -0.0172 H         1 <0>         0.1338
     33 H8         -3.9293   -4.1931    0.0069 H         1 <0>         0.1267
     34 H9         -3.6380   -1.7496    0.0274 H         1 <0>         0.1363
     35 H10        -4.2513   -6.1188    0.8884 H         1 <0>         0.1300
     36 H11        -4.2604   -6.1090   -0.8915 H         1 <0>         0.1300
     37 H12        -6.1513   -7.8103   -0.0012 H         1 <0>         0.4325
     38 H13        -8.8312  -12.2646   -0.0237 H         1 <0>         0.1192
     39 H14        -6.7209  -14.0798    1.2338 H         1 <0>         0.1066
     40 H15        -7.8661  -13.0340    2.1089 H         1 <0>         0.1192
     41 H16        -8.6733  -15.3784    2.0432 H         1 <0>         0.1422
     42 H17        -9.7641  -14.3008    1.1402 H         1 <0>         0.1353
     43 H18        -7.6331  -15.9281   -0.0506 H         1 <0>         0.4320
     44 H19        -8.6810  -15.3494   -2.1326 H         1 <0>         0.1422
     45 H20        -9.7685  -14.2845   -1.2108 H         1 <0>         0.1353
     46 H21        -7.8741  -13.0043   -2.1689 H         1 <0>         0.1193
     47 H22        -6.7257  -14.0622   -1.3127 H         1 <0>         0.1065
     48 H23        -9.2326  -16.3187   -0.0503 H         1 <0>         0.4356
@<TRIPOS>BOND
     1    1    2 1
     2    1   26 1
     3    1   27 1
     4    1   28 1
     5    2    3 1
     6    2   29 1
     7    2   30 1
     8    3    4 1
     9    4    9 ar
    10    4    5 ar
    11    5    6 ar
    12    5   31 1
    13    6    7 ar
    14    6   32 1
    15    7    8 ar
    16    7   10 1
    17    8    9 ar
    18    8   33 1
    19    9   34 1
    20   10   11 1
    21   11   12 1
    22   11   35 1
    23   11   36 1
    24   12   13 2
    25   12   14 am
    26   14   15 1
    27   14   37 1
    28   15   19 1
    29   15   16 2
    30   16   17 1
    31   17   18 2
    32   18   19 1
    33   18   20 1
    34   20   25 1
    35   20   21 1
    36   20   38 1
    37   21   22 1
    38   21   39 1
    39   21   40 1
    40   22   23 1
    41   22   41 1
    42   22   42 1
    43   23   24 1
    44   23   43 1
    45   23   48 1
    46   24   25 1
    47   24   44 1
    48   24   45 1
    49   25   46 1
    50   25   47 1
@<TRIPOS>MOLECULE
ZINC48094972
   47    48     0     0     0
SMALL
USER_CHARGES

@<TRIPOS>ATOM
      1 C1          3.2042   -2.0794   -1.1217 C.3       1 <0>        -0.0761
      2 C2          2.4142   -0.7975   -1.0593 C.2       1 <0>         0.1089
      3 C3          1.8024   -0.1077   -2.1896 C.ar      1 <0>        -0.2045
      4 C4          1.7378   -0.3572   -3.5658 C.ar      1 <0>         0.0094
      5 C5          1.0479    0.5452   -4.3589 C.ar      1 <0>         0.0536
      6 C6          0.4492    1.6565   -3.7674 C.ar      1 <0>         0.1592
      7 N1          0.5241    1.8688   -2.4725 N.ar      1 <0>        -0.4809
      8 C7          1.1718    1.0377   -1.6653 C.ar      1 <0>         0.3053
      9 N2          1.3978    1.0229   -0.3140 N.pl3     1 <0>        -0.3915
     10 N3          2.1501   -0.1091    0.0142 N.2       1 <0>        -0.2319
     11 C8          0.9222    2.0308    0.6369 C.3       1 <0>         0.1098
     12 N4          0.9531    0.3429   -5.7430 N.am      1 <0>        -0.6713
     13 C9          0.9051   -0.9093   -6.2393 C.2       1 <0>         0.7061
     14 O1          0.8461   -1.8606   -5.4844 O.2       1 <0>        -0.5662
     15 N5          0.9223   -1.1069   -7.5724 N.am      1 <0>        -0.7469
     16 C10         0.8701   -2.4679   -8.1119 C.3       1 <0>         0.1433
     17 C11         0.9030   -2.4122   -9.6405 C.3       1 <0>        -0.1646
     18 C12         0.8484   -3.8337  -10.2039 C.3       1 <0>        -0.0058
     19 N6          0.8800   -3.7802  -11.6716 N.4       1 <0>        -0.3860
     20 C13        -0.3366   -3.1201  -12.1638 C.3       1 <0>        -0.0804
     21 C14         0.9484   -5.1453  -12.2100 C.3       1 <0>        -0.0552
     22 C15         1.1234   -5.0864  -13.7288 C.3       1 <0>         0.4493
     23 F1          2.2320   -4.2918  -14.0401 F         1 <0>        -0.1672
     24 F2          1.3217   -6.3789  -14.2259 F         1 <0>        -0.1431
     25 F3         -0.0237   -4.5344  -14.3093 F         1 <0>        -0.1627
     26 H1          2.5301   -2.9277   -1.0032 H         1 <0>         0.0867
     27 H2          3.7092   -2.1484   -2.0852 H         1 <0>         0.0817
     28 H3          3.9446   -2.0891   -0.3218 H         1 <0>         0.0841
     29 H4          2.2119   -1.2269   -3.9962 H         1 <0>         0.1512
     30 H5         -0.0879    2.3592   -4.3873 H         1 <0>         0.1682
     31 H6         -0.0599    1.7422    1.0114 H         1 <0>         0.0734
     32 H7          1.6217    2.1032    1.4697 H         1 <0>         0.0910
     33 H8          0.8510    2.9968    0.1372 H         1 <0>         0.0917
     34 H9          0.9221    1.1041   -6.3434 H         1 <0>         0.4106
     35 H10         0.9694   -0.3479   -8.1747 H         1 <0>         0.4012
     36 H11         1.7278   -3.0352   -7.7505 H         1 <0>         0.0812
     37 H12        -0.0499   -2.9530   -7.7857 H         1 <0>         0.0809
     38 H13         0.0453   -1.8450  -10.0020 H         1 <0>         0.0990
     39 H14         1.8230   -1.9272   -9.9667 H         1 <0>         0.0990
     40 H15         1.7062   -4.4009   -9.8425 H         1 <0>         0.1432
     41 H16        -0.0716   -4.3188   -9.8777 H         1 <0>         0.1433
     42 H17        -0.4425   -2.1479  -11.6826 H         1 <0>         0.1367
     43 H18        -0.2655   -2.9855  -13.2432 H         1 <0>         0.1388
     44 H19        -1.2043   -3.7373  -11.9310 H         1 <0>         0.1342
     45 H20         1.7956   -5.6686  -11.7667 H         1 <0>         0.1799
     46 H21         0.0274   -5.6768  -11.9707 H         1 <0>         0.1799
     47 H22         1.6902   -3.2593  -11.9719 H         1 <0>         0.4331
@<TRIPOS>BOND
     1    1    2 1
     2    1   26 1
     3    1   27 1
     4    1   28 1
     5    2   10 2
     6    2    3 1
     7    3    8 ar
     8    3    4 ar
     9    4    5 ar
    10    4   29 1
    11    5    6 ar
    12    5   12 1
    13    6    7 ar
    14    6   30 1
    15    7    8 ar
    16    8    9 1
    17    9   10 1
    18    9   11 1
    19   11   31 1
    20   11   32 1
    21   11   33 1
    22   12   13 am
    23   12   34 1
    24   13   14 2
    25   13   15 am
    26   15   16 1
    27   15   35 1
    28   16   17 1
    29   16   36 1
    30   16   37 1
    31   17   18 1
    32   17   38 1
    33   17   39 1
    34   18   19 1
    35   18   40 1
    36   18   41 1
    37   19   20 1
    38   19   21 1
    39   19   47 1
    40   20   42 1
    41   20   43 1
    42   20   44 1
    43   21   22 1
    44   21   45 1
    45   21   46 1
    46   22   23 1
    47   22   24 1
    48   22   25 1
@<TRIPOS>MOLECULE
ZINC58159173
   44    46     0     0     0
SMALL
USER_CHARGES

@<TRIPOS>ATOM
      1 C1         -0.0319    1.5535    0.0565 C.3       1 <0>        -0.1538
      2 C2         -0.0033    0.0239    0.0364 C.3       1 <0>         0.0615
      3 O1          0.6847   -0.4549    1.1937 O.3       1 <0>        -0.3426
      4 C3          0.7988   -1.7917    1.3287 C.2       1 <0>         0.5513
      5 O2          0.3266   -2.5302    0.4863 O.2       1 <0>        -0.4863
      6 C4          1.4933   -2.3554    2.4931 C.2       1 <0>        -0.1818
      7 C5          1.7124   -3.6629    2.7986 C.2       1 <0>        -0.0490
      8 C6          2.4060   -4.0016    3.9738 C.ar      1 <0>        -0.0878
      9 C7          2.7293   -5.2952    4.4603 C.ar      1 <0>        -0.0857
     10 C8          3.4184   -5.4433    5.6391 C.ar      1 <0>         0.1508
     11 C9          3.8188   -4.3369    6.3891 C.ar      1 <0>        -0.0759
     12 C10         3.5218   -3.0761    5.9462 C.ar      1 <0>        -0.0624
     13 C11         2.8307   -2.9080    4.7649 C.ar      1 <0>        -0.1155
     14 S1          2.2646   -1.4941    3.8523 S.3       1 <0>         0.1253
     15 N1          3.7251   -6.7316    6.0982 N.am      1 <0>        -0.6800
     16 C12         4.8859   -6.9581    6.7445 C.2       1 <0>         0.7116
     17 O3          5.6292   -6.0310    7.0023 O.2       1 <0>        -0.5627
     18 N2          5.2229   -8.2123    7.1050 N.am      1 <0>        -0.7446
     19 C13         6.4847   -8.4585    7.8075 C.3       1 <0>         0.1215
     20 C14         6.6231   -9.9542    8.0982 C.3       1 <0>         0.0825
     21 N3          7.8849  -10.2004    8.8007 N.pl3     1 <0>        -0.4091
     22 C15         9.0962  -10.4716    8.2238 C.2       1 <0>         0.0276
     23 C16         9.9796  -10.6289    9.2281 C.2       1 <0>         0.0070
     24 N4          9.3255  -10.4584   10.3866 N.pl3     1 <0>        -0.4741
     25 C17         8.0714  -10.1964   10.1382 C.cat     1 <0>         0.2937
     26 H1          0.9888    1.9360    0.0565 H         1 <0>         0.0687
     27 H2         -0.5567    1.9188   -0.8263 H         1 <0>         0.0846
     28 H3         -0.5481    1.8955    0.9535 H         1 <0>         0.0689
     29 H4         -1.0240   -0.3585    0.0364 H         1 <0>         0.0730
     30 H5          0.5128   -0.3181   -0.8606 H         1 <0>         0.0728
     31 H6          1.3538   -4.4396    2.1394 H         1 <0>         0.1513
     32 H7          2.4312   -6.1689    3.8999 H         1 <0>         0.1354
     33 H8          4.3596   -4.4744    7.3138 H         1 <0>         0.1535
     34 H9          3.8286   -2.2147    6.5208 H         1 <0>         0.1419
     35 H10         3.1020   -7.4602    5.9507 H         1 <0>         0.4113
     36 H11         4.6300   -8.9519    6.8993 H         1 <0>         0.4048
     37 H12         7.3172   -8.1308    7.1848 H         1 <0>         0.0861
     38 H13         6.4924   -7.9038    8.7457 H         1 <0>         0.0842
     39 H14         5.7906  -10.2819    8.7209 H         1 <0>         0.1299
     40 H15         6.6154  -10.5090    7.1600 H         1 <0>         0.1324
     41 H16         9.3036  -10.5456    7.1665 H         1 <0>         0.2249
     42 H17        11.0305  -10.8530    9.1196 H         1 <0>         0.2258
     43 H18         7.3085  -10.0100   10.8796 H         1 <0>         0.2619
     44 H19         9.7227  -10.5168   11.2696 H         1 <0>         0.4670
@<TRIPOS>BOND
     1    1    2 1
     2    1   26 1
     3    1   27 1
     4    1   28 1
     5    2    3 1
     6    2   29 1
     7    2   30 1
     8    3    4 1
     9    4    5 2
    10    4    6 1
    11    6   14 1
    12    6    7 2
    13    7    8 1
    14    7   31 1
    15    8   13 ar
    16    8    9 ar
    17    9   10 ar
    18    9   32 1
    19   10   11 ar
    20   10   15 1
    21   11   12 ar
    22   11   33 1
    23   12   13 ar
    24   12   34 1
    25   13   14 1
    26   15   16 am
    27   15   35 1
    28   16   17 2
    29   16   18 am
    30   18   19 1
    31   18   36 1
    32   19   20 1
    33   19   37 1
    34   19   38 1
    35   20   21 1
    36   20   39 1
    37   20   40 1
    38   21   25 1
    39   21   22 1
    40   22   23 2
    41   22   41 1
    42   23   24 1
    43   23   42 1
    44   24   25 2
    45   24   44 1
    46   25   43 1
@<TRIPOS>MOLECULE
ZINC63775090
   53    55     0     0     0
SMALL
USER_CHARGES

@<TRIPOS>ATOM
      1 C1          0.8656   -0.3580   -0.9926 C.3       1 <0>        -0.0542
      2 N1         -0.0118   -0.0050    0.1314 N.4       1 <0>        -0.3888
      3 C2         -0.0444    1.4554    0.2873 C.3       1 <0>        -0.0476
      4 C3         -1.3695   -0.4996   -0.1331 C.3       1 <0>        -0.0017
      5 C4         -1.3621   -2.0295   -0.1432 C.3       1 <0>         0.0243
      6 O1         -1.0224   -2.5127    1.1580 O.3       1 <0>        -0.3284
      7 C5         -0.9712   -3.8609    1.3216 C.ar      1 <0>         0.1201
      8 C6         -1.2368   -4.7013    0.2502 C.ar      1 <0>        -0.2030
      9 C7         -1.1837   -6.0714    0.4189 C.ar      1 <0>        -0.0541
     10 C8         -0.8666   -6.6053    1.6543 C.ar      1 <0>        -0.1474
     11 C9         -0.6019   -5.7698    2.7238 C.ar      1 <0>        -0.0480
     12 C10        -0.6477   -4.3990    2.5587 C.ar      1 <0>        -0.1427
     13 C11        -0.8098   -8.1002    1.8357 C.3       1 <0>         0.4285
     14 N2         -1.1527   -8.4350    3.2232 N.pl3     1 <0>        -0.7473
     15 C12        -2.4897   -8.3780    3.6095 C.ar      1 <0>         0.2410
     16 C13        -2.8626   -8.0792    4.9062 C.ar      1 <0>        -0.2393
     17 C14        -4.2079   -8.0290    5.2398 C.ar      1 <0>         0.1720
     18 C15        -5.1850   -8.2782    4.2742 C.ar      1 <0>         0.0559
     19 C16        -4.8229   -8.5796    2.9767 C.ar      1 <0>        -0.0776
     20 C17        -3.4712   -8.6342    2.6344 C.ar      1 <0>        -0.2005
     21 C18        -3.0329   -8.9614    1.2680 C.2       1 <0>         0.5803
     22 O2         -3.8186   -9.4297    0.4662 O.2       1 <0>        -0.5298
     23 N3         -1.7509   -8.7361    0.9139 N.am      1 <0>        -0.7372
     24 O3         -6.5016   -8.2241    4.6141 O.3       1 <0>        -0.3052
     25 C19        -7.4503   -8.4893    3.5789 C.3       1 <0>         0.0243
     26 O4         -4.5769   -7.7360    6.5134 O.3       1 <0>        -0.2962
     27 C20        -3.5281   -7.4919    7.4528 C.3       1 <0>         0.0232
     28 H1          1.8730    0.0089   -0.7963 H         1 <0>         0.1275
     29 H2          0.8897   -1.4416   -1.1082 H         1 <0>         0.1210
     30 H3          0.4851    0.0966   -1.9073 H         1 <0>         0.1249
     31 H4          0.9658    1.8244    0.4649 H         1 <0>         0.1261
     32 H5         -0.4425    1.9089   -0.6204 H         1 <0>         0.1233
     33 H6         -0.6804    1.7164    1.1331 H         1 <0>         0.1249
     34 H7         -2.0438   -0.1446    0.6463 H         1 <0>         0.1429
     35 H8         -1.7080   -0.1315   -1.1017 H         1 <0>         0.1500
     36 H9         -2.3506   -2.3958   -0.4202 H         1 <0>         0.1092
     37 H10        -0.6274   -2.3845   -0.8658 H         1 <0>         0.0874
     38 H11        -1.4852   -4.2849   -0.7148 H         1 <0>         0.1287
     39 H12        -1.3903   -6.7261   -0.4148 H         1 <0>         0.1312
     40 H13        -0.3549   -6.1892    3.6878 H         1 <0>         0.1370
     41 H14        -0.4366   -3.7468    3.3932 H         1 <0>         0.1343
     42 H15         0.1993   -8.4518    1.6208 H         1 <0>         0.1201
     43 H16        -0.4638   -8.6898    3.8568 H         1 <0>         0.4165
     44 H17        -2.1101   -7.8854    5.6562 H         1 <0>         0.1443
     45 H18        -5.5806   -8.7715    2.2314 H         1 <0>         0.1492
     46 H19        -1.4475   -9.0004    0.0313 H         1 <0>         0.4102
     47 H20        -8.4598   -8.4138    3.9831 H         1 <0>         0.1041
     48 H21        -7.3250   -7.7625    2.7763 H         1 <0>         0.0538
     49 H22        -7.2899   -9.4940    3.1877 H         1 <0>         0.0575
     50 H23        -3.9592   -7.2704    8.4292 H         1 <0>         0.1058
     51 H24        -2.8943   -8.3755    7.5275 H         1 <0>         0.0593
     52 H25        -2.9310   -6.6436    7.1184 H         1 <0>         0.0568
     53 H26         0.3404   -0.4258    0.9781 H         1 <0>         0.4336
@<TRIPOS>BOND
     1    1    2 1
     2    1   28 1
     3    1   29 1
     4    1   30 1
     5    2    3 1
     6    2    4 1
     7    2   53 1
     8    3   31 1
     9    3   32 1
    10    3   33 1
    11    4    5 1
    12    4   34 1
    13    4   35 1
    14    5    6 1
    15    5   36 1
    16    5   37 1
    17    6    7 1
    18    7   12 ar
    19    7    8 ar
    20    8    9 ar
    21    8   38 1
    22    9   10 ar
    23    9   39 1
    24   10   11 ar
    25   10   13 1
    26   11   12 ar
    27   11   40 1
    28   12   41 1
    29   13   23 1
    30   13   14 1
    31   13   42 1
    32   14   15 1
    33   14   43 1
    34   15   20 ar
    35   15   16 ar
    36   16   17 ar
    37   16   44 1
    38   17   18 ar
    39   17   26 1
    40   18   19 ar
    41   18   24 1
    42   19   20 ar
    43   19   45 1
    44   20   21 1
    45   21   22 2
    46   21   23 am
    47   23   46 1
    48   24   25 1
    49   25   47 1
    50   25   48 1
    51   25   49 1
    52   26   27 1
    53   27   50 1
    54   27   51 1
    55   27   52 1
@<TRIPOS>MOLECULE
ZINC67415455
   55    57     0     0     0
SMALL
USER_CHARGES

@<TRIPOS>ATOM
      1 C1         -0.0184    1.5028    0.0103 C.3       1 <0>        -0.1777
      2 C2          0.0021   -0.0041    0.0020 C.2       1 <0>         0.5146
      3 O1          1.0605   -0.5961   -0.0113 O.2       1 <0>        -0.5345
      4 N1         -1.1558   -0.6938    0.0094 N.am      1 <0>        -0.7386
      5 C3         -1.1360   -2.1586    0.0013 C.3       1 <0>         0.1264
      6 C4         -2.5713   -2.6882    0.0122 C.3       1 <0>        -0.1209
      7 H1         -3.1248   -2.2568   -0.8219 H         1 <0>         0.1046
      8 C5         -3.2490   -2.3018    1.3300 C.3       1 <0>        -0.1362
      9 C6         -4.6572   -2.9028    1.3639 C.3       1 <0>        -0.1396
     10 C7         -4.5631   -4.4193    1.1831 C.3       1 <0>        -0.0228
     11 N2         -3.9305   -4.7237   -0.1060 N.4       1 <0>        -0.3684
     12 C8         -2.5546   -4.2126   -0.1197 C.3       1 <0>        -0.0020
     13 C9         -3.9129   -6.1784   -0.3098 C.3       1 <0>        -0.0229
     14 C10        -5.3268   -6.6860   -0.4290 C.2       1 <0>         0.4981
     15 O2         -6.2575   -5.9122   -0.3518 O.2       1 <0>        -0.4928
     16 N3         -5.5570   -8.0000   -0.6214 N.am      1 <0>        -0.5920
     17 C11        -6.8575   -8.4669   -0.7310 C.2       1 <0>         0.0001
     18 C12        -7.2803   -9.7702   -0.9228 C.2       1 <0>        -0.1649
     19 C13        -8.7220  -10.0009   -1.0056 C.2       1 <0>        -0.0911
     20 C14        -9.4639   -8.8861   -0.8823 C.2       1 <0>        -0.2219
     21 S1         -8.2807   -7.5830   -0.6545 S.3       1 <0>         0.3398
     22 C15       -10.9368   -9.1789   -0.9789 C.3       1 <0>        -0.0365
     23 C16       -11.0143  -10.5865   -1.6107 C.3       1 <0>        -0.1157
     24 C17        -9.6580  -11.1925   -1.1967 C.3       1 <0>        -0.0650
     25 C18        -6.3237  -10.8729   -1.0386 C.2       1 <0>         0.5206
     26 O3         -5.9636  -11.4727   -0.0436 O.2       1 <0>        -0.4850
     27 O4         -5.8419  -11.2235   -2.2487 O.3       1 <0>        -0.3455
     28 C19        -4.9124  -12.3081   -2.2875 C.3       1 <0>         0.0277
     29 H2          1.0042    1.8801    0.0026 H         1 <0>         0.0984
     30 H3         -0.5455    1.8639   -0.8728 H         1 <0>         0.0919
     31 H4         -0.5286    1.8543    0.9071 H         1 <0>         0.0918
     32 H5         -2.0023   -0.2203    0.0200 H         1 <0>         0.4037
     33 H6         -0.6258   -2.5101   -0.8955 H         1 <0>         0.0787
     34 H7         -0.6088   -2.5197    0.8844 H         1 <0>         0.0794
     35 H8         -2.6672   -2.6891    2.1664 H         1 <0>         0.0873
     36 H9         -3.3143   -1.2161    1.4017 H         1 <0>         0.0958
     37 H10        -5.1255   -2.6789    2.3224 H         1 <0>         0.1164
     38 H11        -5.2544   -2.4765    0.5578 H         1 <0>         0.0913
     39 H12        -3.9659   -4.8446    1.9897 H         1 <0>         0.1291
     40 H13        -5.5639   -4.8504    1.2069 H         1 <0>         0.1476
     41 H14        -2.0728   -4.4905   -1.0571 H         1 <0>         0.1388
     42 H15        -2.0000   -4.6429    0.7143 H         1 <0>         0.1381
     43 H16        -3.3652   -6.4107   -1.2231 H         1 <0>         0.1701
     44 H17        -3.4249   -6.6582    0.5386 H         1 <0>         0.1687
     45 H18        -4.8127   -8.6189   -0.6831 H         1 <0>         0.4269
     46 H19       -11.3894   -9.1820    0.0126 H         1 <0>         0.0923
     47 H20       -11.4285   -8.4471   -1.6198 H         1 <0>         0.0865
     48 H21       -11.8416  -11.1579   -1.1899 H         1 <0>         0.0912
     49 H22       -11.0981  -10.5230   -2.6957 H         1 <0>         0.0819
     50 H23        -9.2808  -11.8462   -1.9832 H         1 <0>         0.0787
     51 H24        -9.7610  -11.7451   -0.2628 H         1 <0>         0.0881
     52 H25        -4.0386  -12.0596   -1.6852 H         1 <0>         0.0619
     53 H26        -5.3849  -13.2060   -1.8890 H         1 <0>         0.0670
     54 H27        -4.6047  -12.4863   -3.3179 H         1 <0>         0.1092
     55 H28        -4.4566   -4.2884   -0.8488 H         1 <0>         0.4315
@<TRIPOS>BOND
     1    1    2 1
     2    1   29 1
     3    1   30 1
     4    1   31 1
     5    2    3 2
     6    2    4 am
     7    4    5 1
     8    4   32 1
     9    5    6 1
    10    5   33 1
    11    5   34 1
    12    6    7 1
    13    6   12 1
    14    6    8 1
    15    8    9 1
    16    8   35 1
    17    8   36 1
    18    9   10 1
    19    9   37 1
    20    9   38 1
    21   10   11 1
    22   10   39 1
    23   10   40 1
    24   11   12 1
    25   11   13 1
    26   11   55 1
    27   12   41 1
    28   12   42 1
    29   13   14 1
    30   13   43 1
    31   13   44 1
    32   14   15 2
    33   14   16 am
    34   16   17 1
    35   16   45 1
    36   17   21 1
    37   17   18 2
    38   18   19 1
    39   18   25 1
    40   19   24 1
    41   19   20 2
    42   20   21 1
    43   20   22 1
    44   22   23 1
    45   22   46 1
    46   22   47 1
    47   23   24 1
    48   23   48 1
    49   23   49 1
    50   24   50 1
    51   24   51 1
    52   25   26 2
    53   25   27 1
    54   27   28 1
    55   28   52 1
    56   28   53 1
    57   28   54 1
@<TRIPOS>MOLECULE
ZINC06442686
   70    73     0     0     0
SMALL
USER_CHARGES
3-(3-dimethylaminopropyl)-1-[2-(m-tolyl)ethyl]-1-[(7-oxo-3,6-dihydro-2H-[1,4]dioxino[2,3-g]quinolin-8-yl)methyl]thiourea
@<TRIPOS>ATOM
      1 C1         -0.6923    4.5844   -3.5052 C.3       1 <0>        -0.1218
      2 C2         -1.0665    3.2588   -2.8938 C.ar      1 <0>        -0.0744
      3 C3         -2.0782    2.5005   -3.4532 C.ar      1 <0>        -0.1188
      4 C4         -2.4211    1.2845   -2.8927 C.ar      1 <0>        -0.1145
      5 C5         -1.7497    0.8247   -1.7749 C.ar      1 <0>        -0.1278
      6 C6         -0.7416    1.5850   -1.2129 C.ar      1 <0>        -0.0842
      7 C7         -0.3980    2.8009   -1.7741 C.ar      1 <0>        -0.1077
      8 C8         -0.0127    1.0858    0.0080 C.3       1 <0>        -0.0920
      9 C9         -0.7288    1.5792    1.2668 C.3       1 <0>         0.0894
     10 N1         -0.0203    1.0939    2.4537 N.pl3     1 <0>        -0.5499
     11 C10         1.0523    1.8971    3.0459 C.3       1 <0>         0.1731
     12 C11         0.4718    2.8248    4.0818 C.2       1 <0>        -0.2365
     13 C12         0.4591    2.4564    5.3882 C.2       1 <0>         0.0425
     14 C13        -0.1061    3.3810    6.3701 C.ar      1 <0>        -0.1356
     15 C14        -0.1422    3.0562    7.7316 C.ar      1 <0>        -0.0437
     16 C15        -0.6858    3.9460    8.6339 C.ar      1 <0>         0.0247
     17 C16        -1.1998    5.1692    8.1935 C.ar      1 <0>         0.1203
     18 C17        -1.1690    5.4984    6.8492 C.ar      1 <0>        -0.1700
     19 C18        -0.6257    4.6130    5.9276 C.ar      1 <0>         0.1971
     20 N2         -0.5879    4.9245    4.5835 N.am      1 <0>        -0.6262
     21 H1         -0.9463    5.7730    4.2793 H         1 <0>         0.4177
     22 C19        -0.0612    4.0694    3.6899 C.2       1 <0>         0.5473
     23 O1         -0.0445    4.3780    2.5105 O.2       1 <0>        -0.5432
     24 O2         -1.7342    6.0544    9.0777 O.3       1 <0>        -0.3000
     25 C20        -2.0916    5.5423   10.3657 C.3       1 <0>         0.0187
     26 C21        -0.9290    4.6838   10.8818 C.3       1 <0>         0.0190
     27 O3         -0.7159    3.6141    9.9546 O.3       1 <0>        -0.3028
     28 C22        -0.3552   -0.0914    3.0008 C.2       1 <0>         0.5613
     29 S1          0.4728   -0.6585    4.3877 S.2       1 <0>        -0.6341
     30 N3         -1.3420   -0.8302    2.4560 N.pl3     1 <0>        -0.6969
     31 C23        -1.7061   -2.1187    3.0506 C.3       1 <0>         0.1308
     32 C24        -2.8454   -2.7479    2.2463 C.3       1 <0>        -0.1689
     33 C25        -3.2256   -4.0935    2.8674 C.3       1 <0>        -0.0001
     34 C26        -3.8748   -5.0511    0.7404 C.3       1 <0>        -0.0480
     35 C27        -4.8709   -5.8682    2.7905 C.3       1 <0>        -0.0428
     36 H2          0.0840    4.4324   -4.2551 H         1 <0>         0.0747
     37 H3         -1.5698    5.0283   -3.9755 H         1 <0>         0.0693
     38 H4         -0.3205    5.2513   -2.7273 H         1 <0>         0.0703
     39 H5         -2.6003    2.8581   -4.3283 H         1 <0>         0.1242
     40 H6         -3.2111    0.6920   -3.3299 H         1 <0>         0.1215
     41 H7         -2.0151   -0.1272   -1.3392 H         1 <0>         0.1114
     42 H8          0.3925    3.3932   -1.3373 H         1 <0>         0.1260
     43 H9          0.0021   -0.0041    0.0020 H         1 <0>         0.0703
     44 H10         1.0099    1.4631    0.0003 H         1 <0>         0.0869
     45 H11        -0.7436    2.6691    1.2728 H         1 <0>         0.1202
     46 H12        -1.7514    1.2020    1.2746 H         1 <0>         0.0715
     47 H13         1.7821    1.2382    3.5164 H         1 <0>         0.1264
     48 H14         1.5405    2.4824    2.2667 H         1 <0>         0.1044
     49 H15         0.8614    1.5027    5.6963 H         1 <0>         0.1690
     50 H16         0.2542    2.1116    8.0739 H         1 <0>         0.1524
     51 H17        -1.5696    6.4445    6.5165 H         1 <0>         0.1477
     52 H18        -2.9905    4.9314   10.2818 H         1 <0>         0.0831
     53 H19        -2.2713    6.3690   11.0530 H         1 <0>         0.1297
     54 H20        -1.1792    4.2768   11.8615 H         1 <0>         0.1285
     55 H21        -0.0271    5.2914   10.9556 H         1 <0>         0.0824
     56 H22        -1.8112   -0.5089    1.6701 H         1 <0>         0.3977
     57 H23        -0.8417   -2.7825    3.0367 H         1 <0>         0.0975
     58 H24        -2.0297   -1.9652    4.0801 H         1 <0>         0.0961
     59 H25        -3.7098   -2.0840    2.2603 H         1 <0>         0.0931
     60 H26        -2.5218   -2.9013    1.2168 H         1 <0>         0.0940
     61 H27        -2.3612   -4.7573    2.8534 H         1 <0>         0.1387
     62 H28        -3.5493   -3.9400    3.8968 H         1 <0>         0.1365
     63 H29        -3.0544   -5.7660    0.8023 H         1 <0>         0.1256
     64 H30        -4.7040   -5.4963    0.1904 H         1 <0>         0.1240
     65 H31        -3.5362   -4.1533    0.2233 H         1 <0>         0.1202
     66 H32        -5.2564   -5.5644    3.7637 H         1 <0>         0.1231
     67 H33        -5.6789   -6.2961    2.1970 H         1 <0>         0.1236
     68 H34        -4.0865   -6.6127    2.9266 H         1 <0>         0.1250
     69 N4         -4.3404   -4.6781    2.0927 N.4       1 <0>        -0.3979
     70 H35        -5.0889   -3.9805    2.0071 H         1 <0>         0.4309
@<TRIPOS>BOND
     1    1    2 1
     2    1   36 1
     3    1   37 1
     4    1   38 1
     5    2    7 ar
     6    2    3 ar
     7    3    4 ar
     8    3   39 1
     9    4    5 ar
    10    4   40 1
    11    5    6 ar
    12    5   41 1
    13    6    7 ar
    14    6    8 1
    15    7   42 1
    16    8    9 1
    17    8   43 1
    18    8   44 1
    19    9   10 1
    20    9   45 1
    21    9   46 1
    22   10   11 1
    23   10   28 1
    24   11   12 1
    25   11   47 1
    26   11   48 1
    27   12   22 1
    28   12   13 2
    29   13   14 1
    30   13   49 1
    31   14   19 ar
    32   14   15 ar
    33   15   16 ar
    34   15   50 1
    35   16   27 1
    36   16   17 ar
    37   17   18 ar
    38   17   24 1
    39   18   19 ar
    40   18   51 1
    41   19   20 1
    42   20   21 1
    43   20   22 am
    44   22   23 2
    45   24   25 1
    46   25   26 1
    47   25   52 1
    48   25   53 1
    49   26   27 1
    50   26   54 1
    51   26   55 1
    52   28   29 2
    53   28   30 1
    54   30   31 1
    55   30   56 1
    56   31   32 1
    57   31   57 1
    58   31   58 1
    59   32   33 1
    60   32   59 1
    61   32   60 1
    62   33   61 1
    63   33   62 1
    64   33   69 1
    65   34   63 1
    66   34   64 1
    67   34   65 1
    68   34   69 1
    69   35   66 1
    70   35   67 1
    71   35   68 1
    72   35   69 1
    73   69   70 1
@<TRIPOS>MOLECULE
ZINC20682082
   73    75     0     0     0
SMALL
USER_CHARGES
N-[3-(dipropylamino)propyl]-6-[(4-methyl-1-piperidyl)sulfonyl]-2-oxo-1H-quinoline-4-carboxamide
@<TRIPOS>ATOM
      1 C1         -5.2667   -1.7151  -11.5626 C.3       1 <0>        -0.1587
      2 C2         -4.9960   -0.2573  -11.9398 C.3       1 <0>        -0.1504
      3 C3         -4.7275    0.5562  -10.6721 C.3       1 <0>        -0.0125
      4 N1         -4.4676    1.9559  -11.0343 N.4       1 <0>        -0.4001
      5 C4         -5.6671    2.5835  -11.6048 C.3       1 <0>        -0.0150
      6 C5         -5.2628    3.8250  -12.4023 C.3       1 <0>        -0.1500
      7 C6         -6.5190    4.5463  -12.8947 C.3       1 <0>        -0.1588
      8 C7         -3.9751    2.7162   -9.8779 C.3       1 <0>        -0.0077
      9 C8         -2.5110    2.3564   -9.6171 C.3       1 <0>        -0.1632
     10 C9         -2.0334    3.0550   -8.3424 C.3       1 <0>         0.1243
     11 N2         -0.6015    2.8071   -8.1569 N.am      1 <0>        -0.7372
     12 C10         0.0189    3.2424   -7.0424 C.2       1 <0>         0.5626
     13 O1         -0.5862    3.9195   -6.2354 O.2       1 <0>        -0.5035
     14 C11         1.4404    2.8946   -6.8011 C.2       1 <0>        -0.0285
     15 C12         2.1711    2.2442   -7.7536 C.2       1 <0>        -0.1579
     16 C13         3.5695    1.9152   -7.4864 C.2       1 <0>         0.5377
     17 O2          4.2224    1.3356   -8.3360 O.2       1 <0>        -0.5145
     18 N3          4.1463    2.2421   -6.3168 N.am      1 <0>        -0.6393
     19 H1          5.2002    1.9862   -6.1328 H         1 <0>         0.4534
     20 C14         3.4428    2.8980   -5.3294 C.ar      1 <0>         0.2416
     21 C15         2.0937    3.2410   -5.5296 C.ar      1 <0>        -0.1403
     22 C16         1.3878    3.9053   -4.5225 C.ar      1 <0>         0.0473
     23 C17         2.0118    4.2181   -3.3481 C.ar      1 <0>        -0.7098
     24 C18         3.3448    3.8867   -3.1479 C.ar      1 <0>         0.0314
     25 C19         4.0586    3.2272   -4.1247 C.ar      1 <0>        -0.1811
     26 S1          1.1195    5.0555   -2.0803 S.o2      1 <0>         2.6896
     27 O3         -0.0128    5.6465   -2.7032 O.2       1 <0>        -0.9485
     28 O4          2.0708    5.8168   -1.3492 O.2       1 <0>        -0.9488
     29 N4          0.5407    3.9004   -1.0444 N.pl3     1 <0>        -0.9944
     30 C20         1.3787    3.3869    0.0478 C.3       1 <0>         0.1164
     31 C21         1.4270    1.8585   -0.0446 C.3       1 <0>        -0.1317
     32 C22        -0.0004    1.3066   -0.0545 C.3       1 <0>        -0.0916
     33 C23        -0.7473    1.8412   -1.2787 C.3       1 <0>        -0.1293
     34 C24        -0.8203    3.3694   -1.2002 C.3       1 <0>         0.1153
     35 C25         0.0443   -0.2216   -0.1120 C.3       1 <0>        -0.1494
     36 H2         -5.4597   -2.2999  -12.4741 H         1 <0>         0.0783
     37 H3         -6.1445   -1.7659  -10.9016 H         1 <0>         0.0673
     38 H4         -4.3905   -2.1276  -11.0410 H         1 <0>         0.0674
     39 H5         -4.1182   -0.2065  -12.6008 H         1 <0>         0.0867
     40 H6         -5.8722    0.1552  -12.4615 H         1 <0>         0.0861
     41 H7         -5.6053    0.5054  -10.0111 H         1 <0>         0.1286
     42 H8         -3.8513    0.1437  -10.1504 H         1 <0>         0.1310
     43 H9         -6.1734    1.8689  -12.2704 H         1 <0>         0.1341
     44 H10        -6.3496    2.8754  -10.7930 H         1 <0>         0.1289
     45 H11        -4.6806    4.5007  -11.7586 H         1 <0>         0.0845
     46 H12        -4.6512    3.5233  -13.2654 H         1 <0>         0.0875
     47 H13        -6.2283    5.4389  -13.4681 H         1 <0>         0.0783
     48 H14        -7.1306    4.8480  -12.0316 H         1 <0>         0.0673
     49 H15        -7.1012    3.8705  -13.5384 H         1 <0>         0.0678
     50 H16        -4.0566    3.7933  -10.0856 H         1 <0>         0.1370
     51 H17        -4.5774    2.4671   -8.9918 H         1 <0>         0.1333
     52 H18        -2.4172    1.2672   -9.4954 H         1 <0>         0.0950
     53 H19        -1.8956    2.6847  -10.4677 H         1 <0>         0.0982
     54 H20        -2.2099    4.1373   -8.4293 H         1 <0>         0.0824
     55 H21        -2.5887    2.6612   -7.4784 H         1 <0>         0.0844
     56 H22        -0.0327    2.2657   -8.9272 H         1 <0>         0.4264
     57 H23         1.7195    1.9761   -8.6973 H         1 <0>         0.1586
     58 H24         0.3517    4.1708   -4.6726 H         1 <0>         0.1831
     59 H25         3.8258    4.1445   -2.2159 H         1 <0>         0.1497
     60 H26         5.0939    2.9693   -3.9577 H         1 <0>         0.1493
     61 H27         2.3946    3.7984   -0.0449 H         1 <0>         0.0901
     62 H28         0.9476    3.6887    1.0138 H         1 <0>         0.0806
     63 H29         1.9422    1.5633   -0.9705 H         1 <0>         0.0666
     64 H30         1.9714    1.4558    0.8223 H         1 <0>         0.0794
     65 H31        -0.5221    1.6243    0.8603 H         1 <0>         0.0760
     66 H32        -0.2123    1.5447   -2.1930 H         1 <0>         0.0646
     67 H33        -1.7652    1.4246   -1.2981 H         1 <0>         0.0761
     68 H34        -1.4321    3.6697   -0.3368 H         1 <0>         0.0789
     69 H35        -1.2666    3.7693   -2.1226 H         1 <0>         0.0939
     70 H36        -0.9816   -0.6184   -0.1191 H         1 <0>         0.0557
     71 H37         0.5801   -0.6061    0.7684 H         1 <0>         0.0579
     72 H38         0.5666   -0.5390   -1.0266 H         1 <0>         0.0523
     73 H39        -3.6822    1.9655  -11.8044 H         1 <0>         0.4395
@<TRIPOS>BOND
     1    1    2 1
     2    1   36 1
     3    1   37 1
     4    1   38 1
     5    2    3 1
     6    2   39 1
     7    2   40 1
     8    3    4 1
     9    3   41 1
    10    3   42 1
    11    4    5 1
    12    4    8 1
    13    4   73 1
    14    5    6 1
    15    5   43 1
    16    5   44 1
    17    6    7 1
    18    6   45 1
    19    6   46 1
    20    7   47 1
    21    7   48 1
    22    7   49 1
    23    8    9 1
    24    8   50 1
    25    8   51 1
    26    9   10 1
    27    9   52 1
    28    9   53 1
    29   10   11 1
    30   10   54 1
    31   10   55 1
    32   11   12 am
    33   11   56 1
    34   12   13 2
    35   12   14 1
    36   14   21 1
    37   14   15 2
    38   15   16 1
    39   15   57 1
    40   16   17 2
    41   16   18 am
    42   18   19 1
    43   18   20 1
    44   20   25 ar
    45   20   21 ar
    46   21   22 ar
    47   22   23 ar
    48   22   58 1
    49   23   24 ar
    50   23   26 1
    51   24   25 ar
    52   24   59 1
    53   25   60 1
    54   26   27 2
    55   26   28 2
    56   26   29 1
    57   29   34 1
    58   29   30 1
    59   30   31 1
    60   30   61 1
    61   30   62 1
    62   31   32 1
    63   31   63 1
    64   31   64 1
    65   32   33 1
    66   32   35 1
    67   32   65 1
    68   33   34 1
    69   33   66 1
    70   33   67 1
    71   34   68 1
    72   34   69 1
    73   35   70 1
    74   35   71 1
    75   35   72 1
@<TRIPOS>MOLECULE
ZINC35745956
   72    75     0     0     0
SMALL
USER_CHARGES

@<TRIPOS>ATOM
      1 C1         -1.1793    2.3635    0.1899 C.3       1 <0>        -0.1504
      2 C2         -0.9082    0.8583    0.2328 C.3       1 <0>        -0.0944
      3 C3         -0.2818    0.4912    1.5795 C.3       1 <0>        -0.1460
      4 C4         -2.2243    0.0979    0.0583 C.3       1 <0>         0.0664
      5 O1         -1.9579   -1.3040   -0.0184 O.3       1 <0>        -0.3709
      6 C5         -3.1267   -2.1096   -0.1827 C.3       1 <0>         0.0332
      7 C6         -2.7242   -3.5840   -0.2522 C.3       1 <0>         0.0914
      8 H1         -2.1385   -3.8427    0.6300 H         1 <0>         0.1287
      9 C7         -3.9817   -4.4541   -0.3027 C.3       1 <0>        -0.0500
     10 N1         -3.5989   -5.8714   -0.2487 N.4       1 <0>        -0.3663
     11 C8         -2.9775   -6.1616    1.0504 C.3       1 <0>        -0.0197
     12 C9         -2.4638   -7.6027    1.0595 C.3       1 <0>         0.0251
     13 N2         -1.7369   -7.8556    2.3107 N.3       1 <0>        -0.5275
     14 C10        -0.5072   -7.0526    2.3771 C.3       1 <0>         0.0066
     15 C11         0.1864   -7.3012    3.7191 C.3       1 <0>         0.0611
     16 O2          0.4449   -8.7003    3.8644 O.3       1 <0>        -0.3777
     17 C12        -0.7310   -9.5122    3.8052 C.3       1 <0>         0.0605
     18 C13        -1.4339   -9.2860    2.4641 C.3       1 <0>         0.0176
     19 C14        -4.7944   -6.7082   -0.4174 C.3       1 <0>         0.0493
     20 C15        -5.3350   -6.5362   -1.8136 C.2       1 <0>         0.3592
     21 N3         -6.5114   -7.1242   -2.1507 N.am      1 <0>        -0.6216
     22 H2         -6.9886   -7.6475   -1.4878 H         1 <0>         0.4280
     23 C16        -7.0289   -6.9949   -3.3864 C.2       1 <0>         0.5531
     24 O3         -8.0866   -7.5288   -3.6733 O.2       1 <0>        -0.4757
     25 C17        -6.3185   -6.2206   -4.3585 C.2       1 <0>        -0.2022
     26 C18        -6.6675   -5.9355   -5.7451 C.2       1 <0>        -0.0221
     27 C19        -5.8300   -5.1677   -6.4831 C.2       1 <0>        -0.1552
     28 S1         -4.5136   -4.7815   -5.3450 S.3       1 <0>         0.2020
     29 C20        -5.1123   -5.6511   -3.9191 C.2       1 <0>         0.0667
     30 N4         -4.6664   -5.8197   -2.6770 N.2       1 <0>        -0.4916
     31 C21        -7.9148   -6.4760   -6.3364 C.ar      1 <0>        -0.0548
     32 C22        -8.2208   -7.8300   -6.2070 C.ar      1 <0>        -0.0495
     33 C23        -9.3834   -8.3279   -6.7589 C.ar      1 <0>        -0.1115
     34 C24       -10.2453   -7.4854   -7.4401 C.ar      1 <0>        -0.0209
     35 C25        -9.9460   -6.1401   -7.5718 C.ar      1 <0>        -0.1137
     36 C26        -8.7889   -5.6309   -7.0188 C.ar      1 <0>        -0.0864
     37 Cl1       -11.7063   -8.1182   -8.1320 Cl        1 <0>        -0.0598
     38 O4         -1.9415   -3.8093   -1.4264 O.3       1 <0>        -0.5389
     39 H3         -0.2417    2.9053    0.3142 H         1 <0>         0.0671
     40 H4         -1.6256    2.6251   -0.7695 H         1 <0>         0.0578
     41 H5         -1.8638    2.6325    0.9944 H         1 <0>         0.0579
     42 H6         -0.2237    0.5894   -0.5717 H         1 <0>         0.0805
     43 H7         -0.0887   -0.5811    1.6101 H         1 <0>         0.0592
     44 H8          0.6558    1.0329    1.7039 H         1 <0>         0.0587
     45 H9         -0.9663    0.7602    2.3840 H         1 <0>         0.0531
     46 H10        -2.8752    0.2981    0.9094 H         1 <0>         0.0535
     47 H11        -2.7143    0.4253   -0.8587 H         1 <0>         0.0531
     48 H12        -3.7963   -1.9552    0.6634 H         1 <0>         0.0665
     49 H13        -3.6354   -1.8280   -1.1047 H         1 <0>         0.0628
     50 H14        -4.6214   -4.2179    0.5476 H         1 <0>         0.1434
     51 H15        -4.5217   -4.2587   -1.2291 H         1 <0>         0.1467
     52 H16        -2.1447   -5.4780    1.2156 H         1 <0>         0.1420
     53 H17        -3.7151   -6.0338    1.8427 H         1 <0>         0.1474
     54 H18        -3.3069   -8.2894    0.9840 H         1 <0>         0.0990
     55 H19        -1.7942   -7.7551    0.2130 H         1 <0>         0.0630
     56 H20         0.1595   -7.3399    1.5640 H         1 <0>         0.0558
     57 H21        -0.7575   -5.9955    2.2870 H         1 <0>         0.0873
     58 H22         1.1275   -6.7521    3.7496 H         1 <0>         0.1061
     59 H23        -0.4589   -6.9641    4.5303 H         1 <0>         0.0648
     60 H24        -0.4534  -10.5622    3.8981 H         1 <0>         0.1072
     61 H25        -1.4030   -9.2394    4.6189 H         1 <0>         0.0654
     62 H26        -2.3606   -9.8592    2.4376 H         1 <0>         0.0941
     63 H27        -0.7820   -9.6090    1.6525 H         1 <0>         0.0540
     64 H28        -4.5319   -7.7537   -0.2557 H         1 <0>         0.1691
     65 H29        -5.5531   -6.4080    0.3054 H         1 <0>         0.1694
     66 H30        -5.9347   -4.8629   -7.5140 H         1 <0>         0.2094
     67 H31        -7.5489   -8.4881   -5.6761 H         1 <0>         0.1247
     68 H32        -9.6211   -9.3767   -6.6596 H         1 <0>         0.1362
     69 H33       -10.6214   -5.4873   -8.1047 H         1 <0>         0.1392
     70 H34        -8.5587   -4.5804   -7.1180 H         1 <0>         0.1338
     71 H35        -2.4006   -3.5997   -2.2513 H         1 <0>         0.3898
     72 H36        -2.9418   -6.0707   -0.9879 H         1 <0>         0.4401
@<TRIPOS>BOND
     1    1    2 1
     2    1   39 1
     3    1   40 1
     4    1   41 1
     5    2    3 1
     6    2    4 1
     7    2   42 1
     8    3   43 1
     9    3   44 1
    10    3   45 1
    11    4    5 1
    12    4   46 1
    13    4   47 1
    14    5    6 1
    15    6    7 1
    16    6   48 1
    17    6   49 1
    18    7    8 1
    19    7    9 1
    20    7   38 1
    21    9   10 1
    22    9   50 1
    23    9   51 1
    24   10   11 1
    25   10   19 1
    26   10   72 1
    27   11   12 1
    28   11   52 1
    29   11   53 1
    30   12   13 1
    31   12   54 1
    32   12   55 1
    33   13   18 1
    34   13   14 1
    35   14   15 1
    36   14   56 1
    37   14   57 1
    38   15   16 1
    39   15   58 1
    40   15   59 1
    41   16   17 1
    42   17   18 1
    43   17   60 1
    44   17   61 1
    45   18   62 1
    46   18   63 1
    47   19   20 1
    48   19   64 1
    49   19   65 1
    50   20   30 2
    51   20   21 1
    52   21   22 1
    53   21   23 am
    54   23   24 2
    55   23   25 1
    56   25   29 2
    57   25   26 1
    58   26   27 2
    59   26   31 1
    60   27   28 1
    61   27   66 1
    62   28   29 1
    63   29   30 1
    64   31   36 ar
    65   31   32 ar
    66   32   33 ar
    67   32   67 1
    68   33   34 ar
    69   33   68 1
    70   34   35 ar
    71   34   37 1
    72   35   36 ar
    73   35   69 1
    74   36   70 1
    75   38   71 1
@<TRIPOS>MOLECULE
ZINC36207471
   63    65     0     0     0
SMALL
USER_CHARGES

@<TRIPOS>ATOM
      1 C1          0.0918    1.1843    0.5228 C.3       1 <0>        -0.1305
      2 C2         -0.0183   -0.3145    0.4106 C.2       1 <0>         0.0294
      3 C3          0.0613   -0.9303   -0.8398 C.2       1 <0>        -0.2234
      4 C4          0.2501   -0.3174   -2.1745 C.2       1 <0>         0.5641
      5 O1          0.3615    0.8894   -2.2979 O.2       1 <0>        -0.4700
      6 N1          0.2959   -1.1291   -3.2489 N.am      1 <0>        -0.6227
      7 H1          0.4194   -0.7437   -4.1305 H         1 <0>         0.4306
      8 C5          0.1736   -2.4735   -3.1234 C.2       1 <0>         0.3801
      9 N2          0.0062   -3.0459   -1.9622 N.2       1 <0>        -0.4952
     10 C6         -0.0531   -2.3396   -0.8406 C.2       1 <0>         0.0762
     11 S1         -0.2639   -2.7326    0.8775 S.3       1 <0>         0.2753
     12 C7         -0.1906   -1.0737    1.5320 C.2       1 <0>        -0.2166
     13 C8         -0.2930   -0.6355    2.9256 C.2       1 <0>         0.5512
     14 O2         -0.2241    0.5479    3.1976 O.2       1 <0>        -0.4718
     15 O3         -0.4636   -1.5445    3.9076 O.3       1 <0>        -0.3418
     16 C9         -0.5554   -1.0465    5.2438 C.3       1 <0>         0.0814
     17 C10        -2.0190   -0.7530    5.5793 C.3       1 <0>        -0.1745
     18 C11        -0.0092   -2.0932    6.2169 C.3       1 <0>        -0.1516
     19 C12         0.2320   -3.3320   -4.3606 C.3       1 <0>         0.0435
     20 N3          0.0782   -4.7437   -3.9846 N.4       1 <0>        -0.3646
     21 C13        -1.2633   -4.9582   -3.4257 C.3       1 <0>         0.0179
     22 C14        -1.3709   -6.3683   -2.9049 C.2       1 <0>        -0.2387
     23 C15        -1.7155   -6.5819   -1.6592 C.2       1 <0>        -0.0912
     24 C16         0.2544   -5.5889   -5.1731 C.3       1 <0>        -0.0481
     25 C17         1.6979   -5.4785   -5.6680 C.3       1 <0>         0.0833
     26 H2          1.9172   -4.4409   -5.9200 H         1 <0>         0.1329
     27 C18         1.8799   -6.3542   -6.9093 C.3       1 <0>         0.0272
     28 O4          3.1929   -6.1619   -7.4396 O.3       1 <0>        -0.2992
     29 C19         3.5193   -6.8718   -8.5518 C.ar      1 <0>         0.1229
     30 C20         2.5927   -7.7311   -9.1240 C.ar      1 <0>        -0.1966
     31 C21         2.9262   -8.4517  -10.2544 C.ar      1 <0>        -0.0694
     32 C22         4.1838   -8.3171  -10.8157 C.ar      1 <0>        -0.0651
     33 C23         5.1095   -7.4609  -10.2461 C.ar      1 <0>        -0.0670
     34 C24         4.7774   -6.7336   -9.1196 C.ar      1 <0>        -0.1308
     35 Cl1         4.6008   -9.2242  -12.2359 Cl        1 <0>        -0.0563
     36 O5          2.5887   -5.9176   -4.6405 O.3       1 <0>        -0.5420
     37 H3          1.1377    1.4632    0.6511 H         1 <0>         0.0889
     38 H4         -0.2988    1.6462   -0.3840 H         1 <0>         0.0883
     39 H5         -0.4839    1.5276    1.3824 H         1 <0>         0.0977
     40 H6          0.0282   -0.1300    5.3309 H         1 <0>         0.0900
     41 H7         -2.6026   -1.6695    5.4922 H         1 <0>         0.0681
     42 H8         -2.0891   -0.3731    6.5985 H         1 <0>         0.0812
     43 H9         -2.4082   -0.0072    4.8860 H         1 <0>         0.0623
     44 H10         1.0335   -2.3024    5.9780 H         1 <0>         0.0663
     45 H11        -0.0792   -1.7133    7.2362 H         1 <0>         0.0849
     46 H12        -0.5928   -3.0097    6.1299 H         1 <0>         0.0697
     47 H13        -0.5722   -3.0469   -5.0389 H         1 <0>         0.1712
     48 H14         1.1925   -3.1905   -4.8560 H         1 <0>         0.1695
     49 H15        -1.4337   -4.2556   -2.6100 H         1 <0>         0.1495
     50 H16        -2.0105   -4.8002   -4.2035 H         1 <0>         0.1333
     51 H17        -1.1639   -7.2027   -3.5586 H         1 <0>         0.1316
     52 H18        -1.9226   -5.7475   -1.0055 H         1 <0>         0.1120
     53 H19        -1.7927   -7.5924   -1.2860 H         1 <0>         0.1238
     54 H20         0.0364   -6.6258   -4.9171 H         1 <0>         0.1489
     55 H21        -0.4252   -5.2580   -5.9584 H         1 <0>         0.1501
     56 H22         1.7476   -7.4015   -6.6377 H         1 <0>         0.0804
     57 H23         1.1405   -6.0775   -7.6608 H         1 <0>         0.0849
     58 H24         1.6112   -7.8369   -8.6858 H         1 <0>         0.1339
     59 H25         2.2051   -9.1208  -10.7002 H         1 <0>         0.1400
     60 H26         6.0907   -7.3575  -10.6854 H         1 <0>         0.1461
     61 H27         5.4986   -6.0617   -8.6781 H         1 <0>         0.1434
     62 H28         2.5016   -6.8548   -4.4186 H         1 <0>         0.3941
     63 H29         0.7729   -4.9855   -3.2940 H         1 <0>         0.4409
@<TRIPOS>BOND
     1    1    2 1
     2    1   37 1
     3    1   38 1
     4    1   39 1
     5    2   12 2
     6    2    3 1
     7    3   10 2
     8    3    4 1
     9    4    5 2
    10    4    6 am
    11    6    7 1
    12    6    8 1
    13    8    9 2
    14    8   19 1
    15    9   10 1
    16   10   11 1
    17   11   12 1
    18   12   13 1
    19   13   14 2
    20   13   15 1
    21   15   16 1
    22   16   17 1
    23   16   18 1
    24   16   40 1
    25   17   41 1
    26   17   42 1
    27   17   43 1
    28   18   44 1
    29   18   45 1
    30   18   46 1
    31   19   20 1
    32   19   47 1
    33   19   48 1
    34   20   21 1
    35   20   24 1
    36   20   63 1
    37   21   22 1
    38   21   49 1
    39   21   50 1
    40   22   23 2
    41   22   51 1
    42   23   52 1
    43   23   53 1
    44   24   25 1
    45   24   54 1
    46   24   55 1
    47   25   26 1
    48   25   27 1
    49   25   36 1
    50   27   28 1
    51   27   56 1
    52   27   57 1
    53   28   29 1
    54   29   34 ar
    55   29   30 ar
    56   30   31 ar
    57   30   58 1
    58   31   32 ar
    59   31   59 1
    60   32   33 ar
    61   32   35 1
    62   33   34 ar
    63   33   60 1
    64   34   61 1
    65   36   62 1
@<TRIPOS>MOLECULE
ZINC27215471
   57    59     0     0     0
SMALL
USER_CHARGES

@<TRIPOS>ATOM
      1 C1          2.8793   14.9959   -3.5293 C.ar      1 <0>        -0.1638
      2 C2          3.8529   14.1226   -3.0683 C.ar      1 <0>        -0.0544
      3 C3          3.4915   12.8101   -2.8067 C.ar      1 <0>        -0.2010
      4 C4          2.1820   12.4183   -3.0125 C.ar      1 <0>         0.1174
      5 N1          1.2825   13.2762   -3.4523 N.ar      1 <0>        -0.4748
      6 C5          1.5903   14.5321   -3.7112 C.ar      1 <0>         0.1225
      7 C6          4.5134   11.8229   -2.3047 C.3       1 <0>         0.1417
      8 H1          5.3157   12.3574   -1.7960 H         1 <0>         0.1343
      9 C7          5.0907   11.0411   -3.4864 C.3       1 <0>        -0.0428
     10 N2          6.0869   10.0787   -2.9970 N.4       1 <0>        -0.5055
     11 C8          6.6412    9.3281   -4.1316 C.3       1 <0>        -0.0072
     12 C9          7.6788    8.3258   -3.6220 C.3       1 <0>        -0.0992
     13 C10         8.1625    7.4765   -4.7690 C.ar      1 <0>        -0.1184
     14 C11         7.4525    6.3477   -5.1375 C.ar      1 <0>        -0.0891
     15 C12         7.8900    5.5659   -6.1867 C.ar      1 <0>        -0.1600
     16 C13         9.0512    5.9162   -6.8770 C.ar      1 <0>         0.1402
     17 C14         9.7624    7.0563   -6.5006 C.ar      1 <0>        -0.0982
     18 C15         9.3115    7.8322   -5.4526 C.ar      1 <0>        -0.0856
     19 N3          9.4917    5.1430   -7.9207 N.2       1 <0>        -0.5334
     20 C16         8.7058    4.9046   -8.9316 C.2       1 <0>         0.4327
     21 C17         9.2724    4.8341  -10.3262 C.3       1 <0>         0.0042
     22 N4         10.7344    4.9026  -10.2634 N.pl3     1 <0>        -0.0112
     23 O1         11.3361    4.2418   -9.4491 O.2       1 <0>        -0.0970
     24 O2         11.3393    5.6198  -11.0258 O.3       1 <0>        -0.1628
     25 N5          7.3649    4.7180   -8.7272 N.pl3     1 <0>        -0.6773
     26 C18         6.4485    5.0942   -9.7135 C.ar      1 <0>         0.1753
     27 C19         6.7867    4.9832  -11.0561 C.ar      1 <0>        -0.1830
     28 C20         5.8786    5.3559  -12.0293 C.ar      1 <0>         0.0143
     29 C21         4.6337    5.8397  -11.6671 C.ar      1 <0>        -0.1170
     30 C22         4.2943    5.9518  -10.3302 C.ar      1 <0>         0.0107
     31 C23         5.1960    5.5743   -9.3529 C.ar      1 <0>        -0.1359
     32 Cl1         2.7318    6.5598   -9.8801 Cl        1 <0>        -0.0385
     33 Cl2         6.3005    5.2175  -13.7076 Cl        1 <0>        -0.0296
     34 O3          3.8916   10.9162   -1.3919 O.3       1 <0>        -0.5457
     35 H2          3.1243   16.0266   -3.7392 H         1 <0>         0.1476
     36 H3          4.8686   14.4570   -2.9171 H         1 <0>         0.1413
     37 H4          1.8923   11.3975   -2.8110 H         1 <0>         0.1526
     38 H5          0.8262   15.2060   -4.0696 H         1 <0>         0.1674
     39 H6          4.2885   10.5066   -3.9951 H         1 <0>         0.1372
     40 H7          5.5651   11.7327   -4.1826 H         1 <0>         0.1448
     41 H8          6.8295   10.5735   -2.5261 H         1 <0>         0.4305
     42 H9          5.8389    8.7936   -4.6403 H         1 <0>         0.1319
     43 H10         7.1155   10.0197   -4.8279 H         1 <0>         0.1343
     44 H11         8.5213    8.8641   -3.1878 H         1 <0>         0.0992
     45 H12         7.2255    7.6877   -2.8633 H         1 <0>         0.0969
     46 H13         6.5541    6.0778   -4.6024 H         1 <0>         0.1267
     47 H14         7.3353    4.6846   -6.4730 H         1 <0>         0.1185
     48 H15        10.6620    7.3325   -7.0306 H         1 <0>         0.1380
     49 H16         9.8588    8.7171   -5.1629 H         1 <0>         0.1334
     50 H17         8.9723    3.8961  -10.7933 H         1 <0>         0.1659
     51 H18         8.8944    5.6702  -10.9146 H         1 <0>         0.1704
     52 H19         7.0508    4.3248   -7.8979 H         1 <0>         0.4272
     53 H20         7.7583    4.6063  -11.3394 H         1 <0>         0.1536
     54 H21         3.9259    6.1307  -12.4291 H         1 <0>         0.1545
     55 H22         4.9288    5.6571   -8.3098 H         1 <0>         0.1438
     56 H23         3.1667   10.4053   -1.7774 H         1 <0>         0.3897
     57 H24         5.6478    9.4385   -2.3525 H         1 <0>         0.4326
@<TRIPOS>BOND
     1    1    6 ar
     2    1    2 ar
     3    1   35 1
     4    2    3 ar
     5    2   36 1
     6    3    4 ar
     7    3    7 1
     8    4    5 ar
     9    4   37 1
    10    5    6 ar
    11    6   38 1
    12    7    8 1
    13    7    9 1
    14    7   34 1
    15    9   10 1
    16    9   39 1
    17    9   40 1
    18   10   11 1
    19   10   41 1
    20   10   57 1
    21   11   12 1
    22   11   42 1
    23   11   43 1
    24   12   13 1
    25   12   44 1
    26   12   45 1
    27   13   18 ar
    28   13   14 ar
    29   14   15 ar
    30   14   46 1
    31   15   16 ar
    32   15   47 1
    33   16   17 ar
    34   16   19 1
    35   17   18 ar
    36   17   48 1
    37   18   49 1
    38   19   20 2
    39   20   25 1
    40   20   21 1
    41   21   22 1
    42   21   51 1
    43   21   50 1
    44   22   23 2
    45   22   24 1
    46   25   26 1
    47   25   52 1
    48   26   31 ar
    49   26   27 ar
    50   27   28 ar
    51   27   53 1
    52   28   29 ar
    53   28   33 1
    54   29   30 ar
    55   29   54 1
    56   30   31 ar
    57   30   32 1
    58   31   55 1
    59   34   56 1
@<TRIPOS>MOLECULE
ZINC09118592
   72    75     0     0     0
SMALL
USER_CHARGES
N-[2-(3,4-dimethoxyphenyl)ethyl]-2-[1-[(2,6-dimethylmorpholin-4-yl)carbonylmethyl]indol-3-yl]sulfanyl-acetamide
@<TRIPOS>ATOM
      1 C1          8.5577    1.7614    4.3594 C.3       1 <0>        -0.1452
      2 C2          7.8776    1.5873    3.0000 C.3       1 <0>         0.0708
      3 H1          7.1727    2.4029    2.8384 H         1 <0>         0.0684
      4 C3          7.1290    0.2499    2.9695 C.3       1 <0>         0.0836
      5 N1          6.6430    0.0211    1.5995 N.am      1 <0>        -0.6132
      6 C4          7.6052    0.1509    0.4937 C.3       1 <0>         0.0738
      7 C5          8.3294    1.4983    0.6443 C.3       1 <0>         0.0744
      8 H2          9.1397    1.5580   -0.0823 H         1 <0>         0.1184
      9 O1          8.8649    1.5977    1.9661 O.3       1 <0>        -0.3677
     10 C6          7.3432    2.6434    0.4051 C.3       1 <0>        -0.1878
     11 C7          5.3561   -0.3032    1.3650 C.2       1 <0>         0.4949
     12 O2          4.5794   -0.4104    2.2903 O.2       1 <0>        -0.5106
     13 C8          4.8822   -0.5326   -0.0471 C.3       1 <0>         0.0963
     14 N2          3.4564   -0.8694   -0.0350 N.pl3     1 <0>        -0.4659
     15 C9          2.9456   -2.1472   -0.0365 C.2       1 <0>         0.0514
     16 C10         1.6000   -2.0991   -0.0238 C.2       1 <0>        -0.1788
     17 C11         1.2225   -0.6807   -0.0133 C.ar      1 <0>        -0.0770
     18 C12         2.4277    0.0453   -0.0210 C.ar      1 <0>         0.1232
     19 C13         2.3854    1.4360   -0.0138 C.ar      1 <0>        -0.1310
     20 C14         1.1695    2.0836    0.0021 C.ar      1 <0>        -0.0901
     21 C15        -0.0165    1.3624    0.0095 C.ar      1 <0>        -0.1446
     22 C16         0.0021   -0.0041    0.0020 C.ar      1 <0>        -0.0625
     23 S1          0.5014   -3.4767   -0.0198 S.3       1 <0>         0.0040
     24 C17         1.6038   -4.9172   -0.0373 C.3       1 <0>        -0.1575
     25 C18         0.7808   -6.1796   -0.0354 C.2       1 <0>         0.5335
     26 O3         -0.4302   -6.1140   -0.0234 O.2       1 <0>        -0.5134
     27 N3          1.3905   -7.3815   -0.0471 N.am      1 <0>        -0.7281
     28 C19         0.5904   -8.6088   -0.0452 C.3       1 <0>         0.1245
     29 C20         1.5202   -9.8237   -0.0600 C.3       1 <0>        -0.0863
     30 C21         0.6972  -11.0862   -0.0581 C.ar      1 <0>        -0.0830
     31 C22         0.3369  -11.6728    1.1408 C.ar      1 <0>        -0.1080
     32 C23        -0.4228  -12.8278    1.1479 C.ar      1 <0>        -0.1702
     33 C24        -0.8152  -13.4063   -0.0485 C.ar      1 <0>         0.1004
     34 C25        -0.4477  -12.8189   -1.2553 C.ar      1 <0>         0.1019
     35 C26         0.3090  -11.6582   -1.2553 C.ar      1 <0>        -0.1655
     36 O4         -0.8308  -13.3827   -2.4321 O.3       1 <0>        -0.3058
     37 C27        -0.4177  -12.7247   -3.6315 C.3       1 <0>         0.0255
     38 O5         -1.5582  -14.5453   -0.0433 O.3       1 <0>        -0.3064
     39 C28        -1.8984  -15.0921    1.2323 C.3       1 <0>         0.0254
     40 H3          9.2637    0.9466    4.5194 H         1 <0>         0.0671
     41 H4          9.0898    2.7125    4.3803 H         1 <0>         0.0701
     42 H5          7.8042    1.7493    5.1469 H         1 <0>         0.0756
     43 H6          6.2842    0.2864    3.6574 H         1 <0>         0.1019
     44 H7          7.8041   -0.5554    3.2589 H         1 <0>         0.0785
     45 H8          8.3275   -0.6642    0.5380 H         1 <0>         0.0852
     46 H9          7.0759    0.1217   -0.4587 H         1 <0>         0.0928
     47 H10         7.8595    3.5969    0.5168 H         1 <0>         0.0711
     48 H11         6.9353    2.5670   -0.6028 H         1 <0>         0.0692
     49 H12         6.5323    2.5821    1.1309 H         1 <0>         0.0608
     50 H13         5.4457   -1.3535   -0.4906 H         1 <0>         0.1200
     51 H14         5.0367    0.3729   -0.6338 H         1 <0>         0.1165
     52 H15         3.5351   -3.0521   -0.0467 H         1 <0>         0.1638
     53 H16         3.3028    2.0059   -0.0195 H         1 <0>         0.1146
     54 H17         1.1388    3.1631    0.0082 H         1 <0>         0.1264
     55 H18        -0.9614    1.8853    0.0168 H         1 <0>         0.1257
     56 H19        -0.9247   -0.5585    0.0076 H         1 <0>         0.1252
     57 H20         2.2240   -4.8891   -0.9332 H         1 <0>         0.1139
     58 H21         2.2412   -4.8977    0.8467 H         1 <0>         0.1139
     59 H22         2.3590   -7.4340   -0.0567 H         1 <0>         0.4021
     60 H23        -0.0298   -8.6368    0.8507 H         1 <0>         0.0737
     61 H24        -0.0470   -8.6283   -0.9292 H         1 <0>         0.0723
     62 H25         2.1405   -9.7957   -0.9559 H         1 <0>         0.0797
     63 H26         2.1577   -9.8042    0.8240 H         1 <0>         0.0821
     64 H27         0.6459  -11.2253    2.0739 H         1 <0>         0.1282
     65 H28        -0.7067  -13.2816    2.0859 H         1 <0>         0.1369
     66 H29         0.5959  -11.2005   -2.1905 H         1 <0>         0.1358
     67 H30        -0.7889  -13.2766   -4.4950 H         1 <0>         0.1018
     68 H31        -0.8200  -11.7118   -3.6473 H         1 <0>         0.0556
     69 H32         0.6710  -12.6838   -3.6670 H         1 <0>         0.0547
     70 H33        -2.4904  -15.9968    1.0936 H         1 <0>         0.1017
     71 H34        -0.9868  -15.3346    1.7785 H         1 <0>         0.0553
     72 H35        -2.4775  -14.3621    1.7979 H         1 <0>         0.0558
@<TRIPOS>BOND
     1    1    2 1
     2    1   40 1
     3    1   41 1
     4    1   42 1
     5    2    3 1
     6    2    9 1
     7    2    4 1
     8    4    5 1
     9    4   43 1
    10    4   44 1
    11    5    6 1
    12    5   11 am
    13    6    7 1
    14    6   45 1
    15    6   46 1
    16    7    8 1
    17    7    9 1
    18    7   10 1
    19   10   47 1
    20   10   48 1
    21   10   49 1
    22   11   12 2
    23   11   13 1
    24   13   14 1
    25   13   50 1
    26   13   51 1
    27   14   18 1
    28   14   15 1
    29   15   16 2
    30   15   52 1
    31   16   17 1
    32   16   23 1
    33   17   22 ar
    34   17   18 ar
    35   18   19 ar
    36   19   20 ar
    37   19   53 1
    38   20   21 ar
    39   20   54 1
    40   21   22 ar
    41   21   55 1
    42   22   56 1
    43   23   24 1
    44   24   25 1
    45   24   57 1
    46   24   58 1
    47   25   26 2
    48   25   27 am
    49   27   28 1
    50   27   59 1
    51   28   29 1
    52   28   60 1
    53   28   61 1
    54   29   30 1
    55   29   62 1
    56   29   63 1
    57   30   35 ar
    58   30   31 ar
    59   31   32 ar
    60   31   64 1
    61   32   33 ar
    62   32   65 1
    63   33   34 ar
    64   33   38 1
    65   34   35 ar
    66   34   36 1
    67   35   66 1
    68   36   37 1
    69   37   67 1
    70   37   68 1
    71   37   69 1
    72   38   39 1
    73   39   70 1
    74   39   71 1
    75   39   72 1
@<TRIPOS>MOLECULE
ZINC13454071
   75    79     0     0     0
SMALL
USER_CHARGES
3-[(R)-[(4-ethoxyphenyl)methyl-[[(2S)-tetrahydrofuran-2-yl]methyl]amino]-[1-(2-methoxyethyl)tetrazol-5-yl]methyl]-6-methyl-1H-quinolin-2-one
@<TRIPOS>ATOM
      1 C1         -3.0285    2.7737    7.4940 C.3       1 <0>        -0.1545
      2 C2         -2.9210    2.1579    6.0975 C.3       1 <0>         0.0532
      3 O1         -2.9082    3.1981    5.1179 O.3       1 <0>        -0.3182
      4 C3         -2.8162    2.8186    3.8162 C.ar      1 <0>         0.1312
      5 C4         -2.7985    3.7765    2.8127 C.ar      1 <0>        -0.1599
      6 C5         -2.7054    3.3881    1.4903 C.ar      1 <0>        -0.0683
      7 C6         -2.6304    2.0461    1.1663 C.ar      1 <0>        -0.1107
      8 C7         -2.6536    1.0892    2.1642 C.ar      1 <0>        -0.0474
      9 C8         -2.7404    1.4727    3.4885 C.ar      1 <0>        -0.2126
     10 C9         -2.5294    1.6252   -0.2772 C.3       1 <0>         0.0900
     11 N1         -1.1185    1.4165   -0.6288 N.3       1 <0>        -0.4892
     12 C10        -0.3806    2.6867   -0.6213 C.3       1 <0>         0.0518
     13 C11        -0.9077    3.5894   -1.7385 C.3       1 <0>         0.0273
     14 H1         -0.9750    2.9904   -2.6587 H         1 <0>         0.0633
     15 C12        -0.0253    4.8502   -1.8727 C.3       1 <0>        -0.1463
     16 C13        -1.0294    5.9782   -2.1994 C.3       1 <0>        -0.1528
     17 C14        -2.3997    5.2654   -2.2240 C.3       1 <0>         0.0400
     18 O2         -2.2208    4.0890   -1.4039 O.3       1 <0>        -0.3549
     19 C15        -0.9939    0.7430   -1.9284 C.3       1 <0>         0.2308
     20 H2         -1.4317    1.3980   -2.6961 H         1 <0>         0.0760
     21 C16        -1.7303   -0.5711   -1.8858 C.2       1 <0>        -0.1813
     22 C17        -2.6688   -0.8502   -2.8238 C.2       1 <0>        -0.0097
     23 C18        -3.3631   -2.1375   -2.7571 C.ar      1 <0>        -0.1367
     24 C19        -4.3372   -2.4840   -3.6994 C.ar      1 <0>        -0.0529
     25 C20        -4.9699   -3.6911   -3.6067 C.ar      1 <0>        -0.1209
     26 C21        -4.6554   -4.5770   -2.5850 C.ar      1 <0>        -0.0577
     27 C22        -3.6995   -4.2565   -1.6456 C.ar      1 <0>        -0.1652
     28 C23        -3.0416   -3.0330   -1.7199 C.ar      1 <0>         0.1981
     29 N2         -2.0808   -2.6868   -0.7938 N.am      1 <0>        -0.6489
     30 H3         -1.8248   -3.3820    0.0193 H         1 <0>         0.4416
     31 C24        -1.4448   -1.5044   -0.8663 C.2       1 <0>         0.5323
     32 O3         -0.6008   -1.2315   -0.0303 O.2       1 <0>        -0.4692
     33 C25        -6.0190   -4.0642   -4.6222 C.3       1 <0>        -0.1158
     34 C26         0.4620    0.4935   -2.2274 C.2       1 <0>         0.1873
     35 N3          1.3782    0.0959   -1.3787 N.2       1 <0>        -0.2342
     36 N4          2.4944   -0.0015   -2.0147 N.2       1 <0>        -0.0775
     37 N5          2.3140    0.3238   -3.2472 N.2       1 <0>        -0.0927
     38 N6          1.0725    0.6302   -3.4191 N.pl3     1 <0>        -0.3077
     39 C27         0.4460    1.0512   -4.6746 C.3       1 <0>         0.1093
     40 C28         0.6529    2.5546   -4.8689 C.3       1 <0>         0.0399
     41 O4         -0.0591    2.9874   -6.0298 O.3       1 <0>        -0.3809
     42 C29         0.0686    4.3842   -6.3028 C.3       1 <0>         0.0288
     43 H4         -3.0383    1.9729    8.2481 H         1 <0>         0.0791
     44 H5         -3.9580    3.3574    7.5668 H         1 <0>         0.0664
     45 H6         -2.1664    3.4335    7.6711 H         1 <0>         0.0668
     46 H7         -1.9915    1.5742    6.0247 H         1 <0>         0.0625
     47 H8         -3.7831    1.4980    5.9204 H         1 <0>         0.0614
     48 H9         -2.8577    4.8249    3.0653 H         1 <0>         0.1260
     49 H10        -2.6915    4.1334    0.7088 H         1 <0>         0.1398
     50 H11        -2.5996    0.0414    1.9083 H         1 <0>         0.1197
     51 H12        -2.7536    0.7251    4.2679 H         1 <0>         0.1237
     52 H13        -3.0868    0.6886   -0.4259 H         1 <0>         0.0747
     53 H14        -2.9549    2.4108   -0.9189 H         1 <0>         0.0796
     54 H15        -0.5192    3.1855    0.3493 H         1 <0>         0.1021
     55 H16         0.6895    2.4901   -0.7830 H         1 <0>         0.0869
     56 H17         0.5047    5.0293   -0.9256 H         1 <0>         0.0831
     57 H18         0.7068    4.7011   -2.6800 H         1 <0>         0.0695
     58 H19        -0.9790    6.7514   -1.4186 H         1 <0>         0.0792
     59 H20        -0.7768    6.4233   -3.1731 H         1 <0>         0.0752
     60 H21        -3.1689    5.9354   -1.8124 H         1 <0>         0.0959
     61 H22        -2.6582    5.0035   -3.2606 H         1 <0>         0.0593
     62 H23        -2.8965   -0.1402   -3.6051 H         1 <0>         0.1417
     63 H24        -4.5880   -1.8001   -4.4967 H         1 <0>         0.1335
     64 H25        -5.1656   -5.5271   -2.5257 H         1 <0>         0.1316
     65 H26        -3.4618   -4.9527   -0.8548 H         1 <0>         0.1347
     66 H27        -6.4154   -5.0636   -4.3896 H         1 <0>         0.0671
     67 H28        -5.5706   -4.0722   -5.6266 H         1 <0>         0.0703
     68 H29        -6.8367   -3.3291   -4.5916 H         1 <0>         0.0708
     69 H30         0.9039    0.5066   -5.5135 H         1 <0>         0.1267
     70 H31        -0.6311    0.8309   -4.6388 H         1 <0>         0.1161
     71 H32         0.2775    3.0934   -3.9865 H         1 <0>         0.0605
     72 H33         1.7252    2.7636   -4.9973 H         1 <0>         0.0707
     73 H34        -0.5056    4.6351   -7.2069 H         1 <0>         0.0971
     74 H35         1.1287    4.6314   -6.4613 H         1 <0>         0.0485
     75 H36        -0.3190    4.9613   -5.4504 H         1 <0>         0.0452
@<TRIPOS>BOND
     1    1    2 1
     2    1   43 1
     3    1   44 1
     4    1   45 1
     5    2    3 1
     6    2   46 1
     7    2   47 1
     8    3    4 1
     9    4    9 ar
    10    4    5 ar
    11    5    6 ar
    12    5   48 1
    13    6    7 ar
    14    6   49 1
    15    7    8 ar
    16    7   10 1
    17    8    9 ar
    18    8   50 1
    19    9   51 1
    20   10   11 1
    21   10   52 1
    22   10   53 1
    23   11   12 1
    24   11   19 1
    25   12   13 1
    26   12   54 1
    27   12   55 1
    28   13   14 1
    29   13   18 1
    30   13   15 1
    31   15   16 1
    32   15   56 1
    33   15   57 1
    34   16   17 1
    35   16   58 1
    36   16   59 1
    37   17   18 1
    38   17   60 1
    39   17   61 1
    40   19   20 1
    41   19   21 1
    42   19   34 1
    43   21   31 1
    44   21   22 2
    45   22   23 1
    46   22   62 1
    47   23   28 ar
    48   23   24 ar
    49   24   25 ar
    50   24   63 1
    51   25   26 ar
    52   25   33 1
    53   26   27 ar
    54   26   64 1
    55   27   28 ar
    56   27   65 1
    57   28   29 1
    58   29   30 1
    59   29   31 am
    60   31   32 2
    61   33   66 1
    62   33   67 1
    63   33   68 1
    64   34   38 1
    65   34   35 2
    66   35   36 1
    67   36   37 2
    68   37   38 1
    69   38   39 1
    70   39   40 1
    71   39   69 1
    72   39   70 1
    73   40   41 1
    74   40   71 1
    75   40   72 1
    76   41   42 1
    77   42   73 1
    78   42   74 1
    79   42   75 1
@<TRIPOS>MOLECULE
ZINC33936041
   75    79     0     0     0
SMALL
USER_CHARGES

@<TRIPOS>ATOM
      1 C1         -1.0502    0.7470   -2.1750 C.3       1 <0>        -0.1535
      2 C2         -0.8136   -0.7324   -1.8644 C.3       1 <0>         0.0553
      3 O1         -0.3276   -0.8665   -0.5273 O.3       1 <0>        -0.3164
      4 C3         -0.0648   -2.1260   -0.0898 C.ar      1 <0>         0.1330
      5 C4         -0.2650   -3.2101   -0.9321 C.ar      1 <0>        -0.2110
      6 C5          0.0033   -4.4894   -0.4852 C.ar      1 <0>        -0.0766
      7 C6          0.4707   -4.6900    0.8005 C.ar      1 <0>        -0.1132
      8 C7          0.6707   -3.6113    1.6421 C.ar      1 <0>        -0.0459
      9 C8          0.4097   -2.3295    1.1979 C.ar      1 <0>        -0.1503
     10 C9          0.7622   -6.0867    1.2856 C.3       1 <0>         0.0950
     11 N1          2.1597   -6.4269    0.9874 N.3       1 <0>        -0.4902
     12 C10         2.3844   -6.5065   -0.4622 C.3       1 <0>         0.0595
     13 C11         1.3889   -7.4909   -1.0793 C.3       1 <0>         0.0364
     14 H1          0.3673   -7.1912   -0.8458 H         1 <0>         0.0792
     15 C12         1.5895   -7.5677   -2.6138 C.3       1 <0>        -0.1463
     16 C13         1.0182   -8.9799   -2.9155 C.3       1 <0>        -0.1543
     17 C14         1.4124   -9.7702   -1.6492 C.3       1 <0>         0.0481
     18 O2          1.6404   -8.8211   -0.5990 O.3       1 <0>        -0.3815
     19 C15         2.5497   -7.6787    1.6500 C.3       1 <0>         0.2346
     20 H2          1.8978   -8.4855    1.3151 H         1 <0>         0.1012
     21 C16         3.9778   -8.0087    1.2998 C.2       1 <0>        -0.1724
     22 C17         4.2813   -9.2204    0.7722 C.2       1 <0>        -0.0009
     23 C18         5.6781   -9.5095    0.4424 C.ar      1 <0>        -0.1326
     24 C19         6.0524  -10.7414   -0.1046 C.ar      1 <0>        -0.0547
     25 C20         7.3642  -10.9799   -0.4016 C.ar      1 <0>        -0.1200
     26 C21         8.3297  -10.0107   -0.1649 C.ar      1 <0>        -0.0602
     27 C22         7.9840   -8.7902    0.3736 C.ar      1 <0>        -0.1635
     28 C23         6.6540   -8.5242    0.6833 C.ar      1 <0>         0.1899
     29 N2          6.2799   -7.3117    1.2221 N.am      1 <0>        -0.6379
     30 H3          6.9537   -6.6338    1.3874 H         1 <0>         0.4150
     31 C24         4.9937   -7.0532    1.5167 C.2       1 <0>         0.5279
     32 O3          4.6984   -5.9683    1.9872 O.2       1 <0>        -0.4662
     33 C25         7.7671  -12.3071   -0.9909 C.3       1 <0>        -0.1132
     34 C26         2.4230   -7.5174    3.1430 C.2       1 <0>         0.1836
     35 N3          2.8244   -6.4937    3.8563 N.2       1 <0>        -0.2374
     36 N4          2.5381   -6.7315    5.0898 N.2       1 <0>        -0.0800
     37 N5          1.9645   -7.8804    5.1818 N.2       1 <0>        -0.0948
     38 N6          1.8704   -8.3940    4.0020 N.pl3     1 <0>        -0.3077
     39 C27         1.2769   -9.6894    3.6616 C.3       1 <0>         0.1126
     40 C28         2.3535  -10.7750    3.7210 C.3       1 <0>         0.0482
     41 O4          1.7746  -12.0386    3.3891 O.3       1 <0>        -0.3816
     42 C29         2.7004  -13.1268    3.4151 C.3       1 <0>         0.0321
     43 H4         -0.1131    1.2941   -2.0725 H         1 <0>         0.0669
     44 H5         -1.4210    0.8493   -3.1949 H         1 <0>         0.0784
     45 H6         -1.7851    1.1514   -1.4790 H         1 <0>         0.0667
     46 H7         -1.7508   -1.2795   -1.9669 H         1 <0>         0.0609
     47 H8         -0.0788   -1.1368   -2.5604 H         1 <0>         0.0611
     48 H9         -0.6307   -3.0540   -1.9362 H         1 <0>         0.1254
     49 H10        -0.1524   -5.3336   -1.1405 H         1 <0>         0.1184
     50 H11         1.0355   -3.7706    2.6460 H         1 <0>         0.1317
     51 H12         0.5702   -1.4869    1.8541 H         1 <0>         0.1306
     52 H13         0.5971   -6.1394    2.3618 H         1 <0>         0.0753
     53 H14         0.1010   -6.7917    0.7817 H         1 <0>         0.0496
     54 H15         2.2436   -5.5210   -0.9062 H         1 <0>         0.1000
     55 H16         3.4010   -6.8495   -0.6540 H         1 <0>         0.0829
     56 H17         1.0154   -6.7944   -3.1242 H         1 <0>         0.0834
     57 H18         2.6459   -7.5071   -2.8754 H         1 <0>         0.0808
     58 H19        -0.0653   -8.9440   -3.0287 H         1 <0>         0.0763
     59 H20         1.4879   -9.4073   -3.8014 H         1 <0>         0.0826
     60 H21         0.6035  -10.4443   -1.3673 H         1 <0>         0.0692
     61 H22         2.3219  -10.3406   -1.8375 H         1 <0>         0.0696
     62 H23         3.5097   -9.9560    0.5994 H         1 <0>         0.1449
     63 H24         5.3075  -11.5008   -0.2910 H         1 <0>         0.1320
     64 H25         9.3626  -10.2154   -0.4051 H         1 <0>         0.1315
     65 H26         8.7426   -8.0431    0.5546 H         1 <0>         0.1343
     66 H27         7.7185  -12.2516   -2.0783 H         1 <0>         0.0708
     67 H28         8.7854  -12.5466   -0.6844 H         1 <0>         0.0676
     68 H29         7.0889  -13.0831   -0.6360 H         1 <0>         0.0667
     69 H30         0.4847   -9.9241    4.3725 H         1 <0>         0.1240
     70 H31         0.8607   -9.6452    2.6552 H         1 <0>         0.1182
     71 H32         3.1457  -10.5403    3.0102 H         1 <0>         0.0590
     72 H33         2.7697  -10.8192    4.7275 H         1 <0>         0.0653
     73 H34         3.4998  -12.9410    2.6978 H         1 <0>         0.0457
     74 H35         3.1238  -13.2198    4.4151 H         1 <0>         0.0463
     75 H36         2.1836  -14.0498    3.1520 H         1 <0>         0.0946
@<TRIPOS>BOND
     1    1    2 1
     2    1   43 1
     3    1   44 1
     4    1   45 1
     5    2    3 1
     6    2   46 1
     7    2   47 1
     8    3    4 1
     9    4    9 ar
    10    4    5 ar
    11    5    6 ar
    12    5   48 1
    13    6    7 ar
    14    6   49 1
    15    7    8 ar
    16    7   10 1
    17    8    9 ar
    18    8   50 1
    19    9   51 1
    20   10   11 1
    21   10   52 1
    22   10   53 1
    23   11   12 1
    24   11   19 1
    25   12   13 1
    26   12   54 1
    27   12   55 1
    28   13   14 1
    29   13   18 1
    30   13   15 1
    31   15   16 1
    32   15   56 1
    33   15   57 1
    34   16   17 1
    35   16   58 1
    36   16   59 1
    37   17   18 1
    38   17   60 1
    39   17   61 1
    40   19   20 1
    41   19   21 1
    42   19   34 1
    43   21   31 1
    44   21   22 2
    45   22   23 1
    46   22   62 1
    47   23   28 ar
    48   23   24 ar
    49   24   25 ar
    50   24   63 1
    51   25   26 ar
    52   25   33 1
    53   26   27 ar
    54   26   64 1
    55   27   28 ar
    56   27   65 1
    57   28   29 1
    58   29   30 1
    59   29   31 am
    60   31   32 2
    61   33   66 1
    62   33   67 1
    63   33   68 1
    64   34   38 1
    65   34   35 2
    66   35   36 1
    67   36   37 2
    68   37   38 1
    69   38   39 1
    70   39   40 1
    71   39   69 1
    72   39   70 1
    73   40   41 1
    74   40   71 1
    75   40   72 1
    76   41   42 1
    77   42   73 1
    78   42   74 1
    79   42   75 1
@<TRIPOS>MOLECULE
ZINC00650268
   79    83     0     0     0
SMALL
USER_CHARGES

@<TRIPOS>ATOM
      1 C1         -0.1261    1.5061    0.0547 C.3       1 <0>        -0.1158
      2 C2         -0.0720    0.0002    0.0323 C.2       1 <0>         0.2318
      3 C3         -1.2139   -0.7090    0.0308 C.2       1 <0>        -0.2492
      4 C4         -1.1991   -2.2091   -0.0005 C.3       1 <0>         0.0795
      5 H1         -1.9531   -2.5889    0.6889 H         1 <0>         0.0959
      6 C5          0.1523   -2.7458    0.3992 C.2       1 <0>        -0.2673
      7 C6          1.2415   -1.9484    0.3891 C.2       1 <0>         0.2128
      8 N1          1.1378   -0.6356    0.0080 N.pl3     1 <0>        -0.6309
      9 C7          2.5954   -2.4764    0.7939 C.3       1 <0>        -0.0889
     10 C8          2.6915   -3.9638    0.4473 C.3       1 <0>        -0.0306
     11 H2          2.5844   -4.0967   -0.6292 H         1 <0>         0.0923
     12 C9          1.5636   -4.7055    1.1724 C.3       1 <0>        -0.1595
     13 C10         0.2455   -4.0962    0.7793 C.2       1 <0>         0.4034
     14 O1         -0.7565   -4.7833    0.7905 O.2       1 <0>        -0.4603
     15 C11         4.0263   -4.5026    0.8937 C.ar      1 <0>        -0.0795
     16 C12         4.3778   -4.4540    2.2299 C.ar      1 <0>        -0.1093
     17 C13         5.6010   -4.9469    2.6444 C.ar      1 <0>        -0.1693
     18 C14         6.4777   -5.4916    1.7199 C.ar      1 <0>         0.1014
     19 C15         6.1238   -5.5409    0.3751 C.ar      1 <0>         0.1031
     20 C16         4.8941   -5.0495   -0.0330 C.ar      1 <0>        -0.1630
     21 O2          6.9808   -6.0746   -0.5361 O.3       1 <0>        -0.3056
     22 C17         6.5508   -6.0920   -1.8987 C.3       1 <0>         0.0251
     23 O3          7.6816   -5.9765    2.1260 O.3       1 <0>        -0.3062
     24 C18         7.9777   -5.8924    3.5214 C.3       1 <0>         0.0255
     25 C19        -1.5235   -2.6780   -1.3955 C.ar      1 <0>        -0.0185
     26 C20        -0.7102   -2.3129   -2.4525 C.ar      1 <0>        -0.1342
     27 C21        -1.0031   -2.7407   -3.7338 C.ar      1 <0>        -0.0834
     28 C22        -2.1141   -3.5374   -3.9613 C.ar      1 <0>         0.0479
     29 C23        -2.9326   -3.9048   -2.8975 C.ar      1 <0>         0.1275
     30 C24        -2.6301   -3.4767   -1.6145 C.ar      1 <0>        -0.1651
     31 O4         -4.0237   -4.6863   -3.1156 O.3       1 <0>        -0.3120
     32 C25        -4.8180   -5.0239   -1.9766 C.3       1 <0>         0.0258
     33 O5         -2.4040   -3.9588   -5.2214 O.3       1 <0>        -0.2875
     34 C26        -3.3366   -3.2846   -5.9125 C.2       1 <0>         0.4566
     35 O6         -3.8199   -2.2777   -5.4514 O.2       1 <0>        -0.4973
     36 C27        -3.7808   -3.7835   -7.2633 C.3       1 <0>        -0.1432
     37 C28        -2.4534   -0.0281    0.0598 C.2       1 <0>         0.5200
     38 O7         -2.4789    1.1882    0.0858 O.2       1 <0>        -0.5218
     39 O8         -3.6076   -0.7273    0.0587 O.3       1 <0>        -0.3374
     40 C29        -4.8220    0.0252    0.0889 C.3       1 <0>         0.0851
     41 C30        -5.2918    0.2120    1.5463 C.3       1 <0>        -0.1410
     42 C31        -6.8351    0.1084    1.4643 C.3       1 <0>        -0.1229
     43 C32        -7.0472   -1.0009    0.4043 C.3       1 <0>        -0.1227
     44 C33        -5.9382   -0.7460   -0.6373 C.3       1 <0>        -0.1226
     45 H3          0.8878    1.9062    0.0478 H         1 <0>         0.0633
     46 H4         -0.6637    1.8634   -0.8236 H         1 <0>         0.1019
     47 H5         -0.6415    1.8378    0.9561 H         1 <0>         0.1035
     48 H6          1.9289   -0.1525   -0.2777 H         1 <0>         0.4215
     49 H7          3.3727   -1.9287    0.2610 H         1 <0>         0.0939
     50 H8          2.7302   -2.3445    1.8675 H         1 <0>         0.1054
     51 H9          1.5779   -5.7580    0.8891 H         1 <0>         0.1009
     52 H10         1.7007   -4.6143    2.2499 H         1 <0>         0.1036
     53 H11         3.6953   -4.0297    2.9515 H         1 <0>         0.1279
     54 H12         5.8734   -4.9071    3.6887 H         1 <0>         0.1369
     55 H13         4.6154   -5.0900   -1.0757 H         1 <0>         0.1368
     56 H14         5.6336   -6.6750   -1.9828 H         1 <0>         0.0562
     57 H15         6.3648   -5.0717   -2.2341 H         1 <0>         0.0552
     58 H16         7.3259   -6.5426   -2.5186 H         1 <0>         0.1020
     59 H17         8.9656   -6.3131    3.7093 H         1 <0>         0.1018
     60 H18         7.9621   -4.8482    3.8338 H         1 <0>         0.0554
     61 H19         7.2314   -6.4516    4.0856 H         1 <0>         0.0559
     62 H20         0.1556   -1.6918   -2.2766 H         1 <0>         0.1209
     63 H21        -0.3664   -2.4538   -4.5576 H         1 <0>         0.1336
     64 H22        -3.2613   -3.7637   -0.7866 H         1 <0>         0.1377
     65 H23        -5.1981   -4.1122   -1.5156 H         1 <0>         0.0574
     66 H24        -5.6544   -5.6489   -2.2893 H         1 <0>         0.1014
     67 H25        -4.2073   -5.5679   -1.2561 H         1 <0>         0.0608
     68 H26        -4.6244   -4.4627   -7.1404 H         1 <0>         0.1074
     69 H27        -4.0822   -2.9380   -7.8818 H         1 <0>         0.1041
     70 H28        -2.9572   -4.3105   -7.7449 H         1 <0>         0.0953
     71 H29        -4.6712    0.9961   -0.3829 H         1 <0>         0.0859
     72 H30        -4.8897   -0.5777    2.1810 H         1 <0>         0.0765
     73 H31        -4.9946    1.1918    1.9203 H         1 <0>         0.0722
     74 H32        -7.2538   -0.1904    2.4252 H         1 <0>         0.0719
     75 H33        -7.2682    1.0508    1.1292 H         1 <0>         0.0704
     76 H34        -6.9286   -1.9864    0.8545 H         1 <0>         0.0692
     77 H35        -8.0311   -0.9063   -0.0552 H         1 <0>         0.0705
     78 H36        -6.3296   -0.1490   -1.4610 H         1 <0>         0.0764
     79 H37        -5.5535   -1.6942   -1.0127 H         1 <0>         0.0776
@<TRIPOS>BOND
     1    1    2 1
     2    1   45 1
     3    1   46 1
     4    1   47 1
     5    2    8 1
     6    2    3 2
     7    3    4 1
     8    3   37 1
     9    4    5 1
    10    4    6 1
    11    4   25 1
    12    6   13 1
    13    6    7 2
    14    7    8 1
    15    7    9 1
    16    8   48 1
    17    9   10 1
    18    9   49 1
    19    9   50 1
    20   10   11 1
    21   10   12 1
    22   10   15 1
    23   12   13 1
    24   12   51 1
    25   12   52 1
    26   13   14 2
    27   15   20 ar
    28   15   16 ar
    29   16   17 ar
    30   16   53 1
    31   17   18 ar
    32   17   54 1
    33   18   19 ar
    34   18   23 1
    35   19   20 ar
    36   19   21 1
    37   20   55 1
    38   21   22 1
    39   22   56 1
    40   22   57 1
    41   22   58 1
    42   23   24 1
    43   24   59 1
    44   24   60 1
    45   24   61 1
    46   25   30 ar
    47   25   26 ar
    48   26   27 ar
    49   26   62 1
    50   27   28 ar
    51   27   63 1
    52   28   29 ar
    53   28   33 1
    54   29   30 ar
    55   29   31 1
    56   30   64 1
    57   31   32 1
    58   32   65 1
    59   32   66 1
    60   32   67 1
    61   33   34 1
    62   34   35 2
    63   34   36 1
    64   36   68 1
    65   36   69 1
    66   36   70 1
    67   37   38 2
    68   37   39 1
    69   39   40 1
    70   40   44 1
    71   40   41 1
    72   40   71 1
    73   41   42 1
    74   41   72 1
    75   41   73 1
    76   42   43 1
    77   42   74 1
    78   42   75 1
    79   43   44 1
    80   43   76 1
    81   43   77 1
    82   44   78 1
    83   44   79 1
@<TRIPOS>MOLECULE
ZINC13495163
   73    77     0     0     0
SMALL
USER_CHARGES

@<TRIPOS>ATOM
      1 C1          1.1126   -0.5207   -3.0014 C.3       1 <0>        -0.1403
      2 C2          0.0814    0.1607   -2.0997 C.3       1 <0>        -0.1104
      3 C3          0.4761   -0.0357   -0.6346 C.3       1 <0>         0.1607
      4 H1          0.5348   -1.1015   -0.4138 H         1 <0>         0.1070
      5 C4         -0.5582    0.6053    0.2546 C.2       1 <0>         0.1507
      6 N1         -0.7386    1.8894    0.4454 N.2       1 <0>        -0.2925
      7 N2         -1.7165    2.0354    1.2714 N.2       1 <0>        -0.0732
      8 N3         -2.1645    0.8777    1.6126 N.2       1 <0>        -0.0905
      9 N4         -1.4797   -0.0297    1.0024 N.pl3     1 <0>        -0.3023
     10 C5         -1.6675   -1.4788    1.1067 C.3       1 <0>         0.1133
     11 C6         -0.9685   -1.9943    2.3664 C.3       1 <0>        -0.1026
     12 C7         -1.2500   -3.4656    2.5306 C.ar      1 <0>        -0.0898
     13 C8         -2.3562   -3.8819    3.2474 C.ar      1 <0>        -0.1093
     14 C9         -2.6144   -5.2316    3.3980 C.ar      1 <0>        -0.1158
     15 C10        -1.7666   -6.1649    2.8315 C.ar      1 <0>        -0.1145
     16 C11        -0.6608   -5.7486    2.1139 C.ar      1 <0>        -0.1147
     17 C12        -0.4050   -4.3989    1.9597 C.ar      1 <0>        -0.1205
     18 N5          1.7841    0.5874   -0.3921 N.3       1 <0>        -0.4955
     19 C13         2.3612    0.1234    0.8766 C.3       1 <0>         0.0743
     20 C14         2.9562   -1.2480    0.6861 C.ar      1 <0>        -0.1030
     21 C15         2.1544   -2.3692    0.7941 C.ar      1 <0>        -0.0919
     22 C16         2.6974   -3.6275    0.6204 C.ar      1 <0>        -0.1506
     23 C17         4.0484   -3.7655    0.3368 C.ar      1 <0>         0.1294
     24 C18         4.8507   -2.6389    0.2285 C.ar      1 <0>        -0.2021
     25 C19         4.3018   -1.3826    0.3980 C.ar      1 <0>        -0.0545
     26 O1          4.5852   -5.0023    0.1659 O.3       1 <0>        -0.3175
     27 C20         6.0009   -5.0759   -0.0140 C.3       1 <0>         0.0266
     28 C21         1.6825    2.0526   -0.4196 C.3       1 <0>         0.1038
     29 C22         3.0559    2.6482   -0.5934 C.2       1 <0>        -0.1756
     30 C23         3.5136    2.9392   -1.8362 C.2       1 <0>         0.0024
     31 C24         4.8519    3.5174   -1.9709 C.ar      1 <0>        -0.1231
     32 C25         5.3782    3.8389   -3.2265 C.ar      1 <0>        -0.0563
     33 C26         6.6301    4.3776   -3.3182 C.ar      1 <0>        -0.1146
     34 C27         7.3853    4.6086   -2.1762 C.ar      1 <0>        -0.0643
     35 C28         6.8872    4.2992   -0.9291 C.ar      1 <0>        -0.1593
     36 C29         5.6143    3.7505   -0.8109 C.ar      1 <0>         0.1775
     37 N6          5.0908    3.4324    0.4241 N.am      1 <0>        -0.6293
     38 H2          5.6175    3.5937    1.2225 H         1 <0>         0.4151
     39 C30         3.8586    2.9066    0.5383 C.2       1 <0>         0.5400
     40 O2          3.4257    2.6423    1.6466 O.2       1 <0>        -0.5325
     41 C31         7.1969    4.7239   -4.6709 C.3       1 <0>        -0.1144
     42 H3          2.0758   -0.0220   -2.8933 H         1 <0>         0.0705
     43 H4          1.2112   -1.5675   -2.7141 H         1 <0>         0.0536
     44 H5          0.7855   -0.4580   -4.0393 H         1 <0>         0.0551
     45 H6          0.0474    1.2261   -2.3272 H         1 <0>         0.0770
     46 H7         -0.9005   -0.2795   -2.2735 H         1 <0>         0.0672
     47 H8         -2.7324   -1.7040    1.1642 H         1 <0>         0.1180
     48 H9         -1.2402   -1.9647    0.2295 H         1 <0>         0.1117
     49 H10         0.1063   -1.8379    2.2752 H         1 <0>         0.0858
     50 H11        -1.3419   -1.4537    3.2361 H         1 <0>         0.0926
     51 H12        -3.0186   -3.1527    3.6900 H         1 <0>         0.1246
     52 H13        -3.4783   -5.5568    3.9587 H         1 <0>         0.1250
     53 H14        -1.9679   -7.2194    2.9498 H         1 <0>         0.1242
     54 H15         0.0018   -6.4778    1.6716 H         1 <0>         0.1256
     55 H16         0.4568   -4.0736    1.3959 H         1 <0>         0.1274
     56 H17         3.1398    0.8160    1.1964 H         1 <0>         0.1143
     57 H18         1.5805    0.0785    1.6360 H         1 <0>         0.0396
     58 H19         1.1027   -2.2612    1.0149 H         1 <0>         0.1211
     59 H20         2.0709   -4.5030    0.7055 H         1 <0>         0.1311
     60 H21         5.9027   -2.7438    0.0079 H         1 <0>         0.1281
     61 H22         4.9250   -0.5050    0.3094 H         1 <0>         0.1201
     62 H23         6.5006   -4.7284    0.8902 H         1 <0>         0.0557
     63 H24         6.2885   -6.1081   -0.2143 H         1 <0>         0.1009
     64 H25         6.2934   -4.4475   -0.8552 H         1 <0>         0.0564
     65 H26         1.0465    2.3572   -1.2508 H         1 <0>         0.0970
     66 H27         1.2498    2.4045    0.5169 H         1 <0>         0.0836
     67 H28         2.9046    2.7482   -2.7074 H         1 <0>         0.1460
     68 H29         4.7974    3.6617   -4.1195 H         1 <0>         0.1355
     69 H30         8.3735    5.0348   -2.2663 H         1 <0>         0.1317
     70 H31         7.4828    4.4820   -0.0469 H         1 <0>         0.1336
     71 H32         6.9329    5.7509   -4.9234 H         1 <0>         0.0717
     72 H33         8.2819    4.6231   -4.6469 H         1 <0>         0.0676
     73 H34         6.7857    4.0483   -5.4209 H         1 <0>         0.0682
@<TRIPOS>BOND
     1    1    2 1
     2    1   42 1
     3    1   43 1
     4    1   44 1
     5    2    3 1
     6    2   45 1
     7    2   46 1
     8    3    4 1
     9    3    5 1
    10    3   18 1
    11    5    9 1
    12    5    6 2
    13    6    7 1
    14    7    8 2
    15    8    9 1
    16    9   10 1
    17   10   11 1
    18   10   47 1
    19   10   48 1
    20   11   12 1
    21   11   49 1
    22   11   50 1
    23   12   17 ar
    24   12   13 ar
    25   13   14 ar
    26   13   51 1
    27   14   15 ar
    28   14   52 1
    29   15   16 ar
    30   15   53 1
    31   16   17 ar
    32   16   54 1
    33   17   55 1
    34   18   19 1
    35   18   28 1
    36   19   20 1
    37   19   56 1
    38   19   57 1
    39   20   25 ar
    40   20   21 ar
    41   21   22 ar
    42   21   58 1
    43   22   23 ar
    44   22   59 1
    45   23   24 ar
    46   23   26 1
    47   24   25 ar
    48   24   60 1
    49   25   61 1
    50   26   27 1
    51   27   62 1
    52   27   63 1
    53   27   64 1
    54   28   29 1
    55   28   65 1
    56   28   66 1
    57   29   39 1
    58   29   30 2
    59   30   31 1
    60   30   67 1
    61   31   36 ar
    62   31   32 ar
    63   32   33 ar
    64   32   68 1
    65   33   34 ar
    66   33   41 1
    67   34   35 ar
    68   34   69 1
    69   35   36 ar
    70   35   70 1
    71   36   37 1
    72   37   38 1
    73   37   39 am
    74   39   40 2
    75   41   71 1
    76   41   72 1
    77   41   73 1
@<TRIPOS>MOLECULE
ZINC06282094
   71    75     0     0     0
SMALL
USER_CHARGES
3-[(S)-[1-(2-methoxyethyl)tetrazol-5-yl]-[(4-methoxyphenyl)methyl-(3-pyridylmethyl)amino]methyl]-7-methyl-1H-quinolin-2-one
@<TRIPOS>ATOM
      1 C1          9.1017    3.1118    5.8198 C.3       1 <0>        -0.1337
      2 C2          8.1457    2.5613    4.7931 C.ar      1 <0>         0.0060
      3 C3          8.0821    1.1910    4.5789 C.ar      1 <0>        -0.1449
      4 C4          7.2225    0.6714    3.6531 C.ar      1 <0>        -0.0346
      5 C5          6.3990    1.5273    2.9141 C.ar      1 <0>        -0.1645
      6 C6          5.4667    1.0043    1.9138 C.2       1 <0>         0.0741
      7 C7          4.6936    1.8818    1.2275 C.2       1 <0>        -0.2872
      8 C8          4.7983    3.2671    1.4765 C.2       1 <0>         0.5432
      9 O1          4.0977    4.0390    0.8449 O.2       1 <0>        -0.5244
     10 N1          5.6477    3.7563    2.3970 N.am      1 <0>        -0.6166
     11 H1          5.6915    4.7138    2.5459 H         1 <0>         0.4280
     12 C9          6.4607    2.9171    3.1285 C.ar      1 <0>         0.2084
     13 C10         7.3442    3.4232    4.0764 C.ar      1 <0>        -0.1717
     14 C11         3.7235    1.3766    0.1908 C.3       1 <0>         0.2107
     15 H2          3.8654    0.3048    0.0522 H         1 <0>         0.1599
     16 C12         2.3132    1.6412    0.6514 C.2       1 <0>         0.1317
     17 N2          1.6252    2.7424    0.4727 N.2       1 <0>        -0.2468
     18 N3          0.4657    2.5788    1.0100 N.2       1 <0>        -0.0462
     19 N4          0.3962    1.4018    1.5269 N.2       1 <0>        -0.0552
     20 N5          1.5157    0.7927    1.3265 N.pl3     1 <0>        -0.2841
     21 C13         1.8551   -0.5670    1.7532 C.3       1 <0>         0.1008
     22 C14         1.4677   -1.5582    0.6539 C.3       1 <0>         0.0432
     23 O2          1.7987   -2.8845    1.0702 O.3       1 <0>        -0.3775
     24 C15         1.4758   -3.8926    0.1102 C.3       1 <0>         0.0292
     25 C16         5.3962    2.1240   -1.3922 C.3       1 <0>         0.0521
     26 C17         5.6380    3.1418   -2.4769 C.ar      1 <0>        -0.2043
     27 C18         5.7244    2.7372   -3.7962 C.ar      1 <0>        -0.0500
     28 C19         5.9403    3.6690   -4.7930 C.ar      1 <0>        -0.2087
     29 C20         6.0819    5.0103   -4.4681 C.ar      1 <0>         0.1695
     30 C21         6.0005    5.4130   -3.1430 C.ar      1 <0>        -0.1474
     31 C22         5.7788    4.4780   -2.1506 C.ar      1 <0>        -0.0439
     32 O3          6.2995    5.9283   -5.4463 O.3       1 <0>        -0.3064
     33 C23         6.3718    5.4418   -6.7880 C.3       1 <0>         0.0210
     34 C24         3.2095    1.4392   -2.1744 C.3       1 <0>         0.0458
     35 C25         1.7608    1.8453   -2.0876 C.ar      1 <0>        -0.2044
     36 C26         0.8379    1.0240   -1.4577 C.ar      1 <0>        -0.0776
     37 C27        -0.4830    1.4403   -1.3977 C.ar      1 <0>        -0.1616
     38 C28        -0.8356    2.6471   -1.9723 C.ar      1 <0>         0.1527
     39 N6          0.0682    3.4002   -2.5677 N.ar      1 <0>        -0.4616
     40 C29         1.3343    3.0381   -2.6396 C.ar      1 <0>         0.1493
     41 H3         10.0607    3.3233    5.3468 H         1 <0>         0.0883
     42 H4          8.6935    4.0308    6.2405 H         1 <0>         0.0781
     43 H5          9.2424    2.3794    6.6148 H         1 <0>         0.0813
     44 H6          8.7175    0.5300    5.1495 H         1 <0>         0.1417
     45 H7          7.1792   -0.3956    3.4920 H         1 <0>         0.1451
     46 H8          5.3965   -0.0570    1.7263 H         1 <0>         0.1597
     47 H9          7.4012    4.4876    4.2505 H         1 <0>         0.1433
     48 H10         2.9270   -0.6324    1.9401 H         1 <0>         0.1192
     49 H11         1.3117   -0.8073    2.6671 H         1 <0>         0.1389
     50 H12         0.3958   -1.4928    0.4671 H         1 <0>         0.0743
     51 H13         2.0111   -1.3179   -0.2599 H         1 <0>         0.0533
     52 H14         0.4041   -3.8757   -0.0880 H         1 <0>         0.0520
     53 H15         2.0194   -3.7007   -0.8150 H         1 <0>         0.0475
     54 H16         1.7577   -4.8702    0.5011 H         1 <0>         0.1021
     55 H17         5.9512    2.4073   -0.4979 H         1 <0>         0.1304
     56 H18         5.7310    1.1440   -1.7324 H         1 <0>         0.1401
     57 H19         5.6185    1.6923   -4.0482 H         1 <0>         0.1351
     58 H20         6.0033    3.3530   -5.8238 H         1 <0>         0.1417
     59 H21         6.1108    6.4566   -2.8876 H         1 <0>         0.1440
     60 H22         5.7150    4.7911   -1.1189 H         1 <0>         0.1367
     61 H23         7.1892    4.7256   -6.8713 H         1 <0>         0.0623
     62 H24         5.4328    4.9533   -7.0484 H         1 <0>         0.0621
     63 H25         6.5483    6.2754   -7.4677 H         1 <0>         0.1106
     64 H26         3.6202    1.7607   -3.1315 H         1 <0>         0.1471
     65 H27         3.2886    0.3553   -2.0909 H         1 <0>         0.1344
     66 H28         1.1417    0.0842   -1.0209 H         1 <0>         0.1256
     67 H29        -1.2279    0.8277   -0.9118 H         1 <0>         0.1431
     68 H30        -1.8634    2.9767   -1.9335 H         1 <0>         0.1684
     69 H31         2.0461    3.6814   -3.1355 H         1 <0>         0.1580
     70 N7          3.9519    2.0977   -1.0790 N.4       1 <0>        -0.3875
     71 H32         3.6145    3.0623   -0.9802 H         1 <0>         0.4509
@<TRIPOS>BOND
     1    1    2 1
     2    1   41 1
     3    1   42 1
     4    1   43 1
     5    2   13 ar
     6    2    3 ar
     7    3    4 ar
     8    3   44 1
     9    4    5 ar
    10    4   45 1
    11    5   12 ar
    12    5    6 1
    13    6    7 2
    14    6   46 1
    15    7    8 1
    16    7   14 1
    17    8    9 2
    18    8   10 am
    19   10   11 1
    20   10   12 1
    21   12   13 ar
    22   13   47 1
    23   14   15 1
    24   14   16 1
    25   14   70 1
    26   16   20 1
    27   16   17 2
    28   17   18 1
    29   18   19 2
    30   19   20 1
    31   20   21 1
    32   21   22 1
    33   21   48 1
    34   21   49 1
    35   22   23 1
    36   22   50 1
    37   22   51 1
    38   23   24 1
    39   24   52 1
    40   24   53 1
    41   24   54 1
    42   25   26 1
    43   25   55 1
    44   25   56 1
    45   25   70 1
    46   26   31 ar
    47   26   27 ar
    48   27   28 ar
    49   27   57 1
    50   28   29 ar
    51   28   58 1
    52   29   30 ar
    53   29   32 1
    54   30   31 ar
    55   30   59 1
    56   31   60 1
    57   32   33 1
    58   33   61 1
    59   33   62 1
    60   33   63 1
    61   34   35 1
    62   34   64 1
    63   34   65 1
    64   34   70 1
    65   35   40 ar
    66   35   36 ar
    67   36   37 ar
    68   36   66 1
    69   37   38 ar
    70   37   67 1
    71   38   39 ar
    72   38   68 1
    73   39   40 ar
    74   40   69 1
    75   70   71 1
@<TRIPOS>MOLECULE
ZINC35383357
   79    82     0     0     0
SMALL
USER_CHARGES

@<TRIPOS>ATOM
      1 C1          3.4462    0.4622    3.4257 C.3       1 <0>        -0.1093
      2 C2          3.1175    1.9327    3.4010 C.2       1 <0>        -0.1013
      3 C3          3.6994    2.7969    4.3094 C.2       1 <0>        -0.1612
      4 C4          3.3822    4.1138    4.2600 C.2       1 <0>        -0.1658
      5 S1          2.2282    4.1649    2.8988 S.3       1 <0>         0.0640
      6 C5          2.2510    2.4286    2.4841 C.2       1 <0>        -0.1830
      7 C6          1.5006    1.7024    1.3976 C.3       1 <0>         0.2022
      8 N1          0.1600    1.3570    1.8770 N.am      1 <0>        -0.6029
      9 C7         -0.0603    0.0975    2.5920 C.3       1 <0>         0.1084
     10 C8          0.1400    0.3210    4.0923 C.3       1 <0>        -0.1033
     11 C9         -0.0867   -0.9746    4.8279 C.ar      1 <0>        -0.0845
     12 C10        -1.3535   -1.3016    5.2746 C.ar      1 <0>        -0.1143
     13 C11        -1.5666   -2.4889    5.9499 C.ar      1 <0>        -0.1703
     14 C12        -0.5092   -3.3545    6.1798 C.ar      1 <0>         0.1025
     15 C13         0.7658   -3.0256    5.7298 C.ar      1 <0>         0.1070
     16 C14         0.9715   -1.8361    5.0494 C.ar      1 <0>        -0.1684
     17 O1          1.8067   -3.8718    5.9531 O.3       1 <0>        -0.3035
     18 C15         3.0870   -3.4689    5.4627 C.3       1 <0>         0.0250
     19 O2         -0.7171   -4.5227    6.8443 O.3       1 <0>        -0.3046
     20 C16        -2.0515   -4.7943    7.2774 C.3       1 <0>         0.0256
     21 C17        -0.8706    2.1981    1.6602 C.2       1 <0>         0.4891
     22 O3         -0.6721    3.2832    1.1563 O.2       1 <0>        -0.5091
     23 C18        -2.2696    1.7901    2.0439 C.3       1 <0>         0.0861
     24 N2         -3.2084    2.8490    1.6650 N.am      1 <0>        -0.5954
     25 C19        -3.7984    2.8596    0.3242 C.3       1 <0>         0.0967
     26 C20        -5.1027    2.0599    0.3346 C.3       1 <0>        -0.0253
     27 N3         -5.6943    2.0705   -1.0100 N.4       1 <0>        -0.3912
     28 C21        -4.8546    1.2791   -1.9453 C.3       1 <0>        -0.0100
     29 C22        -5.8391    0.9167   -3.0855 C.3       1 <0>        -0.1448
     30 C23        -7.1628    0.6576   -2.3300 C.3       1 <0>        -0.1447
     31 C24        -7.0147    1.4043   -0.9914 C.3       1 <0>        -0.0070
     32 C25        -3.5292    3.8135    2.5501 C.2       1 <0>         0.5415
     33 O4         -4.3608    4.6482    2.2625 O.2       1 <0>        -0.5199
     34 C26        -2.8546    3.8549    3.8970 C.3       1 <0>        -0.1420
     35 C27        -3.7501    3.3703    5.0495 C.3       1 <0>        -0.1196
     36 C28        -3.1562    4.5148    5.8876 C.3       1 <0>        -0.1404
     37 C29        -2.8868    5.2422    4.5598 C.3       1 <0>        -0.1175
     38 H1          4.2644    0.2611    2.7342 H         1 <0>         0.0739
     39 H2          3.7432    0.1732    4.4339 H         1 <0>         0.0680
     40 H3          2.5687   -0.1113    3.1269 H         1 <0>         0.0655
     41 H4          4.3962    2.4283    5.0476 H         1 <0>         0.1342
     42 H5          3.7355    4.9223    4.8828 H         1 <0>         0.1860
     43 H6          1.4186    2.3448    0.5209 H         1 <0>         0.1005
     44 H7          2.0372    0.7916    1.1317 H         1 <0>         0.1029
     45 H8         -1.0767   -0.2511    2.4091 H         1 <0>         0.0824
     46 H9          0.6495   -0.6502    2.2382 H         1 <0>         0.0907
     47 H10         1.1564    0.6697    4.2752 H         1 <0>         0.0920
     48 H11        -0.5698    1.0687    4.4462 H         1 <0>         0.0722
     49 H12        -2.1784   -0.6278    5.0960 H         1 <0>         0.1223
     50 H13        -2.5570   -2.7417    6.2984 H         1 <0>         0.1359
     51 H14         1.9594   -1.5802    4.6958 H         1 <0>         0.1356
     52 H15         3.8262   -4.2318    5.7071 H         1 <0>         0.1042
     53 H16         3.0386   -3.3431    4.3811 H         1 <0>         0.0551
     54 H17         3.3728   -2.5245    5.9259 H         1 <0>         0.0557
     55 H18        -2.7145   -4.8272    6.4128 H         1 <0>         0.0547
     56 H19        -2.0781   -5.7546    7.7923 H         1 <0>         0.1039
     57 H20        -2.3799   -4.0081    7.9573 H         1 <0>         0.0561
     58 H21        -2.5340    0.8679    1.5264 H         1 <0>         0.1122
     59 H22        -2.3187    1.6292    3.1209 H         1 <0>         0.1206
     60 H23        -4.0049    3.8875    0.0261 H         1 <0>         0.1073
     61 H24        -3.1017    2.4093   -0.3829 H         1 <0>         0.0976
     62 H25        -4.8962    1.0319    0.6326 H         1 <0>         0.1293
     63 H26        -5.7994    2.5102    1.0416 H         1 <0>         0.1343
     64 H27        -4.0301    1.8818   -2.3260 H         1 <0>         0.1358
     65 H28        -4.4812    0.3781   -1.4586 H         1 <0>         0.1332
     66 H29        -5.9481    1.7495   -3.7802 H         1 <0>         0.0991
     67 H30        -5.5107    0.0180   -3.6076 H         1 <0>         0.1170
     68 H31        -8.0052    1.0569   -2.8948 H         1 <0>         0.1059
     69 H32        -7.2957   -0.4101   -2.1549 H         1 <0>         0.1038
     70 H33        -7.0618    0.6963   -0.1640 H         1 <0>         0.1298
     71 H34        -7.8048    2.1487   -0.8921 H         1 <0>         0.1331
     72 H35        -1.8652    3.3976    3.8891 H         1 <0>         0.1070
     73 H36        -4.8160    3.4821    4.8510 H         1 <0>         0.0881
     74 H37        -3.4889    2.3783    5.4180 H         1 <0>         0.0765
     75 H38        -3.8875    5.0176    6.5204 H         1 <0>         0.0788
     76 H39        -2.2495    4.2373    6.4252 H         1 <0>         0.0869
     77 H40        -1.9288    5.7613    4.5328 H         1 <0>         0.0764
     78 H41        -3.7167    5.8657    4.2274 H         1 <0>         0.0973
     79 H42        -5.7876    3.0187   -1.3420 H         1 <0>         0.4297
@<TRIPOS>BOND
     1    1    2 1
     2    1   38 1
     3    1   39 1
     4    1   40 1
     5    2    6 2
     6    2    3 1
     7    3    4 2
     8    3   41 1
     9    4    5 1
    10    4   42 1
    11    5    6 1
    12    6    7 1
    13    7    8 1
    14    7   43 1
    15    7   44 1
    16    8    9 1
    17    8   21 am
    18    9   10 1
    19    9   45 1
    20    9   46 1
    21   10   11 1
    22   10   47 1
    23   10   48 1
    24   11   16 ar
    25   11   12 ar
    26   12   13 ar
    27   12   49 1
    28   13   14 ar
    29   13   50 1
    30   14   15 ar
    31   14   19 1
    32   15   16 ar
    33   15   17 1
    34   16   51 1
    35   17   18 1
    36   18   52 1
    37   18   53 1
    38   18   54 1
    39   19   20 1
    40   20   55 1
    41   20   56 1
    42   20   57 1
    43   21   22 2
    44   21   23 1
    45   23   24 1
    46   23   58 1
    47   23   59 1
    48   24   25 1
    49   24   32 am
    50   25   26 1
    51   25   60 1
    52   25   61 1
    53   26   27 1
    54   26   62 1
    55   26   63 1
    56   27   31 1
    57   27   28 1
    58   27   79 1
    59   28   29 1
    60   28   64 1
    61   28   65 1
    62   29   30 1
    63   29   66 1
    64   29   67 1
    65   30   31 1
    66   30   68 1
    67   30   69 1
    68   31   70 1
    69   31   71 1
    70   32   33 2
    71   32   34 1
    72   34   37 1
    73   34   35 1
    74   34   72 1
    75   35   36 1
    76   35   73 1
    77   35   74 1
    78   36   37 1
    79   36   75 1
    80   36   76 1
    81   37   77 1
    82   37   78 1
@<TRIPOS>MOLECULE
ZINC33937026
   76    80     0     0     0
SMALL
USER_CHARGES

@<TRIPOS>ATOM
      1 C1         -0.2514   -2.1121    1.0756 C.3       1 <0>        -0.1718
      2 C2         -1.3406   -1.7219    2.0768 C.3       1 <0>        -0.1517
      3 C3         -0.6934   -1.3186    3.4032 C.3       1 <0>         0.1273
      4 H1          0.3570   -1.6097    3.3982 H         1 <0>         0.1667
      5 C4         -1.4014   -2.0115    4.5388 C.2       1 <0>         0.1349
      6 N1         -2.5822   -1.7131    5.0232 N.2       1 <0>        -0.2872
      7 N2         -2.8369   -2.5328    5.9840 N.2       1 <0>        -0.0473
      8 N3         -1.8492   -3.3463    6.1251 N.2       1 <0>        -0.0550
      9 N4         -0.9465   -3.0606    5.2487 N.pl3     1 <0>        -0.2743
     10 C5          0.3345   -3.7468    5.0635 C.3       1 <0>         0.0997
     11 C6          1.4002   -3.0821    5.9373 C.3       1 <0>         0.0635
     12 H2          1.0696   -3.0472    6.9754 H         1 <0>         0.0955
     13 C7          2.7421   -3.8487    5.8257 C.3       1 <0>        -0.1461
     14 C8          3.7528   -2.7294    6.1967 C.3       1 <0>        -0.1547
     15 C9          3.0787   -1.4712    5.6086 C.3       1 <0>         0.0483
     16 O1          1.6818   -1.7572    5.4590 O.3       1 <0>        -0.4004
     17 N5         -0.7974    0.1365    3.5763 N.4       1 <0>        -0.3815
     18 C10        -0.0167    0.5469    4.7511 C.3       1 <0>         0.0461
     19 C11        -0.3591    1.9700    5.1097 C.ar      1 <0>        -0.1680
     20 C12         0.4044    3.0104    4.6143 C.ar      1 <0>        -0.0878
     21 C13         0.0903    4.3158    4.9432 C.ar      1 <0>        -0.1152
     22 C14        -0.9876    4.5808    5.7671 C.ar      1 <0>        -0.0432
     23 C15        -1.7517    3.5404    6.2617 C.ar      1 <0>        -0.1149
     24 C16        -1.4402    2.2353    5.9294 C.ar      1 <0>        -0.0883
     25 C17        -1.3294    6.0038    6.1265 C.3       1 <0>        -0.1304
     26 C18        -0.2740    0.8106    2.3807 C.3       1 <0>         0.0505
     27 C19        -1.4098    1.1165    1.4387 C.2       1 <0>        -0.2499
     28 C20        -2.6227    1.4706    1.9347 C.2       1 <0>         0.0196
     29 C21        -3.7046    1.7617    0.9950 C.ar      1 <0>        -0.1405
     30 C22        -4.9765    2.1324    1.4505 C.ar      1 <0>        -0.1163
     31 C23        -5.9746    2.4007    0.5402 C.ar      1 <0>         0.0898
     32 C24        -5.7222    2.3042   -0.8323 C.ar      1 <0>         0.1910
     33 C25        -4.4707    1.9393   -1.2921 C.ar      1 <0>        -0.2348
     34 C26        -3.4524    1.6652   -0.3873 C.ar      1 <0>         0.2117
     35 N6         -2.1960    1.2998   -0.8265 N.am      1 <0>        -0.6153
     36 H3         -2.0230    1.2336   -1.7787 H         1 <0>         0.4263
     37 C27        -1.2069    1.0396    0.0460 C.2       1 <0>         0.5536
     38 O2         -0.1081    0.7245   -0.3779 O.2       1 <0>        -0.5267
     39 O3         -6.7148    2.5708   -1.7203 O.3       1 <0>        -0.2879
     40 C28        -6.3927    2.4543   -3.1076 C.3       1 <0>         0.0171
     41 O4         -7.2113    2.7605    0.9777 O.3       1 <0>        -0.2969
     42 C29        -7.4017    2.8395    2.3917 C.3       1 <0>         0.0212
     43 H4          0.4884   -2.7413    1.5705 H         1 <0>         0.0667
     44 H5         -0.6992   -2.6607    0.2470 H         1 <0>         0.0825
     45 H6          0.2326   -1.2121    0.6962 H         1 <0>         0.0846
     46 H7         -1.9133   -0.8827    1.6819 H         1 <0>         0.1020
     47 H8         -2.0050   -2.5704    2.2399 H         1 <0>         0.1038
     48 H9          0.2309   -4.7934    5.3499 H         1 <0>         0.1427
     49 H10         0.6322   -3.6843    4.0168 H         1 <0>         0.1232
     50 H11         2.7858   -4.6703    6.5406 H         1 <0>         0.0993
     51 H12         2.9071   -4.2058    4.8091 H         1 <0>         0.0901
     52 H13         3.8570   -2.6439    7.2784 H         1 <0>         0.0849
     53 H14         4.7194   -2.9078    5.7256 H         1 <0>         0.0944
     54 H15         3.2117   -0.6289    6.2875 H         1 <0>         0.0788
     55 H16         3.5154   -1.2375    4.6376 H         1 <0>         0.0800
     56 H17        -0.2534   -0.1064    5.5909 H         1 <0>         0.1321
     57 H18         1.0469    0.4753    4.5236 H         1 <0>         0.1441
     58 H19         1.2465    2.8034    3.9706 H         1 <0>         0.1327
     59 H20         0.6873    5.1286    4.5568 H         1 <0>         0.1362
     60 H21        -2.5936    3.7474    6.9057 H         1 <0>         0.1360
     61 H22        -2.0394    1.4226    6.3128 H         1 <0>         0.1300
     62 H23        -2.0254    6.4072    5.3910 H         1 <0>         0.0820
     63 H24        -1.7898    6.0286    7.1142 H         1 <0>         0.0760
     64 H25        -0.4202    6.6050    6.1342 H         1 <0>         0.0760
     65 H26         0.2163    1.7393    2.6725 H         1 <0>         0.1504
     66 H27         0.4458    0.1607    1.8830 H         1 <0>         0.1550
     67 H28        -2.7853    1.5355    3.0004 H         1 <0>         0.1396
     68 H29        -5.1733    2.2070    2.5098 H         1 <0>         0.1535
     69 H30        -4.2847    1.8670   -2.3535 H         1 <0>         0.1554
     70 H31        -5.5868    3.1460   -3.3529 H         1 <0>         0.0642
     71 H32        -6.0740    1.4343   -3.3222 H         1 <0>         0.0638
     72 H33        -7.2718    2.6937   -3.7060 H         1 <0>         0.1135
     73 H34        -7.2044    1.8657    2.8399 H         1 <0>         0.0595
     74 H35        -6.7170    3.5774    2.8099 H         1 <0>         0.0587
     75 H36        -8.4290    3.1358    2.6040 H         1 <0>         0.1098
     76 H37        -1.7646    0.3910    3.7096 H         1 <0>         0.4219
@<TRIPOS>BOND
     1    1    2 1
     2    1   43 1
     3    1   44 1
     4    1   45 1
     5    2    3 1
     6    2   46 1
     7    2   47 1
     8    3    4 1
     9    3    5 1
    10    3   17 1
    11    5    9 1
    12    5    6 2
    13    6    7 1
    14    7    8 2
    15    8    9 1
    16    9   10 1
    17   10   11 1
    18   10   48 1
    19   10   49 1
    20   11   12 1
    21   11   16 1
    22   11   13 1
    23   13   14 1
    24   13   50 1
    25   13   51 1
    26   14   15 1
    27   14   52 1
    28   14   53 1
    29   15   16 1
    30   15   54 1
    31   15   55 1
    32   17   18 1
    33   17   26 1
    34   17   76 1
    35   18   19 1
    36   18   56 1
    37   18   57 1
    38   19   24 ar
    39   19   20 ar
    40   20   21 ar
    41   20   58 1
    42   21   22 ar
    43   21   59 1
    44   22   23 ar
    45   22   25 1
    46   23   24 ar
    47   23   60 1
    48   24   61 1
    49   25   62 1
    50   25   63 1
    51   25   64 1
    52   26   27 1
    53   26   65 1
    54   26   66 1
    55   27   37 1
    56   27   28 2
    57   28   29 1
    58   28   67 1
    59   29   34 ar
    60   29   30 ar
    61   30   31 ar
    62   30   68 1
    63   31   32 ar
    64   31   41 1
    65   32   33 ar
    66   32   39 1
    67   33   34 ar
    68   33   69 1
    69   34   35 1
    70   35   36 1
    71   35   37 am
    72   37   38 2
    73   39   40 1
    74   40   70 1
    75   40   71 1
    76   40   72 1
    77   41   42 1
    78   42   73 1
    79   42   74 1
    80   42   75 1
@<TRIPOS>MOLECULE
ZINC39710535
   70    74     0     0     0
SMALL
USER_CHARGES

@<TRIPOS>ATOM
      1 C1         -3.2275    4.0254    2.1493 C.3       1 <0>        -0.1554
      2 C2         -3.2990    2.5967    2.6920 C.3       1 <0>        -0.0940
      3 C3         -4.5864    1.9534    2.2449 C.ar      1 <0>        -0.1197
      4 C4         -5.7240    2.0756    3.0431 C.ar      1 <0>         0.0934
      5 C5         -6.9189    1.5239    2.7056 C.ar      1 <0>        -0.2262
      6 C6         -7.0560    0.7923    1.5116 C.ar      1 <0>         0.3663
      7 N1         -8.2332    0.2559    1.1904 N.am      1 <0>        -0.5806
      8 C7         -8.4309   -0.4428    0.0852 C.2       1 <0>         0.5157
      9 O1         -9.5289   -0.9086   -0.1546 O.2       1 <0>        -0.3596
     10 C8         -7.2871   -0.6602   -0.8796 C.3       1 <0>        -0.1454
     11 H1         -7.1464   -1.7350   -0.9948 H         1 <0>         0.1885
     12 C9         -5.9460   -0.0516   -0.5191 C.2       1 <0>         0.0986
     13 C10        -5.8706    0.6472    0.6491 C.ar      1 <0>        -0.1658
     14 C11        -4.6161    1.2716    1.0707 C.ar      1 <0>        -0.0045
     15 C12        -7.7066   -0.0981   -2.2393 C.3       1 <0>         0.1945
     16 H2         -6.8622   -0.1428   -2.9271 H         1 <0>         0.0948
     17 C13        -8.1467    1.3340   -2.0767 C.2       1 <0>         0.1412
     18 N2         -9.2090    1.7584   -1.4369 N.2       1 <0>        -0.2460
     19 N3         -9.2382    3.0436   -1.5227 N.2       1 <0>        -0.0518
     20 N4         -8.2220    3.4501   -2.2005 N.2       1 <0>        -0.0685
     21 N5         -7.5220    2.4260   -2.5552 N.pl3     1 <0>        -0.2941
     22 C14        -6.2822    2.4474   -3.3354 C.3       1 <0>         0.1077
     23 C15        -6.6112    2.2827   -4.8205 C.3       1 <0>         0.0440
     24 O2         -5.3999    2.2747   -5.5787 O.3       1 <0>        -0.3822
     25 C16        -5.5963    2.1250   -6.9862 C.3       1 <0>         0.0307
     26 N6         -8.8183   -0.8940   -2.7764 N.3       1 <0>        -0.5061
     27 C17        -9.3888   -0.2613   -3.9731 C.3       1 <0>         0.0952
     28 C18       -10.3377    0.8336   -3.5585 C.ar      1 <0>        -0.0950
     29 C19       -11.3725    0.5571   -2.6846 C.ar      1 <0>        -0.0583
     30 C20       -12.2430    1.5613   -2.3043 C.ar      1 <0>        -0.1065
     31 C21       -12.0784    2.8422   -2.7974 C.ar      1 <0>        -0.0976
     32 C22       -11.0430    3.1189   -3.6706 C.ar      1 <0>        -0.1050
     33 C23       -10.1700    2.1156   -4.0476 C.ar      1 <0>        -0.1461
     34 C24        -8.3909   -2.2702   -3.0616 C.3       1 <0>         0.0895
     35 C25        -8.5430   -3.1109   -1.8202 C.ar      1 <0>        -0.1560
     36 C26        -7.4476   -3.7647   -1.2764 C.ar      1 <0>        -0.0956
     37 C27        -7.6345   -4.5271   -0.1338 C.ar      1 <0>        -0.1797
     38 C28        -8.8976   -4.6096    0.4216 C.ar      1 <0>         0.1066
     39 N7         -9.9167   -3.9745   -0.1230 N.ar      1 <0>        -0.4772
     40 C29        -9.7746   -3.2355   -1.2061 C.ar      1 <0>         0.1645
     41 H3         -2.2964    4.4908    2.4727 H         1 <0>         0.0741
     42 H4         -3.2632    4.0026    1.0601 H         1 <0>         0.0587
     43 H5         -4.0721    4.6008    2.5285 H         1 <0>         0.0600
     44 H6         -2.4545    2.0213    2.3128 H         1 <0>         0.0895
     45 H7         -3.2634    2.6195    3.7812 H         1 <0>         0.0903
     46 H8         -5.6520    2.6308    3.9666 H         1 <0>         0.1668
     47 H9         -7.7698    1.6474    3.3591 H         1 <0>         0.1720
     48 H10        -5.0856   -0.1670   -1.1616 H         1 <0>         0.1968
     49 H11        -3.7286    1.1885    0.4609 H         1 <0>         0.1724
     50 H12        -5.7713    3.3976   -3.1797 H         1 <0>         0.1327
     51 H13        -5.6362    1.6306   -3.0136 H         1 <0>         0.1108
     52 H14        -7.1415    1.3427   -4.9730 H         1 <0>         0.0573
     53 H15        -7.2392    3.1114   -5.1476 H         1 <0>         0.0709
     54 H16        -6.1055    1.1817   -7.1837 H         1 <0>         0.0476
     55 H17        -6.2032    2.9504   -7.3583 H         1 <0>         0.0509
     56 H18        -4.6298    2.1286   -7.4903 H         1 <0>         0.1004
     57 H19        -8.5867    0.1626   -4.5773 H         1 <0>         0.0471
     58 H20        -9.9278   -1.0076   -4.5567 H         1 <0>         0.1046
     59 H21       -11.5012   -0.4436   -2.2993 H         1 <0>         0.1237
     60 H22       -13.0519    1.3452   -1.6221 H         1 <0>         0.1196
     61 H23       -12.7588    3.6266   -2.5008 H         1 <0>         0.1195
     62 H24       -10.9146    4.1195   -4.0561 H         1 <0>         0.1156
     63 H25        -9.3589    2.3326   -4.7268 H         1 <0>         0.1001
     64 H26        -9.0080   -2.6845   -3.8588 H         1 <0>         0.1095
     65 H27        -7.3465   -2.2690   -3.3739 H         1 <0>         0.0640
     66 H28        -6.4721   -3.6822   -1.7325 H         1 <0>         0.1354
     67 H29        -6.8039   -5.0502    0.3166 H         1 <0>         0.1384
     68 H30        -9.0516   -5.2015    1.3118 H         1 <0>         0.1575
     69 H31       -10.6316   -2.7256   -1.6206 H         1 <0>         0.1599
     70 H32        -8.9800    0.3839    1.7961 H         1 <0>         0.4401
@<TRIPOS>BOND
     1    1    2 1
     2    1   41 1
     3    1   42 1
     4    1   43 1
     5    2    3 1
     6    2   44 1
     7    2   45 1
     8    3   14 ar
     9    3    4 ar
    10    4    5 ar
    11    4   46 1
    12    5    6 ar
    13    5   47 1
    14    6   13 ar
    15    6    7 2
    16    7    8 am
    17    7   70 1
    18    8    9 2
    19    8   10 1
    20   10   11 1
    21   10   12 1
    22   10   15 1
    23   12   13 2
    24   12   48 1
    25   13   14 ar
    26   14   49 1
    27   15   16 1
    28   15   17 1
    29   15   26 1
    30   17   21 1
    31   17   18 2
    32   18   19 1
    33   19   20 2
    34   20   21 1
    35   21   22 1
    36   22   23 1
    37   22   50 1
    38   22   51 1
    39   23   24 1
    40   23   52 1
    41   23   53 1
    42   24   25 1
    43   25   54 1
    44   25   55 1
    45   25   56 1
    46   26   27 1
    47   26   34 1
    48   27   28 1
    49   27   57 1
    50   27   58 1
    51   28   33 ar
    52   28   29 ar
    53   29   30 ar
    54   29   59 1
    55   30   31 ar
    56   30   60 1
    57   31   32 ar
    58   31   61 1
    59   32   33 ar
    60   32   62 1
    61   33   63 1
    62   34   35 1
    63   34   64 1
    64   34   65 1
    65   35   40 ar
    66   35   36 ar
    67   36   37 ar
    68   36   66 1
    69   37   38 ar
    70   37   67 1
    71   38   39 ar
    72   38   68 1
    73   39   40 ar
    74   40   69 1
@<TRIPOS>MOLECULE
ZINC01375956
   70    75     0     0     0
SMALL
USER_CHARGES

@<TRIPOS>ATOM
      1 C1         -2.2002   -2.9815   -1.6719 C.3       1 <0>        -0.1752
      2 C2         -2.3252   -2.2754   -0.3204 C.3       1 <0>        -0.1520
      3 C3         -2.4687   -0.7686   -0.5434 C.3       1 <0>         0.1181
      4 H1         -1.6044   -0.3991   -1.0953 H         1 <0>         0.1558
      5 C4         -2.5505   -0.0691    0.7889 C.2       1 <0>         0.1298
      6 N1         -3.6420    0.2287    1.4507 N.2       1 <0>        -0.2823
      7 N2         -3.2968    0.8205    2.5418 N.2       1 <0>        -0.0437
      8 N3         -2.0135    0.9080    2.5932 N.2       1 <0>        -0.0494
      9 N4         -1.5168    0.3659    1.5330 N.pl3     1 <0>        -0.2739
     10 C5         -0.0949    0.2491    1.2000 C.3       1 <0>         0.1468
     11 C6          0.3774    1.5281    0.5579 C.ar      1 <0>        -0.1538
     12 C7          0.4086    1.6388   -0.8197 C.ar      1 <0>        -0.0782
     13 C8          0.8411    2.8113   -1.4096 C.ar      1 <0>        -0.1485
     14 C9          1.2432    3.8754   -0.6203 C.ar      1 <0>         0.1327
     15 C10         1.2115    3.7634    0.7594 C.ar      1 <0>        -0.1485
     16 C11         0.7736    2.5917    1.3471 C.ar      1 <0>        -0.0501
     17 F1          1.6666    5.0220   -1.1958 F         1 <0>        -0.1253
     18 N5         -3.6915   -0.5017   -1.3125 N.4       1 <0>        -0.3712
     19 C12        -3.8624    0.9485   -1.4729 C.3       1 <0>        -0.0136
     20 C13        -2.7129    1.5076   -2.3137 C.3       1 <0>        -0.1061
     21 C14        -2.9111    2.9879   -2.5144 C.ar      1 <0>        -0.0987
     22 C15        -3.6435    3.4473   -3.5930 C.ar      1 <0>        -0.1073
     23 C16        -3.8253    4.8052   -3.7771 C.ar      1 <0>        -0.1127
     24 C17        -3.2751    5.7038   -2.8823 C.ar      1 <0>        -0.1025
     25 C18        -2.5435    5.2444   -1.8031 C.ar      1 <0>        -0.1113
     26 C19        -2.3653    3.8863   -1.6167 C.ar      1 <0>        -0.1036
     27 C20        -4.8497   -1.0553   -0.5984 C.3       1 <0>         0.0319
     28 C21        -6.0791   -0.9284   -1.4607 C.2       1 <0>        -0.2673
     29 C22        -6.4728   -1.9718   -2.2346 C.2       1 <0>         0.0641
     30 C23        -7.6698   -1.8175   -3.0602 C.ar      1 <0>        -0.1487
     31 C24        -8.1217   -2.8601   -3.8791 C.ar      1 <0>        -0.0327
     32 C25        -9.2518   -2.6850   -4.6464 C.ar      1 <0>         0.0124
     33 C26        -9.9489   -1.4706   -4.6094 C.ar      1 <0>         0.1244
     34 C27        -9.5100   -0.4361   -3.8037 C.ar      1 <0>        -0.1598
     35 C28        -8.3715   -0.5968   -3.0241 C.ar      1 <0>         0.2208
     36 N6         -7.9182    0.4253   -2.2148 N.am      1 <0>        -0.6163
     37 H2         -8.4022    1.2655   -2.1898 H         1 <0>         0.4273
     38 C29        -6.8191    0.2712   -1.4562 C.2       1 <0>         0.5410
     39 O1         -6.4501    1.1943   -0.7503 O.2       1 <0>        -0.5183
     40 O2        -11.0179   -1.5600   -5.4525 O.3       1 <0>        -0.2938
     41 C30       -10.7390   -2.6802   -6.3124 C.3       1 <0>         0.2103
     42 O3         -9.8906   -3.5254   -5.5134 O.3       1 <0>        -0.2975
     43 H3         -2.0034   -4.0415   -1.5113 H         1 <0>         0.0959
     44 H4         -3.1292   -2.8648   -2.2301 H         1 <0>         0.0586
     45 H5         -1.3789   -2.5411   -2.2373 H         1 <0>         0.0773
     46 H6         -3.2033   -2.6501    0.2055 H         1 <0>         0.1050
     47 H7         -1.4338   -2.4712    0.2756 H         1 <0>         0.1163
     48 H8          0.4774    0.0661    2.1094 H         1 <0>         0.1386
     49 H9          0.0490   -0.5800    0.5071 H         1 <0>         0.1246
     50 H10         0.0953    0.8085   -1.4352 H         1 <0>         0.1291
     51 H11         0.8658    2.8974   -2.4859 H         1 <0>         0.1447
     52 H12         1.5252    4.5927    1.3761 H         1 <0>         0.1480
     53 H13         0.7445    2.5057    2.4233 H         1 <0>         0.1444
     54 H14        -4.8097    1.1496   -1.9731 H         1 <0>         0.1440
     55 H15        -3.8607    1.4251   -0.4926 H         1 <0>         0.1382
     56 H16        -1.7681    1.3340   -1.7986 H         1 <0>         0.0836
     57 H17        -2.6954    1.0087   -3.2827 H         1 <0>         0.0964
     58 H18        -4.0734    2.7452   -4.2922 H         1 <0>         0.1218
     59 H19        -4.3969    5.1641   -4.6202 H         1 <0>         0.1286
     60 H20        -3.4166    6.7647   -3.0265 H         1 <0>         0.1290
     61 H21        -2.1133    5.9465   -1.1042 H         1 <0>         0.1257
     62 H22        -1.7968    3.5273   -0.7715 H         1 <0>         0.1136
     63 H23        -4.6699   -2.1068   -0.3745 H         1 <0>         0.1421
     64 H24        -4.9997   -0.5063    0.3312 H         1 <0>         0.1826
     65 H25        -5.9139   -2.8959   -2.2407 H         1 <0>         0.1592
     66 H26        -7.5859   -3.7974   -3.9089 H         1 <0>         0.1565
     67 H27       -10.0529    0.4972   -3.7800 H         1 <0>         0.1558
     68 H28       -11.6604   -3.2006   -6.5739 H         1 <0>         0.1453
     69 H29       -10.2156   -2.3521   -7.2105 H         1 <0>         0.0981
     70 H30        -3.6184   -0.9343   -2.2212 H         1 <0>         0.4239
@<TRIPOS>BOND
     1    1    2 1
     2    1   43 1
     3    1   44 1
     4    1   45 1
     5    2    3 1
     6    2   46 1
     7    2   47 1
     8    3    4 1
     9    3    5 1
    10    3   18 1
    11    5    9 1
    12    5    6 2
    13    6    7 1
    14    7    8 2
    15    8    9 1
    16    9   10 1
    17   10   11 1
    18   10   48 1
    19   10   49 1
    20   11   16 ar
    21   11   12 ar
    22   12   13 ar
    23   12   50 1
    24   13   14 ar
    25   13   51 1
    26   14   15 ar
    27   14   17 1
    28   15   16 ar
    29   15   52 1
    30   16   53 1
    31   18   19 1
    32   18   27 1
    33   18   70 1
    34   19   20 1
    35   19   54 1
    36   19   55 1
    37   20   21 1
    38   20   56 1
    39   20   57 1
    40   21   26 ar
    41   21   22 ar
    42   22   23 ar
    43   22   58 1
    44   23   24 ar
    45   23   59 1
    46   24   25 ar
    47   24   60 1
    48   25   26 ar
    49   25   61 1
    50   26   62 1
    51   27   28 1
    52   27   63 1
    53   27   64 1
    54   28   38 1
    55   28   29 2
    56   29   30 1
    57   29   65 1
    58   30   35 ar
    59   30   31 ar
    60   31   32 ar
    61   31   66 1
    62   32   42 1
    63   32   33 ar
    64   33   34 ar
    65   33   40 1
    66   34   35 ar
    67   34   67 1
    68   35   36 1
    69   36   37 1
    70   36   38 am
    71   38   39 2
    72   40   41 1
    73   41   42 1
    74   41   68 1
    75   41   69 1
@<TRIPOS>MOLECULE
ZINC08996596
   74    77     0     0     0
SMALL
USER_CHARGES
3,4,5-triethoxy-N-[(1R)-1-methyl-2-oxo-2-spiro[3,5,6,7-tetrahydroimidazo[5,4-c]pyridine-4,4'-piperidine]-1'-yl-ethyl]benzamide
@<TRIPOS>ATOM
      1 C1          4.3488    3.8544    3.5244 C.3       1 <0>        -0.1537
      2 C2          3.0940    4.5955    3.0584 C.3       1 <0>         0.0509
      3 O1          2.2468    3.6943    2.3428 O.3       1 <0>        -0.2953
      4 C3          1.0806    4.1977    1.8567 C.ar      1 <0>         0.1478
      5 C4          0.7645    5.5279    2.0603 C.ar      1 <0>        -0.2021
      6 C5         -0.4364    6.0428    1.5660 C.ar      1 <0>        -0.0712
      7 C6         -1.3123    5.2129    0.8620 C.ar      1 <0>        -0.1709
      8 C7         -0.9890    3.8848    0.6562 C.ar      1 <0>         0.1470
      9 C8          0.2085    3.3741    1.1498 C.ar      1 <0>         0.0646
     10 O2          0.5241    2.0681    0.9461 O.3       1 <0>        -0.3100
     11 C9          1.2563    1.7550   -0.2404 C.3       1 <0>         0.0634
     12 C10         1.5170    0.2484   -0.2963 C.3       1 <0>        -0.1503
     13 O3         -1.8410    3.0764   -0.0295 O.3       1 <0>        -0.2954
     14 C11        -3.0516    3.6664   -0.5075 C.3       1 <0>         0.0500
     15 C12        -3.8753    2.6112   -1.2485 C.3       1 <0>        -0.1531
     16 C13        -0.7790    7.4616    1.7868 C.2       1 <0>         0.5727
     17 O4         -1.8243    7.9087    1.3558 O.2       1 <0>        -0.5268
     18 N1          0.0668    8.2612    2.4662 N.am      1 <0>        -0.7156
     19 C14        -0.2732    9.6693    2.6853 C.3       1 <0>         0.1268
     20 H1         -1.3497    9.7653    2.8267 H         1 <0>         0.1149
     21 C15         0.1570   10.4930    1.4699 C.3       1 <0>        -0.1636
     22 C16         0.4416   10.1736    3.9124 C.2       1 <0>         0.5226
     23 O5          1.3977    9.5684    4.3489 O.2       1 <0>        -0.5078
     24 N2          0.0183   11.2971    4.5249 N.am      1 <0>        -0.6218
     25 C17        -1.1992   11.9836    4.0719 C.3       1 <0>         0.0852
     26 C18        -2.1365   12.1603    5.2768 C.3       1 <0>        -0.1555
     27 C19        -1.3873   12.8807    6.3985 C.3       1 <0>         0.1647
     28 C20        -0.1858   12.0439    6.8390 C.3       1 <0>        -0.1464
     29 C21         0.7688   11.8624    5.6545 C.3       1 <0>         0.0960
     30 C22        -2.3106   13.0995    7.5670 C.2       1 <0>        -0.0825
     31 C23        -2.3903   14.2628    8.2529 C.2       1 <0>         0.0268
     32 N3         -3.3010   14.1138    9.2146 N.2       1 <0>        -0.4687
     33 C24        -3.7912   12.9021    9.1561 C.2       1 <0>         0.2328
     34 N4         -3.1943   12.2390    8.1378 N.pl3     1 <0>        -0.5406
     35 H2         -3.3703   11.2950    7.8586 H         1 <0>         0.4369
     36 C25        -1.5530   15.4730    7.9184 C.3       1 <0>        -0.0613
     37 C26        -0.3984   15.0132    7.0175 C.3       1 <0>        -0.0035
     38 H3          4.8829    3.4640    2.6581 H         1 <0>         0.0691
     39 H4          4.9951    4.5417    4.0703 H         1 <0>         0.0812
     40 H5          4.0624    3.0295    4.1768 H         1 <0>         0.0699
     41 H6          3.3804    5.4204    2.4061 H         1 <0>         0.0637
     42 H7          2.5599    4.9859    3.9247 H         1 <0>         0.0640
     43 H8          1.4433    6.1675    2.6049 H         1 <0>         0.1365
     44 H9         -2.2415    5.6085    0.4792 H         1 <0>         0.1500
     45 H10         2.2069    2.2882   -0.2321 H         1 <0>         0.0527
     46 H11         0.6783    2.0563   -1.1141 H         1 <0>         0.0534
     47 H12         2.0950   -0.0529    0.5774 H         1 <0>         0.0657
     48 H13         0.5664   -0.2848   -0.3046 H         1 <0>         0.0662
     49 H14         2.0755    0.0096   -1.2014 H         1 <0>         0.0761
     50 H15        -3.6264    4.0500    0.3354 H         1 <0>         0.0662
     51 H16        -2.8134    4.4845   -1.1872 H         1 <0>         0.0660
     52 H17        -4.7987    3.0612   -1.6131 H         1 <0>         0.0822
     53 H18        -3.3005    2.2276   -2.0914 H         1 <0>         0.0684
     54 H19        -4.1135    1.7930   -0.5688 H         1 <0>         0.0693
     55 H20         0.9007    7.9045    2.8100 H         1 <0>         0.4122
     56 H21         1.2349   10.4043    1.3339 H         1 <0>         0.0715
     57 H22        -0.3530   10.1223    0.5807 H         1 <0>         0.0852
     58 H23        -0.1042   11.5392    1.6290 H         1 <0>         0.0711
     59 H24        -0.9377   12.9594    3.6624 H         1 <0>         0.0795
     60 H25        -1.6936   11.3846    3.3072 H         1 <0>         0.1215
     61 H26        -2.4677   11.1836    5.6296 H         1 <0>         0.1136
     62 H27        -3.0021   12.7521    4.9792 H         1 <0>         0.1119
     63 H28        -0.5286   11.0680    7.1825 H         1 <0>         0.1138
     64 H29         0.3343   12.5530    7.6504 H         1 <0>         0.1085
     65 H30         1.5740   11.1833    5.9348 H         1 <0>         0.1255
     66 H31         1.1875   12.8273    5.3687 H         1 <0>         0.0726
     67 H32        -4.5475   12.4974    9.8122 H         1 <0>         0.2261
     68 H33        -2.1614   16.2083    7.3918 H         1 <0>         0.1087
     69 H34        -1.1547   15.9104    8.8339 H         1 <0>         0.1298
     70 H35         0.1112   15.8852    6.6076 H         1 <0>         0.1477
     71 H36         0.3065   14.4237    7.6038 H         1 <0>         0.1351
     72 N5         -0.9248   14.1966    5.9044 N.4       1 <0>        -0.5128
     73 H37        -1.7128   14.6892    5.4676 H         1 <0>         0.4369
     74 H38        -0.1825   14.0545    5.2095 H         1 <0>         0.4342
@<TRIPOS>BOND
     1    1    2 1
     2    1   38 1
     3    1   39 1
     4    1   40 1
     5    2    3 1
     6    2   41 1
     7    2   42 1
     8    3    4 1
     9    4    9 ar
    10    4    5 ar
    11    5    6 ar
    12    5   43 1
    13    6    7 ar
    14    6   16 1
    15    7    8 ar
    16    7   44 1
    17    8    9 ar
    18    8   13 1
    19    9   10 1
    20   10   11 1
    21   11   12 1
    22   11   45 1
    23   11   46 1
    24   12   47 1
    25   12   48 1
    26   12   49 1
    27   13   14 1
    28   14   15 1
    29   14   50 1
    30   14   51 1
    31   15   52 1
    32   15   53 1
    33   15   54 1
    34   16   17 2
    35   16   18 am
    36   18   19 1
    37   18   55 1
    38   19   20 1
    39   19   21 1
    40   19   22 1
    41   21   56 1
    42   21   57 1
    43   21   58 1
    44   22   23 2
    45   22   24 am
    46   24   29 1
    47   24   25 1
    48   25   26 1
    49   25   59 1
    50   25   60 1
    51   26   27 1
    52   26   61 1
    53   26   62 1
    54   27   28 1
    55   27   30 1
    56   27   72 1
    57   28   29 1
    58   28   63 1
    59   28   64 1
    60   29   65 1
    61   29   66 1
    62   30   34 1
    63   30   31 2
    64   31   32 1
    65   31   36 1
    66   32   33 2
    67   33   34 1
    68   33   67 1
    69   34   35 1
    70   36   37 1
    71   36   68 1
    72   36   69 1
    73   37   70 1
    74   37   71 1
    75   37   72 1
    76   72   73 1
    77   72   74 1
@<TRIPOS>MOLECULE
ZINC35751659
   67    70     0     0     0
SMALL
USER_CHARGES

@<TRIPOS>ATOM
      1 C1         -0.4155    1.2877   -0.1464 C.3       1 <0>        -0.1214
      2 C2         -0.2868   -0.2099   -0.0384 C.ar      1 <0>        -0.0708
      3 C3         -0.3523   -0.9931   -1.1756 C.ar      1 <0>        -0.1251
      4 C4         -0.2343   -2.3668   -1.0766 C.ar      1 <0>        -0.1017
      5 C5         -0.0502   -2.9573    0.1597 C.ar      1 <0>        -0.1315
      6 C6          0.0162   -2.1741    1.2968 C.ar      1 <0>        -0.0860
      7 C7         -0.0976   -0.8001    1.1972 C.ar      1 <0>        -0.1195
      8 C8          0.0775   -4.4550    0.2678 C.3       1 <0>         0.1938
      9 N1          1.4875   -4.8347    0.1495 N.am      1 <0>        -0.6054
     10 C9          2.2018   -5.1506   -1.1032 C.3       1 <0>         0.0820
     11 H1          1.9966   -4.4002   -1.8668 H         1 <0>         0.1320
     12 C10         3.6827   -5.0934   -0.6588 C.3       1 <0>         0.1317
     13 H2          4.1070   -4.1067   -0.8447 H         1 <0>         0.1284
     14 O1          3.5819   -5.3522    0.7551 O.3       1 <0>        -0.3110
     15 C11         2.3656   -4.9525    1.1633 C.2       1 <0>         0.6494
     16 O2          2.0870   -4.7246    2.3238 O.2       1 <0>        -0.4903
     17 C12         4.4924   -6.1627   -1.3460 C.ar      1 <0>        -0.1255
     18 C13         4.4518   -7.4644   -0.8811 C.ar      1 <0>        -0.0590
     19 C14         5.1926   -8.4467   -1.5085 C.ar      1 <0>        -0.1450
     20 C15         5.9787   -8.1260   -2.6079 C.ar      1 <0>         0.1605
     21 C16         6.0168   -6.8176   -3.0725 C.ar      1 <0>        -0.1239
     22 C17         5.2698   -5.8410   -2.4434 C.ar      1 <0>        -0.0733
     23 N2          6.7303   -9.1180   -3.2451 N.am      1 <0>        -0.6712
     24 C18         7.9209   -8.8112   -3.7972 C.2       1 <0>         0.6089
     25 O3          8.3865   -7.6952   -3.6584 O.2       1 <0>        -0.4879
     26 C19         8.6553   -9.8217   -4.5649 C.2       1 <0>        -0.1027
     27 C20         9.8674   -9.6462   -5.1690 C.2       1 <0>        -0.0974
     28 C21        10.1915  -10.8651   -5.7848 C.2       1 <0>        -0.2221
     29 C22         9.1761  -11.7204   -5.5328 C.2       1 <0>         0.0071
     30 O4          8.2547  -11.0896   -4.7933 O.3       1 <0>        -0.1708
     31 C23         1.8378   -6.5274   -1.5959 C.2       1 <0>         0.5217
     32 O5          1.3362   -7.3299   -0.8375 O.2       1 <0>        -0.4982
     33 N3          2.0696   -6.8670   -2.8795 N.am      1 <0>        -0.7243
     34 C24         1.7157   -8.2055   -3.3584 C.3       1 <0>         0.0969
     35 C25         2.0802   -8.3302   -4.8391 C.3       1 <0>        -0.0251
     36 N4          1.7253   -9.6724   -5.3194 N.4       1 <0>        -0.3826
     37 C26         0.2674   -9.8432   -5.2623 C.3       1 <0>        -0.0560
     38 C27         2.1833   -9.8333   -6.7059 C.3       1 <0>        -0.0473
     39 H3          0.5712    1.7277   -0.2906 H         1 <0>         0.0740
     40 H4         -1.0522    1.5374   -0.9952 H         1 <0>         0.0688
     41 H5         -0.8587    1.6812    0.7684 H         1 <0>         0.0702
     42 H6         -0.4961   -0.5317   -2.1415 H         1 <0>         0.1236
     43 H7         -0.2861   -2.9787   -1.9650 H         1 <0>         0.1165
     44 H8          0.1596   -2.6355    2.2627 H         1 <0>         0.1287
     45 H9         -0.0420   -0.1879    2.0852 H         1 <0>         0.1264
     46 H10        -0.3076   -4.7838    1.2330 H         1 <0>         0.1023
     47 H11        -0.4941   -4.9270   -0.5313 H         1 <0>         0.0905
     48 H12         3.8405   -7.7131   -0.0263 H         1 <0>         0.1343
     49 H13         5.1611   -9.4630   -1.1446 H         1 <0>         0.1314
     50 H14         6.6270   -6.5649   -3.9270 H         1 <0>         0.1426
     51 H15         5.2958   -4.8243   -2.8067 H         1 <0>         0.1376
     52 H16         6.3948  -10.0271   -3.2899 H         1 <0>         0.4150
     53 H17        10.4612   -8.7441   -5.1728 H         1 <0>         0.1650
     54 H18        11.0846  -11.0792   -6.3532 H         1 <0>         0.1636
     55 H19         9.1189  -12.7452   -5.8690 H         1 <0>         0.2164
     56 H20         2.4708   -6.2252   -3.4861 H         1 <0>         0.4088
     57 H21         2.2637   -8.9532   -2.7851 H         1 <0>         0.0904
     58 H22         0.6447   -8.3648   -3.2332 H         1 <0>         0.0916
     59 H23         1.5322   -7.5825   -5.4124 H         1 <0>         0.1391
     60 H24         3.1512   -8.1709   -4.9643 H         1 <0>         0.1382
     61 H25         0.0041  -10.8391   -5.6187 H         1 <0>         0.1291
     62 H26        -0.0724   -9.7238   -4.2336 H         1 <0>         0.1262
     63 H27        -0.2113   -9.0935   -5.8924 H         1 <0>         0.1255
     64 H28         3.2650   -9.7065   -6.7482 H         1 <0>         0.1244
     65 H29         1.9199  -10.8291   -7.0623 H         1 <0>         0.1286
     66 H30         1.7046   -9.0836   -7.3359 H         1 <0>         0.1246
     67 H31         2.1684  -10.3663   -4.7362 H         1 <0>         0.4293
@<TRIPOS>BOND
     1    1    2 1
     2    1   39 1
     3    1   40 1
     4    1   41 1
     5    2    7 ar
     6    2    3 ar
     7    3    4 ar
     8    3   42 1
     9    4    5 ar
    10    4   43 1
    11    5    6 ar
    12    5    8 1
    13    6    7 ar
    14    6   44 1
    15    7   45 1
    16    8    9 1
    17    8   46 1
    18    8   47 1
    19    9   15 am
    20    9   10 1
    21   10   11 1
    22   10   12 1
    23   10   31 1
    24   12   13 1
    25   12   14 1
    26   12   17 1
    27   14   15 1
    28   15   16 2
    29   17   22 ar
    30   17   18 ar
    31   18   19 ar
    32   18   48 1
    33   19   20 ar
    34   19   49 1
    35   20   21 ar
    36   20   23 1
    37   21   22 ar
    38   21   50 1
    39   22   51 1
    40   23   24 am
    41   23   52 1
    42   24   25 2
    43   24   26 1
    44   26   30 1
    45   26   27 2
    46   27   28 1
    47   27   53 1
    48   28   29 2
    49   28   54 1
    50   29   30 1
    51   29   55 1
    52   31   32 2
    53   31   33 am
    54   33   34 1
    55   33   56 1
    56   34   35 1
    57   34   57 1
    58   34   58 1
    59   35   36 1
    60   35   59 1
    61   35   60 1
    62   36   37 1
    63   36   38 1
    64   36   67 1
    65   37   61 1
    66   37   62 1
    67   37   63 1
    68   38   64 1
    69   38   65 1
    70   38   66 1
@<TRIPOS>MOLECULE
ZINC39344803
   62    66     0     0     0
SMALL
USER_CHARGES

@<TRIPOS>ATOM
      1 C1         -0.0184    1.5028    0.0103 C.3       1 <0>        -0.1790
      2 C2          0.0021   -0.0041    0.0020 C.2       1 <0>         0.5230
      3 O1          1.0605   -0.5961   -0.0113 O.2       1 <0>        -0.5242
      4 N1         -1.1558   -0.6938    0.0094 N.am      1 <0>        -0.7310
      5 C3         -1.1360   -2.1586    0.0013 C.3       1 <0>         0.2002
      6 H1         -0.2814   -2.5300    0.5669 H         1 <0>         0.1553
      7 C4         -1.0961   -2.6781   -1.4170 C.ar      1 <0>        -0.1382
      8 C5         -0.1639   -2.5102   -2.4233 C.ar      1 <0>         0.0054
      9 C6         -0.3981   -3.1206   -3.6544 C.ar      1 <0>         0.1873
     10 C7         -1.5539   -3.8692   -3.8186 C.ar      1 <0>         0.0405
     11 N2         -2.4187   -4.0060   -2.8356 N.ar      1 <0>        -0.4480
     12 C8         -2.2336   -3.4396   -1.6432 C.ar      1 <0>         0.3985
     13 N3         -3.0476   -3.4900   -0.5135 N.pl3     1 <0>        -0.5686
     14 C9         -2.4468   -2.7167    0.5801 C.3       1 <0>         0.1488
     15 H2         -2.2387   -3.3631    1.4328 H         1 <0>         0.1590
     16 C10        -3.3601   -1.5895    0.9879 C.2       1 <0>         0.4445
     17 O2         -4.2678   -1.2554    0.2638 O.2       1 <0>        -0.4772
     18 O3         -3.1651   -0.9566    2.1554 O.3       1 <0>        -0.3365
     19 C11        -4.0686    0.1025    2.4780 C.3       1 <0>         0.0287
     20 C12        -4.3198   -4.2116   -0.4286 C.3       1 <0>         0.1204
     21 C13        -4.0640   -5.6413    0.0523 C.3       1 <0>        -0.0571
     22 C14        -5.3727   -6.3836    0.1397 C.2       1 <0>        -0.1959
     23 C15        -6.0538   -7.0806   -0.9540 C.ar      1 <0>        -0.1008
     24 C16        -5.7660   -7.2810   -2.3052 C.ar      1 <0>        -0.0844
     25 C17        -6.6296   -7.9993   -3.0835 C.ar      1 <0>        -0.1355
     26 C18        -7.7914   -8.5311   -2.5415 C.ar      1 <0>        -0.0963
     27 C19        -8.0950   -8.3453   -1.2104 C.ar      1 <0>        -0.1207
     28 C20        -7.2301   -7.6179   -0.3996 C.ar      1 <0>         0.0958
     29 N4         -7.2492   -7.2661    0.9315 N.pl3     1 <0>        -0.5900
     30 C21        -6.1324   -6.5363    1.2358 C.2       1 <0>         0.0781
     31 N5          0.5163   -2.9800   -4.7057 N.pl3     1 <0>        -0.7120
     32 C22         0.2564   -3.6275   -5.9940 C.3       1 <0>         0.2109
     33 C23         1.3840   -3.3223   -6.9461 C.2       1 <0>        -0.0089
     34 N6          2.4879   -3.9988   -7.1433 N.2       1 <0>        -0.4871
     35 C24         3.3887   -3.6013   -8.0197 C.2       1 <0>         0.0273
     36 C25         3.1185   -2.4613   -8.7057 C.2       1 <0>        -0.1992
     37 S1          1.5267   -2.0334   -8.0190 S.3       1 <0>         0.1428
     38 H3          1.0042    1.8801    0.0026 H         1 <0>         0.1040
     39 H4         -0.5455    1.8639   -0.8728 H         1 <0>         0.0930
     40 H5         -0.5286    1.8543    0.9071 H         1 <0>         0.0963
     41 H6         -2.0023   -0.2203    0.0200 H         1 <0>         0.4044
     42 H7          0.7254   -1.9195   -2.2597 H         1 <0>         0.1749
     43 H8         -1.7475   -4.3471   -4.7675 H         1 <0>         0.2041
     44 H9         -4.0101    0.8759    1.7122 H         1 <0>         0.0675
     45 H10        -5.0852   -0.2883    2.5229 H         1 <0>         0.0692
     46 H11        -3.7997    0.5275    3.4451 H         1 <0>         0.1158
     47 H12        -4.9791   -3.7039    0.2754 H         1 <0>         0.1067
     48 H13        -4.7891   -4.2375   -1.4120 H         1 <0>         0.0910
     49 H14        -3.4047   -6.1490   -0.6516 H         1 <0>         0.0741
     50 H15        -3.5947   -5.6154    1.0358 H         1 <0>         0.0842
     51 H16        -4.8641   -6.8696   -2.7339 H         1 <0>         0.1106
     52 H17        -6.4064   -8.1541   -4.1288 H         1 <0>         0.1248
     53 H18        -8.4644   -9.0959   -3.1695 H         1 <0>         0.1301
     54 H19        -9.0017   -8.7627   -0.7981 H         1 <0>         0.1246
     55 H20        -5.8982   -6.1395    2.2126 H         1 <0>         0.1719
     56 H21        -7.9482   -7.5036    1.5607 H         1 <0>         0.4217
     57 H22         1.3217   -2.4540   -4.5810 H         1 <0>         0.4218
     58 H23         0.1836   -4.7056   -5.8506 H         1 <0>         0.1054
     59 H24        -0.6797   -3.2519   -6.4071 H         1 <0>         0.0991
     60 H25         4.3000   -4.1569   -8.1843 H         1 <0>         0.1815
     61 H26         3.7027   -1.9555   -9.4602 H         1 <0>         0.2053
     62 H27        -3.2172   -4.5363   -2.9840 H         1 <0>         0.4420
@<TRIPOS>BOND
     1    1    2 1
     2    1   38 1
     3    1   39 1
     4    1   40 1
     5    2    3 2
     6    2    4 am
     7    4    5 1
     8    4   41 1
     9    5    6 1
    10    5   14 1
    11    5    7 1
    12    7   12 ar
    13    7    8 ar
    14    8    9 ar
    15    8   42 1
    16    9   10 ar
    17    9   31 1
    18   10   11 ar
    19   10   43 1
    20   11   12 ar
    21   11   62 1
    22   12   13 1
    23   13   14 1
    24   13   20 1
    25   14   15 1
    26   14   16 1
    27   16   17 2
    28   16   18 1
    29   18   19 1
    30   19   44 1
    31   19   45 1
    32   19   46 1
    33   20   21 1
    34   20   47 1
    35   20   48 1
    36   21   49 1
    37   21   50 1
    38   21   22 1
    39   22   23 1
    40   22   30 2
    41   23   24 ar
    42   23   28 ar
    43   24   25 ar
    44   24   51 1
    45   25   26 ar
    46   25   52 1
    47   26   27 ar
    48   26   53 1
    49   27   28 ar
    50   27   54 1
    51   28   29 1
    52   29   56 1
    53   29   30 1
    54   30   55 1
    55   31   32 1
    56   31   57 1
    57   32   33 1
    58   32   58 1
    59   32   59 1
    60   33   37 1
    61   33   34 2
    62   34   35 1
    63   35   36 2
    64   35   60 1
    65   36   37 1
    66   36   61 1
@<TRIPOS>MOLECULE
ZINC39665162
   75    78     0     0     0
SMALL
USER_CHARGES

@<TRIPOS>ATOM
      1 C1          3.4255    1.3117   -0.7581 C.3       1 <0>        -0.1803
      2 C2          3.4149   -0.2069   -0.9442 C.3       1 <0>         0.0707
      3 H1          3.3967   -0.6924    0.0316 H         1 <0>         0.0840
      4 C3          2.1733   -0.6145   -1.7399 C.3       1 <0>         0.1239
      5 N1          2.0999   -2.0757   -1.8158 N.am      1 <0>        -0.7296
      6 C4          1.0822   -2.6661   -2.4732 C.2       1 <0>         0.5142
      7 O1          0.2272   -1.9877   -3.0019 O.2       1 <0>        -0.5072
      8 C5          1.0067   -4.1692   -2.5512 C.3       1 <0>        -0.1141
      9 H2          1.3446   -4.6145   -1.6155 H         1 <0>         0.1197
     10 C6         -0.4363   -4.6195   -2.8711 C.3       1 <0>         0.1196
     11 N2         -0.4574   -4.7910   -4.3429 N.am      1 <0>        -0.6134
     12 C7          0.8555   -5.4014   -4.6618 C.3       1 <0>         0.0917
     13 C8          1.8520   -4.6875   -3.7268 C.3       1 <0>        -0.0740
     14 C9          2.9053   -5.6715   -3.2271 C.3       1 <0>        -0.1351
     15 C10         3.7706   -6.1281   -4.4050 C.3       1 <0>        -0.0104
     16 N3          4.4148   -4.9624   -5.0222 N.4       1 <0>        -0.5051
     17 C11         3.3964   -4.0661   -5.5829 C.3       1 <0>        -0.0094
     18 C12         2.5153   -3.5223   -4.4547 C.3       1 <0>        -0.1495
     19 C13        -1.4469   -4.4659   -5.1983 C.2       1 <0>         0.5857
     20 O2         -2.4255   -3.8666   -4.7964 O.2       1 <0>        -0.5013
     21 C14        -1.3425   -4.8375   -6.6231 C.ar      1 <0>        -0.0592
     22 C15        -0.5473   -5.9199   -7.0075 C.ar      1 <0>        -0.2215
     23 C16        -0.4516   -6.2660   -8.3423 C.ar      1 <0>         0.1403
     24 C17        -1.1465   -5.5368   -9.3034 C.ar      1 <0>         0.0585
     25 C18        -1.9393   -4.4573   -8.9230 C.ar      1 <0>         0.1507
     26 C19        -2.0433   -4.1109   -7.5888 C.ar      1 <0>        -0.1711
     27 O3         -2.6165   -3.7466   -9.8642 O.3       1 <0>        -0.2955
     28 C20        -3.4109   -2.6518   -9.4035 C.3       1 <0>         0.0196
     29 O4         -1.0504   -5.8788  -10.6151 O.3       1 <0>        -0.3128
     30 C21        -2.0028   -6.8217  -11.1111 C.3       1 <0>         0.0348
     31 O5          0.3224   -7.3197   -8.7171 O.3       1 <0>        -0.2952
     32 C22         1.0077   -8.0230   -7.6790 C.3       1 <0>         0.0253
     33 O6          4.5885   -0.6080   -1.6540 O.3       1 <0>        -0.3136
     34 C23         5.7156   -0.8056   -0.9209 C.ar      1 <0>         0.1236
     35 C24         5.6683   -0.7202    0.4630 C.ar      1 <0>        -0.2103
     36 C25         6.8153   -0.9219    1.2060 C.ar      1 <0>        -0.0747
     37 C26         8.0099   -1.2082    0.5715 C.ar      1 <0>        -0.1525
     38 C27         8.0599   -1.2934   -0.8076 C.ar      1 <0>        -0.0796
     39 C28         6.9144   -1.0986   -1.5548 C.ar      1 <0>        -0.1574
     40 H3          3.4437    1.7972   -1.7338 H         1 <0>         0.0737
     41 H4          2.5304    1.6177   -0.2167 H         1 <0>         0.0801
     42 H5          4.3101    1.6021   -0.1912 H         1 <0>         0.0717
     43 H6          1.2817   -0.2312   -1.2437 H         1 <0>         0.0946
     44 H7          2.2350   -0.2011   -2.7466 H         1 <0>         0.0832
     45 H8          2.7838   -2.6183   -1.3929 H         1 <0>         0.3998
     46 H9         -0.6583   -5.5644   -2.3751 H         1 <0>         0.0898
     47 H10        -1.1496   -3.8532   -2.5675 H         1 <0>         0.1060
     48 H11         0.8386   -6.4710   -4.4527 H         1 <0>         0.0879
     49 H12         1.1157   -5.2207   -5.7047 H         1 <0>         0.0925
     50 H13         3.5336   -5.1844   -2.4814 H         1 <0>         0.0996
     51 H14         2.4132   -6.5356   -2.7807 H         1 <0>         0.1231
     52 H15         4.5348   -6.8185   -4.0481 H         1 <0>         0.1421
     53 H16         3.1443   -6.6298   -5.1427 H         1 <0>         0.1295
     54 H17         4.9498   -4.4669   -4.3249 H         1 <0>         0.4299
     55 H18         3.8847   -3.2365   -6.0943 H         1 <0>         0.1407
     56 H19         2.7790   -4.6168   -6.2925 H         1 <0>         0.1310
     57 H20         1.7483   -2.8710   -4.8738 H         1 <0>         0.1206
     58 H21         3.1295   -2.9574   -3.7535 H         1 <0>         0.1035
     59 H22        -0.0075   -6.4854   -6.2624 H         1 <0>         0.1416
     60 H23        -2.6622   -3.2765   -7.2937 H         1 <0>         0.1505
     61 H24        -2.7733   -1.9295   -8.8937 H         1 <0>         0.0613
     62 H25        -3.8961   -2.1719  -10.2534 H         1 <0>         0.1111
     63 H26        -4.1692   -3.0188   -8.7118 H         1 <0>         0.0632
     64 H27        -1.8144   -7.0063  -12.1687 H         1 <0>         0.0995
     65 H28        -1.9113   -7.7561  -10.5573 H         1 <0>         0.0474
     66 H29        -3.0091   -6.4220  -10.9856 H         1 <0>         0.0495
     67 H30         1.5872   -8.8377   -8.1133 H         1 <0>         0.1089
     68 H31         1.6769   -7.3390   -7.1572 H         1 <0>         0.0430
     69 H32         0.2816   -8.4289   -6.9746 H         1 <0>         0.0603
     70 H33         4.7355   -0.4959    0.9590 H         1 <0>         0.1297
     71 H34         6.7789   -0.8556    2.2833 H         1 <0>         0.1280
     72 H35         8.9057   -1.3653    1.1541 H         1 <0>         0.1273
     73 H36         8.9943   -1.5168   -1.3009 H         1 <0>         0.1303
     74 H37         6.9530   -1.1696   -2.6318 H         1 <0>         0.1254
     75 H38         5.0314   -5.2712   -5.7588 H         1 <0>         0.4345
@<TRIPOS>BOND
     1    1    2 1
     2    1   40 1
     3    1   41 1
     4    1   42 1
     5    2    3 1
     6    2    4 1
     7    2   33 1
     8    4    5 1
     9    4   43 1
    10    4   44 1
    11    5    6 am
    12    5   45 1
    13    6    7 2
    14    6    8 1
    15    8    9 1
    16    8   13 1
    17    8   10 1
    18   10   11 1
    19   10   46 1
    20   10   47 1
    21   11   12 1
    22   11   19 am
    23   12   13 1
    24   12   48 1
    25   12   49 1
    26   13   18 1
    27   13   14 1
    28   14   15 1
    29   14   50 1
    30   14   51 1
    31   15   16 1
    32   15   52 1
    33   15   53 1
    34   16   17 1
    35   16   54 1
    36   16   75 1
    37   17   18 1
    38   17   55 1
    39   17   56 1
    40   18   57 1
    41   18   58 1
    42   19   20 2
    43   19   21 1
    44   21   26 ar
    45   21   22 ar
    46   22   23 ar
    47   22   59 1
    48   23   24 ar
    49   23   31 1
    50   24   25 ar
    51   24   29 1
    52   25   26 ar
    53   25   27 1
    54   26   60 1
    55   27   28 1
    56   28   61 1
    57   28   62 1
    58   28   63 1
    59   29   30 1
    60   30   64 1
    61   30   65 1
    62   30   66 1
    63   31   32 1
    64   32   67 1
    65   32   68 1
    66   32   69 1
    67   33   34 1
    68   34   39 ar
    69   34   35 ar
    70   35   36 ar
    71   35   70 1
    72   36   37 ar
    73   36   71 1
    74   37   38 ar
    75   37   72 1
    76   38   39 ar
    77   38   73 1
    78   39   74 1
@<TRIPOS>MOLECULE
ZINC44784099
   69    72     0     0     0
SMALL
USER_CHARGES

@<TRIPOS>ATOM
      1 C1         -3.8391   -1.9201    6.0169 C.3       1 <0>        -0.1726
      2 C2         -3.2724   -3.0702    5.1820 C.3       1 <0>         0.0913
      3 N1         -4.2997   -4.1002    5.0087 N.pl3     1 <0>        -0.6765
      4 C3         -4.0215   -5.2255    4.2953 C.ar      1 <0>         0.3392
      5 C4         -2.7540   -5.3963    3.7354 C.ar      1 <0>        -0.2574
      6 C5         -2.4699   -6.5380    3.0114 C.ar      1 <0>         0.2425
      7 C6         -3.4731   -7.5243    2.8460 C.ar      1 <0>        -0.2253
      8 C7         -4.7483   -7.3356    3.4181 C.ar      1 <0>         0.0099
      9 C8         -5.0111   -6.2117    4.1316 C.ar      1 <0>        -0.1632
     10 C9         -6.3728   -6.0162    4.7471 C.3       1 <0>        -0.1210
     11 C10        -3.1884   -8.6846    2.1114 C.2       1 <0>         0.1799
     12 C11        -1.9072   -8.8305    1.5597 C.2       1 <0>        -0.2237
     13 C12        -1.5772   -9.9807    0.8132 C.2       1 <0>         0.0088
     14 C13        -0.3347  -10.1112    0.2836 C.2       1 <0>        -0.1599
     15 C14         0.6292   -9.1048    0.4747 C.2       1 <0>         0.3423
     16 N2          1.8720   -9.2481   -0.0615 N.pl3     1 <0>        -0.6836
     17 C15         2.0971  -10.2121   -1.1415 C.3       1 <0>         0.0773
     18 C16         3.4580   -9.9453   -1.7878 C.3       1 <0>        -0.1765
     19 C17         0.3191   -7.9596    1.2107 C.2       1 <0>        -0.2533
     20 C18        -0.9416   -7.8127    1.7560 C.2       1 <0>         0.2406
     21 O1         -1.2464   -6.7076    2.4679 O.3       1 <0>        -0.1898
     22 C19         0.0145  -11.3415   -0.5136 C.3       1 <0>        -0.1374
     23 C20        -4.2356   -9.7512    1.9195 C.3       1 <0>        -0.1066
     24 C21        -4.2281  -10.6958    3.1230 C.3       1 <0>        -0.1381
     25 C22        -5.2753  -11.7623    2.9311 C.2       1 <0>         0.5166
     26 O2         -5.9603  -11.7665    1.9303 O.2       1 <0>        -0.5271
     27 N3         -5.4507  -12.7115    3.8717 N.am      1 <0>        -0.7238
     28 C23        -6.4688  -13.7483    3.6852 C.3       1 <0>         0.1023
     29 C24        -6.4612  -14.6929    4.8887 C.3       1 <0>         0.1042
     30 N4         -7.4793  -15.7297    4.7022 N.am      1 <0>        -0.5896
     31 C25        -8.7604  -15.6397    5.1025 C.2       1 <0>         0.5415
     32 O3         -9.2608  -14.6926    5.6738 O.2       1 <0>        -0.4496
     33 C26        -9.4561  -16.8907    4.7280 C.2       1 <0>        -0.1375
     34 C27        -8.5492  -17.6715    4.1181 C.2       1 <0>        -0.1374
     35 C28        -7.2776  -16.9151    4.0991 C.2       1 <0>         0.5414
     36 O4         -6.2295  -17.3001    3.6225 O.2       1 <0>        -0.4495
     37 H1         -3.0748   -1.1537    6.1458 H         1 <0>         0.0877
     38 H2         -4.7013   -1.4910    5.5064 H         1 <0>         0.0692
     39 H3         -4.1449   -2.2961    6.9932 H         1 <0>         0.0689
     40 H4         -2.9666   -2.6941    4.2057 H         1 <0>         0.0845
     41 H5         -2.4102   -3.4992    5.6925 H         1 <0>         0.0843
     42 H6         -5.1780   -3.9802    5.4024 H         1 <0>         0.4187
     43 H7         -1.9972   -4.6373    3.8677 H         1 <0>         0.1593
     44 H8         -5.5137   -8.0870    3.2922 H         1 <0>         0.1568
     45 H9         -7.0223   -5.5042    4.0371 H         1 <0>         0.0849
     46 H10        -6.8013   -6.9868    4.9970 H         1 <0>         0.0857
     47 H11        -6.2796   -5.4162    5.6523 H         1 <0>         0.0695
     48 H12        -2.3127  -10.7572    0.6636 H         1 <0>         0.1574
     49 H13         2.0798  -11.2234   -0.7353 H         1 <0>         0.0962
     50 H14         1.3123  -10.1080   -1.8908 H         1 <0>         0.0928
     51 H15         3.4753   -8.9340   -2.1941 H         1 <0>         0.0670
     52 H16         4.2427  -10.0493   -1.0385 H         1 <0>         0.0676
     53 H17         3.6254  -10.6625   -2.5914 H         1 <0>         0.0866
     54 H18         1.0635   -7.1904    1.3540 H         1 <0>         0.1589
     55 H19        -0.8157  -12.0468   -0.4757 H         1 <0>         0.0780
     56 H20         0.2060  -11.0611   -1.5493 H         1 <0>         0.0904
     57 H21         0.9058  -11.8065   -0.0923 H         1 <0>         0.0864
     58 H22        -5.2168   -9.2850    1.8297 H         1 <0>         0.1168
     59 H23        -4.0173  -10.3158    1.0131 H         1 <0>         0.1141
     60 H24        -3.2469  -11.1620    3.2129 H         1 <0>         0.1081
     61 H25        -4.4464  -10.1311    4.0295 H         1 <0>         0.1072
     62 H26        -4.9029  -12.7082    4.6722 H         1 <0>         0.4057
     63 H27        -7.4500  -13.2821    3.5954 H         1 <0>         0.0795
     64 H28        -6.2505  -14.3130    2.7787 H         1 <0>         0.0794
     65 H29        -5.4801  -15.1591    4.9785 H         1 <0>         0.1040
     66 H30        -6.6795  -14.1283    5.7951 H         1 <0>         0.1039
     67 H31       -10.4933  -17.1301    4.9103 H         1 <0>         0.1875
     68 H32        -8.7169  -18.6594    3.7152 H         1 <0>         0.1875
     69 H33         2.6086   -8.7120    0.2714 H         1 <0>         0.4177
@<TRIPOS>BOND
     1    1    2 1
     2    1   37 1
     3    1   38 1
     4    1   39 1
     5    2    3 1
     6    2   40 1
     7    2   41 1
     8    3    4 1
     9    3   42 1
    10    4    9 ar
    11    4    5 ar
    12    5    6 ar
    13    5   43 1
    14    6   21 1
    15    6    7 ar
    16    7    8 ar
    17    7   11 1
    18    8    9 ar
    19    8   44 1
    20    9   10 1
    21   10   45 1
    22   10   46 1
    23   10   47 1
    24   11   12 2
    25   11   23 1
    26   12   20 1
    27   12   13 1
    28   13   14 2
    29   13   48 1
    30   14   15 1
    31   14   22 1
    32   15   16 2
    33   15   19 1
    34   16   17 1
    35   16   69 1
    36   17   18 1
    37   17   49 1
    38   17   50 1
    39   18   51 1
    40   18   52 1
    41   18   53 1
    42   19   20 2
    43   19   54 1
    44   20   21 1
    45   22   55 1
    46   22   56 1
    47   22   57 1
    48   23   24 1
    49   23   58 1
    50   23   59 1
    51   24   25 1
    52   24   60 1
    53   24   61 1
    54   25   26 2
    55   25   27 am
    56   27   28 1
    57   27   62 1
    58   28   29 1
    59   28   63 1
    60   28   64 1
    61   29   30 1
    62   29   65 1
    63   29   66 1
    64   30   35 am
    65   30   31 am
    66   31   32 2
    67   31   33 1
    68   33   34 2
    69   33   67 1
    70   34   35 1
    71   34   68 1
    72   35   36 2
@<TRIPOS>MOLECULE
ZINC09943334
   67    69     0     0     0
SMALL
USER_CHARGES
1-[[5-(diethylsulfamoyl)-2-thienyl]methyl]-3-[[4-(1-piperidylmethyl)phenyl]methyl]urea
@<TRIPOS>ATOM
      1 C1         -5.4466    0.7168  -11.4716 C.3       1 <0>        -0.1757
      2 C2         -4.1611    0.8821  -10.6585 C.3       1 <0>         0.1180
      3 N1         -3.9804    2.2941  -10.3124 N.pl3     1 <0>        -0.9910
      4 C3         -3.3314    3.2034  -11.2601 C.3       1 <0>         0.1067
      5 C4         -1.8132    3.1189  -11.0897 C.3       1 <0>        -0.1775
      6 S1         -4.5098    2.8623   -8.8498 S.o2      1 <0>         2.7182
      7 O1         -5.5368    1.9798   -8.4188 O.2       1 <0>        -0.9429
      8 O2         -4.7223    4.2583   -9.0092 O.2       1 <0>        -0.9436
      9 C5         -3.1795    2.6825   -7.7085 C.2       1 <0>        -0.7523
     10 C6         -2.1907    3.5587   -7.4052 C.2       1 <0>        -0.0117
     11 C7         -1.2417    3.1997   -6.4665 C.2       1 <0>        -0.1603
     12 C8         -1.3278    1.9822   -5.8770 C.2       1 <0>        -0.1428
     13 S2         -2.7803    1.2965   -6.6565 S.3       1 <0>         0.1874
     14 C9         -0.4274    1.3649   -4.8381 C.3       1 <0>         0.2199
     15 N2         -0.9200    1.7049   -3.5009 N.am      1 <0>        -0.7426
     16 C10        -0.2681    1.2584   -2.4090 C.2       1 <0>         0.7089
     17 O3          0.7287    0.5735   -2.5338 O.2       1 <0>        -0.5795
     18 N3         -0.7213    1.5711   -1.1789 N.am      1 <0>        -0.7441
     19 C11        -0.0127    1.0858    0.0080 C.3       1 <0>         0.1714
     20 C12        -0.7181    1.5718    1.2479 C.ar      1 <0>        -0.0714
     21 C13        -0.3599    2.7788    1.8186 C.ar      1 <0>        -0.0935
     22 C14        -1.0099    3.2267    2.9534 C.ar      1 <0>        -0.0943
     23 C15        -2.0119    2.4632    3.5227 C.ar      1 <0>        -0.1538
     24 C16        -2.3665    1.2538    2.9550 C.ar      1 <0>        -0.0965
     25 C17        -1.7194    0.8079    1.8177 C.ar      1 <0>        -0.0941
     26 C18        -2.7180    2.9497    4.7620 C.3       1 <0>         0.0471
     27 C19        -2.0879    0.9997    6.0507 C.3       1 <0>        -0.0074
     28 C20        -1.2203    0.5174    7.2155 C.3       1 <0>        -0.1461
     29 C21        -1.7134    1.1620    8.5139 C.3       1 <0>        -0.1391
     30 C22        -1.6665    2.6855    8.3680 C.3       1 <0>        -0.1475
     31 C23        -2.5212    3.1049    7.1699 C.3       1 <0>        -0.0022
     32 H1         -5.3778    1.3087  -12.3843 H         1 <0>         0.0620
     33 H2         -5.5810   -0.3338  -11.7292 H         1 <0>         0.0721
     34 H3         -6.2967    1.0576  -10.8807 H         1 <0>         0.0641
     35 H4         -3.3110    0.5412  -11.2495 H         1 <0>         0.0840
     36 H5         -4.2298    0.2901   -9.7459 H         1 <0>         0.0809
     37 H6         -3.5991    2.9192  -12.2777 H         1 <0>         0.0903
     38 H7         -3.6622    4.2242  -11.0689 H         1 <0>         0.0952
     39 H8         -1.5454    3.4031  -10.0720 H         1 <0>         0.0534
     40 H9         -1.4824    2.0981  -11.2809 H         1 <0>         0.0626
     41 H10        -1.3303    3.7955  -11.7948 H         1 <0>         0.0733
     42 H11        -2.1453    4.5229   -7.8895 H         1 <0>         0.1510
     43 H12        -0.4436    3.8794   -6.2064 H         1 <0>         0.1477
     44 H13         0.5853    1.7488   -4.9607 H         1 <0>         0.0993
     45 H14        -0.4225    0.2817   -4.9590 H         1 <0>         0.0910
     46 H15        -1.7153    2.2513   -3.4014 H         1 <0>         0.4007
     47 H16        -1.5165    2.1175   -1.0793 H         1 <0>         0.3984
     48 H17         0.0021   -0.0041    0.0020 H         1 <0>         0.0836
     49 H18         1.0099    1.4631    0.0003 H         1 <0>         0.0835
     50 H19         0.4255    3.3735    1.3760 H         1 <0>         0.1386
     51 H20        -0.7331    4.1718    3.3968 H         1 <0>         0.1341
     52 H21        -3.1493    0.6573    3.3998 H         1 <0>         0.1339
     53 H22        -1.9965   -0.1370    1.3742 H         1 <0>         0.1387
     54 H23        -2.7321    4.0396    4.7680 H         1 <0>         0.1357
     55 H24        -3.7408    2.5731    4.7689 H         1 <0>         0.1370
     56 H25        -3.1227    0.7026    6.2213 H         1 <0>         0.1294
     57 H26        -1.7305    0.5536    5.1226 H         1 <0>         0.1279
     58 H27        -0.1831    0.8022    7.0389 H         1 <0>         0.0864
     59 H28        -1.2916   -0.5671    7.2977 H         1 <0>         0.1111
     60 H29        -1.0714    0.8552    9.3396 H         1 <0>         0.0938
     61 H30        -2.7379    0.8464    8.7111 H         1 <0>         0.0817
     62 H31        -0.6363    3.0044    8.2096 H         1 <0>         0.0869
     63 H32        -2.0566    3.1500    9.2737 H         1 <0>         0.1122
     64 H33        -2.4784    4.1880    7.0546 H         1 <0>         0.1281
     65 H34        -3.5539    2.7980    7.3352 H         1 <0>         0.1303
     66 N4         -1.9801    2.4707    5.9490 N.4       1 <0>        -0.3923
     67 H35        -0.9904    2.7262    5.8518 H         1 <0>         0.4256
@<TRIPOS>BOND
     1    1    2 1
     2    1   32 1
     3    1   33 1
     4    1   34 1
     5    2    3 1
     6    2   35 1
     7    2   36 1
     8    3    4 1
     9    3    6 1
    10    4    5 1
    11    4   37 1
    12    4   38 1
    13    5   39 1
    14    5   40 1
    15    5   41 1
    16    6    7 2
    17    6    8 2
    18    6    9 1
    19    9   13 1
    20    9   10 2
    21   10   11 1
    22   10   42 1
    23   11   12 2
    24   11   43 1
    25   12   13 1
    26   12   14 1
    27   14   15 1
    28   14   44 1
    29   14   45 1
    30   15   16 am
    31   15   46 1
    32   16   17 2
    33   16   18 am
    34   18   19 1
    35   18   47 1
    36   19   20 1
    37   19   48 1
    38   19   49 1
    39   20   25 ar
    40   20   21 ar
    41   21   22 ar
    42   21   50 1
    43   22   23 ar
    44   22   51 1
    45   23   24 ar
    46   23   26 1
    47   24   25 ar
    48   24   52 1
    49   25   53 1
    50   26   54 1
    51   26   55 1
    52   26   66 1
    53   27   28 1
    54   27   56 1
    55   27   57 1
    56   27   66 1
    57   28   29 1
    58   28   58 1
    59   28   59 1
    60   29   30 1
    61   29   60 1
    62   29   61 1
    63   30   31 1
    64   30   62 1
    65   30   63 1
    66   31   64 1
    67   31   65 1
    68   31   66 1
    69   66   67 1
@<TRIPOS>MOLECULE
ZINC24772362
   66    68     0     0     0
SMALL
USER_CHARGES
N-(3,4-diethoxyphenyl)-2-[[2-[[2-(4-fluorophenyl)-5-methyl-pyrazol-3-yl]amino]-2-oxo-ethyl]-methyl-amino]acetamide
@<TRIPOS>ATOM
      1 C1         -3.9966    3.1322    4.4072 C.3       1 <0>        -0.1564
      2 C2         -2.8041    2.1975    4.6195 C.3       1 <0>         0.0506
      3 O1         -1.8853    2.3436    3.5349 O.3       1 <0>        -0.3000
      4 C3         -0.7615    1.5774    3.5698 C.ar      1 <0>         0.1097
      5 C4         -0.5529    0.7010    4.6225 C.ar      1 <0>        -0.1595
      6 C5          0.5909   -0.0734    4.6624 C.ar      1 <0>        -0.1082
      7 C6          1.5304    0.0203    3.6444 C.ar      1 <0>         0.1205
      8 C7          1.3218    0.8931    2.5853 C.ar      1 <0>        -0.1888
      9 C8          0.1757    1.6697    2.5453 C.ar      1 <0>         0.1237
     10 O2         -0.0308    2.5254    1.5088 O.3       1 <0>        -0.2972
     11 C9          0.9759    2.5723    0.4957 C.3       1 <0>         0.0526
     12 C10         0.5715    3.5837   -0.5788 C.3       1 <0>        -0.1576
     13 N1          2.6893   -0.7659    3.6862 N.am      1 <0>        -0.6525
     14 C11         3.2736   -1.0425    4.8688 C.2       1 <0>         0.5002
     15 O3          2.7511   -0.6822    5.9025 O.2       1 <0>        -0.5116
     16 C12         4.5761   -1.7995    4.9070 C.3       1 <0>        -0.0260
     17 N2          5.0016   -1.9720    6.3024 N.4       1 <0>        -0.3777
     18 C13         5.3309   -0.6786    6.9161 C.3       1 <0>        -0.0649
     19 C14         6.1341   -2.9028    6.3962 C.3       1 <0>        -0.0224
     20 C15         6.3843   -3.2454    7.8423 C.2       1 <0>         0.5091
     21 O4          5.6876   -2.7618    8.7094 O.2       1 <0>        -0.4929
     22 N3          7.3821   -4.0893    8.1720 N.am      1 <0>        -0.6419
     23 C16         7.6136   -4.4063    9.5101 C.2       1 <0>         0.2922
     24 C17         6.9140   -3.9405   10.5809 C.2       1 <0>        -0.2493
     25 C18         7.4691   -4.5029   11.7337 C.2       1 <0>         0.1005
     26 N4          8.4633   -5.2773   11.3802 N.2       1 <0>        -0.2630
     27 N5          8.5765   -5.2427    9.9845 N.pl3     1 <0>        -0.3358
     28 C19         9.5164   -5.9422    9.2140 C.ar      1 <0>         0.1401
     29 C20         9.1631   -6.4343    7.9648 C.ar      1 <0>        -0.1276
     30 C21        10.0916   -7.1188    7.2054 C.ar      1 <0>        -0.1250
     31 C22        11.3712   -7.3236    7.6937 C.ar      1 <0>         0.1059
     32 C23        11.7239   -6.8381    8.9417 C.ar      1 <0>        -0.1216
     33 C24        10.7997   -6.1486    9.7018 C.ar      1 <0>        -0.0754
     34 F1         12.2765   -7.9983    6.9518 F         1 <0>        -0.1266
     35 C25         7.0013   -4.2594   13.1454 C.3       1 <0>        -0.0840
     36 H1         -4.7038    3.0197    5.2422 H         1 <0>         0.0828
     37 H2         -4.4999    2.8759    3.4633 H         1 <0>         0.0695
     38 H3         -3.6434    4.1730    4.3635 H         1 <0>         0.0692
     39 H4         -2.3008    2.4538    5.5634 H         1 <0>         0.0643
     40 H5         -3.1573    1.1566    4.6632 H         1 <0>         0.0646
     41 H6         -1.2827    0.6265    5.4151 H         1 <0>         0.1431
     42 H7          0.7541   -0.7524    5.4862 H         1 <0>         0.1417
     43 H8          2.0527    0.9668    1.7936 H         1 <0>         0.1408
     44 H9          1.9332    2.8766    0.9439 H         1 <0>         0.0614
     45 H10         1.0843    1.5770    0.0401 H         1 <0>         0.0627
     46 H11         1.3465    3.6198   -1.3586 H         1 <0>         0.0822
     47 H12         0.4632    4.5790   -0.1232 H         1 <0>         0.0699
     48 H13        -0.3858    3.2794   -1.0270 H         1 <0>         0.0705
     49 H14         3.1223   -1.1574    2.7538 H         1 <0>         0.4448
     50 H15         4.4404   -2.7864    4.4404 H         1 <0>         0.1651
     51 H16         5.3439   -1.2361    4.3565 H         1 <0>         0.1636
     52 H17         5.6456   -0.8368    7.9582 H         1 <0>         0.1405
     53 H18         4.4450   -0.0269    6.8955 H         1 <0>         0.1440
     54 H19         6.1486   -0.2037    6.3541 H         1 <0>         0.1159
     55 H20         5.9014   -3.8209    5.8368 H         1 <0>         0.1684
     56 H21         7.0322   -2.4317    5.9703 H         1 <0>         0.1666
     57 H22         8.0138   -4.5280    7.3856 H         1 <0>         0.4454
     58 H23         6.0784   -3.2572   10.5459 H         1 <0>         0.1794
     59 H24         8.1641   -6.2783    7.5853 H         1 <0>         0.1331
     60 H25         9.8183   -7.4985    6.2320 H         1 <0>         0.1511
     61 H26        12.7222   -6.9991    9.3211 H         1 <0>         0.1531
     62 H27        11.0751   -5.7704   10.6753 H         1 <0>         0.1495
     63 H28         7.6269   -4.8351   13.8434 H         1 <0>         0.0807
     64 H29         5.9531   -4.5779   13.2444 H         1 <0>         0.0875
     65 H30         7.0825   -3.1875   13.3788 H         1 <0>         0.0875
     66 H31         4.1597   -2.4067    6.8612 H         1 <0>         0.4618
@<TRIPOS>BOND
     1    1    2 1
     2    1   36 1
     3    1   37 1
     4    1   38 1
     5    2    3 1
     6    2   39 1
     7    2   40 1
     8    3    4 1
     9    4    9 ar
    10    4    5 ar
    11    5    6 ar
    12    5   41 1
    13    6    7 ar
    14    6   42 1
    15    7    8 ar
    16    7   13 1
    17    8    9 ar
    18    8   43 1
    19    9   10 1
    20   10   11 1
    21   11   12 1
    22   11   44 1
    23   11   45 1
    24   12   46 1
    25   12   47 1
    26   12   48 1
    27   13   14 am
    28   13   49 1
    29   14   15 2
    30   14   16 1
    31   16   17 1
    32   16   50 1
    33   16   51 1
    34   17   18 1
    35   17   19 1
    36   17   66 1
    37   18   52 1
    38   18   53 1
    39   18   54 1
    40   19   20 1
    41   19   55 1
    42   19   56 1
    43   20   21 2
    44   20   22 am
    45   22   23 1
    46   22   57 1
    47   23   27 1
    48   23   24 2
    49   24   25 1
    50   24   58 1
    51   25   26 2
    52   25   35 1
    53   26   27 1
    54   27   28 1
    55   28   33 ar
    56   28   29 ar
    57   29   30 ar
    58   29   59 1
    59   30   31 ar
    60   30   60 1
    61   31   32 ar
    62   31   34 1
    63   32   33 ar
    64   32   61 1
    65   33   62 1
    66   35   63 1
    67   35   64 1
    68   35   65 1
@<TRIPOS>MOLECULE
ZINC35746957
   64    67     0     0     0
SMALL
USER_CHARGES

@<TRIPOS>ATOM
      1 C1         -1.7483    0.9098    0.1866 C.3       1 <0>        -0.1167
      2 C2         -1.4094   -0.5575    0.1281 C.ar      1 <0>        -0.0892
      3 C3         -1.2449   -1.1798   -1.0966 C.ar      1 <0>        -0.1036
      4 C4         -0.9343   -2.5262   -1.1581 C.ar      1 <0>        -0.1147
      5 C5         -0.7867   -3.2569    0.0034 C.ar      1 <0>        -0.0485
      6 C6         -0.9507   -2.6352    1.2403 C.ar      1 <0>        -0.0485
      7 C7         -1.2583   -1.2763    1.2961 C.ar      1 <0>        -0.0970
      8 C8         -0.7940   -3.4146    2.4914 C.2       1 <0>        -0.0159
      9 C9         -1.8494   -3.6139    3.3173 C.2       1 <0>        -0.1564
     10 S1         -1.1581   -4.5838    4.6435 S.3       1 <0>         0.1919
     11 C10         0.5149   -4.6979    4.0641 C.2       1 <0>         0.0649
     12 C11         0.4974   -3.9864    2.8535 C.2       1 <0>        -0.1955
     13 C12         1.7450   -3.9210    2.1546 C.2       1 <0>         0.5525
     14 O1          1.8310   -3.3216    1.0966 O.2       1 <0>        -0.4705
     15 N1          2.8218   -4.5310    2.6836 N.am      1 <0>        -0.6222
     16 H1          3.6698   -4.4898    2.2146 H         1 <0>         0.4273
     17 C13         2.7444   -5.2027    3.8610 C.2       1 <0>         0.3605
     18 N2          1.6227   -5.2717    4.5265 N.2       1 <0>        -0.4921
     19 C14         3.9765   -5.8705    4.4150 C.3       1 <0>         0.0481
     20 N3          3.6473   -6.5278    5.6868 N.4       1 <0>        -0.3688
     21 C15         2.6918   -7.6165    5.4424 C.3       1 <0>         0.0815
     22 C16         2.2440   -8.1970    6.7590 C.2       1 <0>        -0.1080
     23 C17         1.2525   -7.7195    7.5326 C.2       1 <0>        -0.1289
     24 C18         1.1740   -8.5629    8.6647 C.2       1 <0>        -0.2179
     25 C19         2.1221   -9.5053    8.5151 C.2       1 <0>         0.0124
     26 O2          2.7632   -9.2820    7.3563 O.3       1 <0>        -0.1711
     27 C20         4.8714   -7.0760    6.2860 C.3       1 <0>        -0.0485
     28 C21         5.8077   -5.9293    6.6725 C.3       1 <0>         0.0850
     29 H2          6.0422   -5.3377    5.7875 H         1 <0>         0.1305
     30 C22         7.0992   -6.5016    7.2603 C.3       1 <0>         0.0316
     31 O3          8.0196   -5.4381    7.5133 O.3       1 <0>        -0.3712
     32 C23         9.2654   -5.8669    8.0665 C.3       1 <0>         0.0919
     33 C24        10.1535   -4.6703    8.2914 C.2       1 <0>        -0.1678
     34 C25        10.8146   -4.5474    9.4157 C.2       1 <0>        -0.1628
     35 O4          5.1686   -5.0996    7.6446 O.3       1 <0>        -0.5425
     36 C26        -0.4492   -4.7240   -0.0653 C.3       1 <0>        -0.1134
     37 H3         -0.8286    1.4943    0.2132 H         1 <0>         0.0713
     38 H4         -2.3279    1.1842   -0.6948 H         1 <0>         0.0696
     39 H5         -2.3334    1.1121    1.0837 H         1 <0>         0.0669
     40 H6         -1.3599   -0.6121   -2.0081 H         1 <0>         0.1251
     41 H7         -0.8074   -3.0068   -2.1170 H         1 <0>         0.1245
     42 H8         -1.3822   -0.7884    2.2516 H         1 <0>         0.1214
     43 H9         -2.8659   -3.2681    3.2002 H         1 <0>         0.2074
     44 H10         4.3374   -6.6141    3.7044 H         1 <0>         0.1712
     45 H11         4.7511   -5.1222    4.5827 H         1 <0>         0.1706
     46 H12         1.8276   -7.2274    4.9041 H         1 <0>         0.1709
     47 H13         3.1710   -8.3937    4.8469 H         1 <0>         0.1427
     48 H14         0.6354   -6.8571    7.3285 H         1 <0>         0.1618
     49 H15         0.4851   -8.4684    9.4911 H         1 <0>         0.1633
     50 H16         2.3298  -10.3077    9.2075 H         1 <0>         0.2178
     51 H17         4.6145   -7.6509    7.1757 H         1 <0>         0.1440
     52 H18         5.3696   -7.7247    5.5655 H         1 <0>         0.1498
     53 H19         6.8759   -7.0185    8.1936 H         1 <0>         0.0659
     54 H20         7.5407   -7.2035    6.5528 H         1 <0>         0.0712
     55 H21         9.0870   -6.3706    9.0165 H         1 <0>         0.0592
     56 H22         9.7518   -6.5556    7.3757 H         1 <0>         0.0638
     57 H23        10.2450   -3.9141    7.5257 H         1 <0>         0.1188
     58 H24        10.7231   -5.3035   10.1814 H         1 <0>         0.0999
     59 H25        11.4511   -3.6899    9.5769 H         1 <0>         0.1101
     60 H26         4.9930   -5.5430    8.4858 H         1 <0>         0.3917
     61 H27         0.6337   -4.8482   -0.0648 H         1 <0>         0.0689
     62 H28        -0.8740   -5.2354    0.7985 H         1 <0>         0.0568
     63 H29        -0.8633   -5.1497   -0.9794 H         1 <0>         0.0683
     64 H30         3.2366   -5.8551    6.3167 H         1 <0>         0.4409
@<TRIPOS>BOND
     1    1    2 1
     2    1   37 1
     3    1   38 1
     4    1   39 1
     5    2    7 ar
     6    2    3 ar
     7    3    4 ar
     8    3   40 1
     9    4    5 ar
    10    4   41 1
    11    5    6 ar
    12    5   36 1
    13    6    7 ar
    14    6    8 1
    15    7   42 1
    16    8   12 1
    17    8    9 2
    18    9   10 1
    19    9   43 1
    20   10   11 1
    21   11   18 1
    22   11   12 2
    23   12   13 1
    24   13   14 2
    25   13   15 am
    26   15   16 1
    27   15   17 1
    28   17   18 2
    29   17   19 1
    30   19   20 1
    31   19   44 1
    32   19   45 1
    33   20   21 1
    34   20   27 1
    35   20   64 1
    36   21   22 1
    37   21   46 1
    38   21   47 1
    39   22   26 1
    40   22   23 2
    41   23   24 1
    42   23   48 1
    43   24   25 2
    44   24   49 1
    45   25   26 1
    46   25   50 1
    47   27   28 1
    48   27   51 1
    49   27   52 1
    50   28   29 1
    51   28   30 1
    52   28   35 1
    53   30   31 1
    54   30   53 1
    55   30   54 1
    56   31   32 1
    57   32   33 1
    58   32   55 1
    59   32   56 1
    60   33   34 2
    61   33   57 1
    62   34   58 1
    63   34   59 1
    64   35   60 1
    65   36   61 1
    66   36   62 1
    67   36   63 1
@<TRIPOS>MOLECULE
ZINC36207239
   63    66     0     0     0
SMALL
USER_CHARGES

@<TRIPOS>ATOM
      1 C1         -0.3871    2.0964    0.6105 C.3       1 <0>        -0.1539
      2 C2         -0.5083    0.5713    0.6322 C.3       1 <0>         0.0618
      3 O1          0.2724    0.0467    1.7080 O.3       1 <0>        -0.3471
      4 C3          0.2738   -1.2929    1.8672 C.2       1 <0>         0.5515
      5 O2         -0.3708   -1.9957    1.1123 O.2       1 <0>        -0.4726
      6 C4          1.0515   -1.9009    2.9489 C.2       1 <0>        -0.2190
      7 C5          1.1826   -3.2222    3.2654 C.2       1 <0>         0.0309
      8 C6          1.9796   -3.6018    4.3471 C.2       1 <0>        -0.2265
      9 C7          2.2647   -4.9579    4.8691 C.2       1 <0>         0.5643
     10 O3          1.7798   -5.9443    4.3440 O.2       1 <0>        -0.4726
     11 N1          3.0749   -5.0724    5.9396 N.am      1 <0>        -0.6244
     12 H1          3.2718   -5.9536    6.2940 H         1 <0>         0.4293
     13 C8          3.6208   -3.9817    6.5314 C.2       1 <0>         0.3798
     14 N2          3.3901   -2.7726    6.0967 N.2       1 <0>        -0.4857
     15 C9          2.6069   -2.5473    5.0498 C.2       1 <0>         0.0824
     16 S1          2.0694   -1.0986    4.1761 S.3       1 <0>         0.2710
     17 C10         4.5197   -4.1705    7.7261 C.3       1 <0>         0.0503
     18 N3          4.9910   -2.8610    8.1962 N.4       1 <0>        -0.3395
     19 C11         5.9601   -3.0509    9.2837 C.3       1 <0>        -0.0452
     20 C12         7.2016   -3.7623    8.7420 C.3       1 <0>         0.0829
     21 H2          6.9164   -4.7338    8.3382 H         1 <0>         0.1328
     22 C13         8.2122   -3.9574    9.8741 C.3       1 <0>         0.0300
     23 O4          9.3201   -4.7235    9.3968 O.3       1 <0>        -0.2993
     24 C14        10.3149   -4.9884   10.2840 C.ar      1 <0>         0.1144
     25 C15        10.2238   -4.5255   11.5889 C.ar      1 <0>        -0.2045
     26 C16        11.2360   -4.7965   12.4888 C.ar      1 <0>        -0.0863
     27 C17        12.3394   -5.5286   12.0903 C.ar      1 <0>        -0.1418
     28 C18        12.4327   -5.9906   10.7906 C.ar      1 <0>        -0.0814
     29 C19        11.4203   -5.7270    9.8882 C.ar      1 <0>        -0.1074
     30 C20        11.5197   -6.2363    8.4733 C.3       1 <0>        -0.1082
     31 O5          7.7910   -2.9712    7.7083 O.3       1 <0>        -0.5416
     32 C21         3.8499   -2.0777    8.6883 C.3       1 <0>        -0.0794
     33 C22         3.5196   -0.7748    7.9575 C.3       1 <0>        -0.1227
     34 C23         4.1501   -0.7316    9.3508 C.3       1 <0>        -0.1592
     35 C24         0.4685   -4.2688    2.4494 C.3       1 <0>        -0.1309
     36 H3          0.6573    2.3759    0.4716 H         1 <0>         0.0686
     37 H4         -0.9825    2.4966   -0.2101 H         1 <0>         0.0866
     38 H5         -0.7496    2.5031    1.5546 H         1 <0>         0.0684
     39 H6         -1.5526    0.2918    0.7711 H         1 <0>         0.0749
     40 H7         -0.1457    0.1646   -0.3118 H         1 <0>         0.0750
     41 H8          3.9649   -4.6647    8.5237 H         1 <0>         0.1694
     42 H9          5.3749   -4.7846    7.4439 H         1 <0>         0.1678
     43 H10         6.2456   -2.0803    9.6895 H         1 <0>         0.1464
     44 H11         5.5092   -3.6554   10.0707 H         1 <0>         0.1512
     45 H12         8.5643   -2.9849   10.2183 H         1 <0>         0.0775
     46 H13         7.7351   -4.4843   10.7003 H         1 <0>         0.0821
     47 H14         9.3624   -3.9534   11.9005 H         1 <0>         0.1238
     48 H15        11.1657   -4.4361   13.5044 H         1 <0>         0.1280
     49 H16        13.1298   -5.7394   12.7954 H         1 <0>         0.1294
     50 H17        13.2957   -6.5618   10.4817 H         1 <0>         0.1341
     51 H18        12.0226   -5.4933    7.8543 H         1 <0>         0.0709
     52 H19        12.0894   -7.1654    8.4608 H         1 <0>         0.0690
     53 H20        10.5190   -6.4184    8.0816 H         1 <0>         0.0677
     54 H21         8.0695   -2.0912    7.9969 H         1 <0>         0.3918
     55 H22         3.0165   -2.6585    9.0838 H         1 <0>         0.1727
     56 H23         4.1490   -0.4988    7.1115 H         1 <0>         0.1232
     57 H24         2.4687   -0.4982    7.8719 H         1 <0>         0.1281
     58 H25         3.5141   -0.4267   10.1819 H         1 <0>         0.1334
     59 H26         5.1944   -0.4273    9.4215 H         1 <0>         0.1170
     60 H27         1.1102   -4.5901    1.6290 H         1 <0>         0.0886
     61 H28         0.2322   -5.1242    3.0823 H         1 <0>         0.0883
     62 H29        -0.4533   -3.8491    2.0468 H         1 <0>         0.0975
     63 H30         5.4328   -2.3691    7.4340 H         1 <0>         0.4366
@<TRIPOS>BOND
     1    1    2 1
     2    1   36 1
     3    1   37 1
     4    1   38 1
     5    2    3 1
     6    2   39 1
     7    2   40 1
     8    3    4 1
     9    4    5 2
    10    4    6 1
    11    6   16 1
    12    6    7 2
    13    7    8 1
    14    7   35 1
    15    8   15 2
    16    8    9 1
    17    9   10 2
    18    9   11 am
    19   11   12 1
    20   11   13 1
    21   13   14 2
    22   13   17 1
    23   14   15 1
    24   15   16 1
    25   17   18 1
    26   17   41 1
    27   17   42 1
    28   18   19 1
    29   18   32 1
    30   18   63 1
    31   19   20 1
    32   19   43 1
    33   19   44 1
    34   20   21 1
    35   20   22 1
    36   20   31 1
    37   22   23 1
    38   22   45 1
    39   22   46 1
    40   23   24 1
    41   24   29 ar
    42   24   25 ar
    43   25   26 ar
    44   25   47 1
    45   26   27 ar
    46   26   48 1
    47   27   28 ar
    48   27   49 1
    49   28   29 ar
    50   28   50 1
    51   29   30 1
    52   30   51 1
    53   30   52 1
    54   30   53 1
    55   31   54 1
    56   32   34 1
    57   32   33 1
    58   32   55 1
    59   33   34 1
    60   33   56 1
    61   33   57 1
    62   34   58 1
    63   34   59 1
    64   35   60 1
    65   35   61 1
    66   35   62 1
@<TRIPOS>MOLECULE
ZINC39709418
   62    65     0     0     0
SMALL
USER_CHARGES

@<TRIPOS>ATOM
      1 C1          9.1325   -0.8127   10.7694 C.3       1 <0>        -0.1583
      2 C2          8.5106    0.2561    9.8683 C.3       1 <0>        -0.0907
      3 C3          7.4495   -0.3724    9.0022 C.ar      1 <0>        -0.1441
      4 C4          7.7461   -0.7956    7.7545 C.ar      1 <0>         0.0260
      5 C5          6.7824   -1.3857    6.9211 C.ar      1 <0>        -0.0963
      6 C6          5.5006   -1.5680    7.3099 C.ar      1 <0>        -0.0697
      7 C7          5.0813   -1.1603    8.5983 C.ar      1 <0>        -0.0490
      8 C8          3.8644   -1.2174    9.2534 C.2       1 <0>        -0.0571
      9 C9          4.1073   -0.6050   10.6155 C.3       1 <0>         0.0697
     10 N1          5.5223   -0.2214   10.6418 N.pl3     1 <0>        -0.5435
     11 C10         6.0763   -0.5391    9.5067 C.ar      1 <0>         0.3256
     12 C11         2.6507   -1.7370    8.7555 C.2       1 <0>         0.4094
     13 O1          2.6032   -2.2002    7.6340 O.2       1 <0>        -0.3588
     14 C12         1.4133   -1.7170    9.6156 C.3       1 <0>        -0.1872
     15 S1          0.0289   -2.4493    8.7003 S.3       1 <0>        -0.0611
     16 C13        -1.3236   -2.4897    9.9085 C.3       1 <0>         0.1714
     17 H1         -0.9542   -2.8106   10.8825 H         1 <0>         0.1755
     18 N2         -1.9693   -1.1548   10.0112 N.3       1 <0>        -0.4549
     19 N3         -3.3135   -1.4740   10.5171 N.3       1 <0>        -0.4654
     20 C14        -3.6779   -2.7340    9.8300 C.3       1 <0>         0.2099
     21 H2         -4.2729   -2.5172    8.9429 H         1 <0>         0.1420
     22 N4         -2.4072   -3.3864    9.4439 N.4       1 <0>        -0.4059
     23 C15        -2.3432   -3.5402    7.9843 C.3       1 <0>        -0.0003
     24 C16        -3.4087   -4.5397    7.5297 C.3       1 <0>        -0.2130
     25 C17        -3.4232   -4.6085    6.0243 C.2       1 <0>         0.4994
     26 O2         -2.6527   -3.9218    5.3753 O.co2     1 <0>        -0.6836
     27 O3         -4.2054   -5.3509    5.4555 O.co2     1 <0>        -0.6610
     28 C18        -4.4520   -3.6270   10.7651 C.ar      1 <0>        -0.1649
     29 C19        -4.3439   -5.0010   10.6546 C.ar      1 <0>        -0.0834
     30 C20        -5.0528   -5.8218   11.5102 C.ar      1 <0>        -0.1356
     31 C21        -5.8733   -5.2664   12.4813 C.ar      1 <0>         0.1602
     32 C22        -5.9796   -3.8875   12.5904 C.ar      1 <0>        -0.2025
     33 C23        -5.2647   -3.0710   11.7357 C.ar      1 <0>        -0.0242
     34 O4         -6.5720   -6.0718   13.3239 O.3       1 <0>        -0.3079
     35 C24        -7.3968   -5.4307   14.2990 C.3       1 <0>         0.0218
     36 H3          9.5810   -1.5916   10.1528 H         1 <0>         0.0693
     37 H4          9.9000   -0.3582   11.3958 H         1 <0>         0.0780
     38 H5          8.3594   -1.2498   11.4014 H         1 <0>         0.0495
     39 H6          8.0620    1.0350   10.4849 H         1 <0>         0.0780
     40 H7          9.2836    0.6931    9.2363 H         1 <0>         0.1042
     41 H8          8.7545   -0.6763    7.3867 H         1 <0>         0.1692
     42 H9          7.0761   -1.7056    5.9323 H         1 <0>         0.1642
     43 H10         4.7936   -2.0263    6.6342 H         1 <0>         0.1707
     44 H11         3.4776    0.2746   10.7490 H         1 <0>         0.1855
     45 H12         3.9022   -1.3361   11.3974 H         1 <0>         0.1842
     46 H13         1.5930   -2.2920   10.5240 H         1 <0>         0.1387
     47 H14         1.1706   -0.6876    9.8792 H         1 <0>         0.1445
     48 H15        -2.0197   -0.7071    9.1083 H         1 <0>         0.3530
     49 H16        -3.9676   -0.7387   10.2948 H         1 <0>         0.3857
     50 H17        -2.5233   -2.5759    7.5091 H         1 <0>         0.1345
     51 H18        -1.3567   -3.9066    7.7005 H         1 <0>         0.1462
     52 H19        -3.1799   -5.5248    7.9363 H         1 <0>         0.0864
     53 H20        -4.3862   -4.2168    7.8881 H         1 <0>         0.0847
     54 H21        -3.7051   -5.4329    9.8984 H         1 <0>         0.1292
     55 H22        -4.9686   -6.8950   11.4230 H         1 <0>         0.1461
     56 H23        -6.6177   -3.4527   13.3455 H         1 <0>         0.1418
     57 H24        -5.3437   -1.9974   11.8231 H         1 <0>         0.1378
     58 H25        -6.7793   -4.8015   14.9401 H         1 <0>         0.0608
     59 H26        -8.1429   -4.8155   13.7960 H         1 <0>         0.0624
     60 H27        -7.8973   -6.1861   14.9048 H         1 <0>         0.1093
     61 H28         5.9757    0.1990   11.3892 H         1 <0>         0.4603
     62 H29        -2.3276   -4.2869    9.8920 H         1 <0>         0.4333
@<TRIPOS>BOND
     1    1    2 1
     2    1   36 1
     3    1   37 1
     4    1   38 1
     5    2    3 1
     6    2   39 1
     7    2   40 1
     8    3   11 ar
     9    3    4 ar
    10    4    5 ar
    11    4   41 1
    12    5    6 ar
    13    5   42 1
    14    6    7 ar
    15    6   43 1
    16    7   11 ar
    17    7    8 2
    18    8    9 1
    19    8   12 1
    20    9   10 1
    21    9   44 1
    22    9   45 1
    23   10   11 2
    24   10   61 1
    25   12   13 2
    26   12   14 1
    27   14   15 1
    28   14   46 1
    29   14   47 1
    30   15   16 1
    31   16   17 1
    32   16   22 1
    33   16   18 1
    34   18   19 1
    35   18   48 1
    36   19   20 1
    37   19   49 1
    38   20   21 1
    39   20   22 1
    40   20   28 1
    41   22   23 1
    42   22   62 1
    43   23   24 1
    44   23   50 1
    45   23   51 1
    46   24   25 1
    47   24   52 1
    48   24   53 1
    49   25   26 2
    50   25   27 1
    51   28   33 ar
    52   28   29 ar
    53   29   30 ar
    54   29   54 1
    55   30   31 ar
    56   30   55 1
    57   31   32 ar
    58   31   34 1
    59   32   33 ar
    60   32   56 1
    61   33   57 1
    62   34   35 1
    63   35   58 1
    64   35   59 1
    65   35   60 1
@<TRIPOS>MOLECULE
ZINC36299181
   38    38     0     0     0
SMALL
USER_CHARGES

@<TRIPOS>ATOM
      1 C1         -0.0187    1.5258    0.0104 C.3       1 <0>        -0.1648
      2 C2          0.0021   -0.0041    0.0020 C.3       1 <0>        -0.1026
      3 C3         -1.4333   -0.5336    0.0129 C.3       1 <0>        -0.1556
      4 C4          0.7182   -0.4975   -1.2568 C.3       1 <0>        -0.1468
      5 C5          2.1873   -0.0730   -1.2073 C.3       1 <0>         0.0179
      6 H1          2.2492    1.0061   -1.0668 H         1 <0>         0.1563
      7 C6          2.8736   -0.4567   -2.5198 C.3       1 <0>         0.0762
      8 N1          4.3051   -0.1593   -2.4275 N.pl3     1 <0>        -1.1316
      9 S1          5.3569   -0.8002   -3.5344 S.o2      1 <0>         2.6943
     10 O1          6.6483   -0.3124   -3.1973 O.2       1 <0>        -0.9298
     11 O2          5.0644   -2.1884   -3.6162 O.2       1 <0>        -0.9232
     12 C7          4.9500   -0.1065   -5.1022 C.ar      1 <0>        -0.6677
     13 C8          5.8553    0.7117   -5.7520 C.ar      1 <0>        -0.0026
     14 C9          5.5369    1.2563   -6.9818 C.ar      1 <0>        -0.1104
     15 C10         4.3126    0.9838   -7.5633 C.ar      1 <0>        -0.0371
     16 C11         3.4058    0.1655   -6.9147 C.ar      1 <0>        -0.0477
     17 C12         3.7273   -0.3852   -5.6853 C.ar      1 <0>         0.0436
     18 Cl1         2.5932   -1.4188   -4.8733 Cl        1 <0>        -0.0295
     19 Cl2         1.8683   -0.1770   -7.6444 Cl        1 <0>        -0.0235
     20 N2          2.8556   -0.7515   -0.0888 N.4       1 <0>        -0.6379
     21 H2          1.0039    1.9031    0.0027 H         1 <0>         0.0525
     22 H3         -0.5459    1.8868   -0.8726 H         1 <0>         0.0704
     23 H4         -0.5289    1.8773    0.9072 H         1 <0>         0.0717
     24 H5          0.5293   -0.3651    0.8851 H         1 <0>         0.0655
     25 H6         -1.9605   -0.1726   -0.8702 H         1 <0>         0.0666
     26 H7         -1.4185   -1.6235    0.0069 H         1 <0>         0.0625
     27 H8         -1.9435   -0.1821    0.9097 H         1 <0>         0.0687
     28 H9          0.6556   -1.5845   -1.3079 H         1 <0>         0.0975
     29 H10         0.2444   -0.0644   -2.1377 H         1 <0>         0.1200
     30 H11         2.7349   -1.5219   -2.7045 H         1 <0>         0.1143
     31 H12         2.4360    0.1140   -3.3389 H         1 <0>         0.1215
     32 H13         4.6368    0.4130   -1.7181 H         1 <0>         0.4208
     33 H14         6.8117    0.9258   -5.2983 H         1 <0>         0.1640
     34 H15         6.2448    1.8954   -7.4887 H         1 <0>         0.1585
     35 H16         4.0642    1.4102   -8.5240 H         1 <0>         0.1594
     36 H17         3.8244   -0.4716   -0.0561 H         1 <0>         0.4332
     37 H18         2.4031   -0.4985    0.7768 H         1 <0>         0.4378
     38 H19         2.7983   -1.7505   -0.2188 H         1 <0>         0.4376
@<TRIPOS>BOND
     1    1    2 1
     2    1   21 1
     3    1   22 1
     4    1   23 1
     5    2    3 1
     6    2    4 1
     7    2   24 1
     8    3   25 1
     9    3   26 1
    10    3   27 1
    11    4    5 1
    12    4   28 1
    13    4   29 1
    14    5    6 1
    15    5    7 1
    16    5   20 1
    17    7    8 1
    18    7   30 1
    19    7   31 1
    20    8    9 1
    21    8   32 1
    22    9   10 2
    23    9   11 2
    24    9   12 1
    25   12   17 ar
    26   12   13 ar
    27   13   14 ar
    28   13   33 1
    29   14   15 ar
    30   14   34 1
    31   15   16 ar
    32   15   35 1
    33   16   17 ar
    34   16   19 1
    35   17   18 1
    36   20   36 1
    37   20   37 1
    38   20   38 1
@<TRIPOS>MOLECULE
ZINC40621388
   44    45     0     0     0
SMALL
USER_CHARGES

@<TRIPOS>ATOM
      1 C1         -0.9159    2.1218   -0.3754 C.3       1 <0>        -0.1828
      2 C2         -0.6863    0.6104   -0.3134 C.3       1 <0>         0.0273
      3 C3          0.1144    0.2673    0.9444 C.3       1 <0>        -0.1845
      4 N1         -1.9821   -0.0805   -0.2726 N.4       1 <0>        -0.3932
      5 C4         -2.7368    0.1719   -1.5267 C.3       1 <0>        -0.0038
      6 C5         -3.7388   -1.0086   -1.5811 C.3       1 <0>        -0.1481
      7 C6         -2.9089   -2.1920   -1.0325 C.3       1 <0>        -0.1160
      8 H1         -2.4938   -2.7759   -1.8540 H         1 <0>         0.1245
      9 C7         -1.7780   -1.5441   -0.2124 C.3       1 <0>        -0.0054
     10 C8         -3.7763   -3.0789   -0.1370 C.3       1 <0>         0.1191
     11 N2         -4.8119   -3.7258   -0.9464 N.pl3     1 <0>        -1.1237
     12 S1         -5.6527   -5.0162   -0.3379 S.o2      1 <0>         2.6959
     13 O1         -6.5934   -5.3940   -1.3337 O.2       1 <0>        -0.9439
     14 O2         -4.6879   -5.9212    0.1811 O.2       1 <0>        -0.9447
     15 C9         -6.5840   -4.4293    1.0379 C.ar      1 <0>        -0.7478
     16 C10        -6.3177   -4.9059    2.3067 C.ar      1 <0>         0.0293
     17 C11        -7.0483   -4.4452    3.3876 C.ar      1 <0>        -0.1080
     18 C12        -8.0478   -3.5062    3.2009 C.ar      1 <0>        -0.0049
     19 C13        -8.3186   -3.0267    1.9346 C.ar      1 <0>        -0.1972
     20 C14        -7.5825   -3.4829    0.8484 C.ar      1 <0>         0.3145
     21 N3         -7.8501   -2.9948   -0.4334 N.pl3     1 <0>        -0.8625
     22 Cl1        -6.7110   -5.0463    4.9809 Cl        1 <0>        -0.0561
     23 H2          0.0456    2.6344   -0.4058 H         1 <0>         0.1055
     24 H3         -1.4863    2.3662   -1.2715 H         1 <0>         0.0800
     25 H4         -1.4704    2.4415    0.5068 H         1 <0>         0.0803
     26 H5         -0.1317    0.2906   -1.1957 H         1 <0>         0.1364
     27 H6         -0.4401    0.5871    1.8266 H         1 <0>         0.0807
     28 H7          0.2780   -0.8094    0.9885 H         1 <0>         0.0815
     29 H8          1.0759    0.7799    0.9140 H         1 <0>         0.1053
     30 H9         -3.2659    1.1233   -1.4725 H         1 <0>         0.1364
     31 H10        -2.0695    0.1501   -2.3883 H         1 <0>         0.1355
     32 H11        -4.6004   -0.8130   -0.9428 H         1 <0>         0.1029
     33 H12        -4.0531   -1.2008   -2.6070 H         1 <0>         0.1199
     34 H13        -0.8111   -1.8023   -0.6444 H         1 <0>         0.1389
     35 H14        -1.8281   -1.8838    0.8222 H         1 <0>         0.1369
     36 H15        -3.1537   -3.8404    0.3326 H         1 <0>         0.0982
     37 H16        -4.2463   -2.4678    0.6336 H         1 <0>         0.0755
     38 H17        -5.0052   -3.3982   -1.8387 H         1 <0>         0.4195
     39 H18        -5.5388   -5.6391    2.4552 H         1 <0>         0.1538
     40 H19        -8.6168   -3.1485    4.0463 H         1 <0>         0.1454
     41 H20        -9.0989   -2.2943    1.7894 H         1 <0>         0.1428
     42 H21        -7.2808   -3.2470   -1.1771 H         1 <0>         0.3969
     43 H22        -8.6052   -2.4037   -0.5793 H         1 <0>         0.4143
     44 H23        -2.5170    0.2293    0.5249 H         1 <0>         0.4250
@<TRIPOS>BOND
     1    1    2 1
     2    1   23 1
     3    1   24 1
     4    1   25 1
     5    2    3 1
     6    2    4 1
     7    2   26 1
     8    3   27 1
     9    3   28 1
    10    3   29 1
    11    4    9 1
    12    4    5 1
    13    4   44 1
    14    5    6 1
    15    5   30 1
    16    5   31 1
    17    6    7 1
    18    6   32 1
    19    6   33 1
    20    7    8 1
    21    7    9 1
    22    7   10 1
    23    9   34 1
    24    9   35 1
    25   10   11 1
    26   10   36 1
    27   10   37 1
    28   11   12 1
    29   11   38 1
    30   12   13 2
    31   12   14 2
    32   12   15 1
    33   15   20 ar
    34   15   16 ar
    35   16   17 ar
    36   16   39 1
    37   17   18 ar
    38   17   22 1
    39   18   19 ar
    40   18   40 1
    41   19   20 ar
    42   19   41 1
    43   20   21 1
    44   21   42 1
    45   21   43 1
@<TRIPOS>MOLECULE
ZINC45666475
   43    43     0     0     0
SMALL
USER_CHARGES

@<TRIPOS>ATOM
      1 C1         -0.3895   -0.0240   -1.7436 C.3       1 <0>        -0.1885
      2 C2         -0.7196    0.5394   -0.3599 C.3       1 <0>        -0.0303
      3 N1         -2.0992    0.1829   -0.0025 N.4       1 <0>        -0.3871
      4 C3         -3.0195    0.7048   -1.0216 C.3       1 <0>        -0.0215
      5 C4         -2.9744    2.2341   -1.0143 C.3       1 <0>        -0.1894
      6 C5         -2.2246   -1.2790    0.0680 C.3       1 <0>        -0.0266
      7 C6         -1.3851   -1.8074    1.2329 C.3       1 <0>         0.1308
      8 H1         -0.3335   -1.5832    1.0539 H         1 <0>         0.1105
      9 C7         -1.5710   -3.3215    1.3499 C.3       1 <0>        -0.1772
     10 N2         -1.8166   -1.1648    2.4767 N.pl3     1 <0>        -1.1369
     11 S1         -0.7137   -0.8469    3.6703 S.o2      1 <0>         2.6883
     12 O1         -1.4292   -0.2260    4.7295 O.2       1 <0>        -0.9373
     13 O2          0.0394   -2.0377    3.8551 O.2       1 <0>        -0.9300
     14 C8          0.4023    0.3621    3.0399 C.ar      1 <0>        -0.7644
     15 C9          1.7342    0.0446    2.8572 C.ar      1 <0>         0.0361
     16 C10         2.6110    0.9922    2.3627 C.ar      1 <0>        -0.1742
     17 C11         2.1576    2.2619    2.0489 C.ar      1 <0>         0.0657
     18 C12         0.8263    2.5857    2.2299 C.ar      1 <0>        -0.2061
     19 C13        -0.0577    1.6333    2.7208 C.ar      1 <0>         0.3053
     20 N3         -1.4051    1.9550    2.8987 N.pl3     1 <0>        -0.8775
     21 Cl1         3.2623    3.4485    1.4282 Cl        1 <0>        -0.0336
     22 H2          0.6181    0.2789   -2.0283 H         1 <0>         0.1092
     23 H3         -0.4476   -1.1121   -1.7162 H         1 <0>         0.0842
     24 H4         -1.1038    0.3597   -2.4720 H         1 <0>         0.0857
     25 H5         -0.0337    0.1202    0.3762 H         1 <0>         0.1268
     26 H6         -0.6172    1.6244   -0.3755 H         1 <0>         0.1342
     27 H7         -2.7208    0.3372   -2.0033 H         1 <0>         0.1385
     28 H8         -4.0332    0.3701   -0.8013 H         1 <0>         0.1331
     29 H9         -3.7293    2.6231   -1.6976 H         1 <0>         0.1100
     30 H10        -3.1740    2.5987   -0.0066 H         1 <0>         0.0777
     31 H11        -1.9878    2.5700   -1.3335 H         1 <0>         0.0824
     32 H12        -3.2698   -1.5470    0.2224 H         1 <0>         0.1436
     33 H13        -1.8705   -1.7194   -0.8641 H         1 <0>         0.1528
     34 H14        -2.6226   -3.5457    1.5288 H         1 <0>         0.0772
     35 H15        -1.2499   -3.7996    0.4245 H         1 <0>         0.0836
     36 H16        -0.9729   -3.6980    2.1798 H         1 <0>         0.0957
     37 H17        -2.7484   -0.9256    2.6011 H         1 <0>         0.4208
     38 H18         2.0911   -0.9450    3.1014 H         1 <0>         0.1592
     39 H19         3.6519    0.7414    2.2212 H         1 <0>         0.1501
     40 H20         0.4728    3.5765    1.9854 H         1 <0>         0.1474
     41 H21        -2.0075    1.3127    3.3055 H         1 <0>         0.4019
     42 H22        -1.7386    2.8207    2.6154 H         1 <0>         0.4152
     43 H23        -2.3284    0.5838    0.8947 H         1 <0>         0.4146
@<TRIPOS>BOND
     1    1    2 1
     2    1   22 1
     3    1   23 1
     4    1   24 1
     5    2    3 1
     6    2   25 1
     7    2   26 1
     8    3    4 1
     9    3    6 1
    10    3   43 1
    11    4    5 1
    12    4   27 1
    13    4   28 1
    14    5   29 1
    15    5   30 1
    16    5   31 1
    17    6    7 1
    18    6   32 1
    19    6   33 1
    20    7    8 1
    21    7    9 1
    22    7   10 1
    23    9   34 1
    24    9   35 1
    25    9   36 1
    26   10   11 1
    27   10   37 1
    28   11   12 2
    29   11   13 2
    30   11   14 1
    31   14   19 ar
    32   14   15 ar
    33   15   16 ar
    34   15   38 1
    35   16   17 ar
    36   16   39 1
    37   17   18 ar
    38   17   21 1
    39   18   19 ar
    40   18   40 1
    41   19   20 1
    42   20   41 1
    43   20   42 1
@<TRIPOS>MOLECULE
ZINC16216461
   53    54     0     0     0
SMALL
USER_CHARGES

@<TRIPOS>ATOM
      1 C1          3.3679    0.6764   -0.9793 C.3       1 <0>        -0.1528
      2 C2          2.6804   -0.6805   -0.8150 C.3       1 <0>         0.0552
      3 O1          2.5647   -0.9906    0.5751 O.3       1 <0>        -0.3240
      4 C3          1.9720   -2.1714    0.8970 C.ar      1 <0>         0.1314
      5 C4          1.5171   -3.0153   -0.1031 C.ar      1 <0>        -0.2051
      6 C5          0.9146   -4.2155    0.2257 C.ar      1 <0>        -0.0641
      7 C6          0.7636   -4.5771    1.5518 C.ar      1 <0>        -0.1476
      8 C7          1.2143   -3.7407    2.5553 C.ar      1 <0>        -0.0349
      9 C8          1.8258   -2.5379    2.2329 C.ar      1 <0>         0.0753
     10 N1          2.2895   -1.6912    3.2485 N.pl3     1 <0>        -0.6029
     11 C9          2.8753   -2.2119    4.3449 C.2       1 <0>         0.5535
     12 S1          3.1204   -3.9021    4.4634 S.2       1 <0>        -0.6060
     13 N2          3.2681   -1.4020    5.3480 N.pl3     1 <0>        -0.6887
     14 C10         3.9063   -1.9693    6.5425 C.3       1 <0>         0.1419
     15 C11         5.4110   -2.0946    6.2966 C.3       1 <0>        -0.1440
     16 C12         6.0920   -2.6729    7.5366 C.3       1 <0>         0.0629
     17 N3          5.7847   -1.9096    8.7370 N.4       1 <0>        -0.4921
     18 C13         4.3952   -1.5505    8.9719 C.3       1 <0>         0.0657
     19 C14         3.6906   -1.0258    7.7253 C.3       1 <0>        -0.1427
     20 C15         3.6020   -2.7163    9.5682 C.3       1 <0>        -0.1771
     21 C16         4.3807   -0.4122   10.0200 C.3       1 <0>        -0.1805
     22 C17         7.6182   -2.5840    7.3048 C.3       1 <0>        -0.1792
     23 C18         5.7424   -4.1526    7.6900 C.3       1 <0>        -0.1699
     24 H1          4.3611    0.6371   -0.5319 H         1 <0>         0.0646
     25 H2          3.4562    0.9130   -2.0397 H         1 <0>         0.0838
     26 H3          2.7762    1.4459   -0.4834 H         1 <0>         0.0656
     27 H4          1.6873   -0.6412   -1.2624 H         1 <0>         0.0670
     28 H5          3.2721   -1.4500   -1.3109 H         1 <0>         0.0666
     29 H6          1.6328   -2.7355   -1.1397 H         1 <0>         0.1351
     30 H7          0.5606   -4.8721   -0.5552 H         1 <0>         0.1316
     31 H8          0.2920   -5.5155    1.8038 H         1 <0>         0.1332
     32 H9          1.0944   -4.0253    3.5902 H         1 <0>         0.1564
     33 H10         2.1888   -0.7303    3.1624 H         1 <0>         0.4110
     34 H11         3.1291   -0.4444    5.2809 H         1 <0>         0.4024
     35 H12         3.4702   -2.9428    6.7478 H         1 <0>         0.1351
     36 H13         5.5859   -2.7544    5.4451 H         1 <0>         0.1254
     37 H14         5.8273   -1.1100    6.0781 H         1 <0>         0.0877
     38 H15         6.1234   -2.4346    9.5470 H         1 <0>         0.4274
     39 H16         4.0840   -0.0370    7.4748 H         1 <0>         0.0940
     40 H17         2.6196   -0.9342    7.9241 H         1 <0>         0.1171
     41 H18         4.1110   -3.0840   10.4592 H         1 <0>         0.0847
     42 H19         2.6016   -2.3760    9.8357 H         1 <0>         0.1054
     43 H20         3.5286   -3.5189    8.8344 H         1 <0>         0.0869
     44 H21         4.9357    0.4433    9.6350 H         1 <0>         0.0813
     45 H22         3.3510   -0.1167   10.2211 H         1 <0>         0.1069
     46 H23         4.8452   -0.7615   10.9421 H         1 <0>         0.0863
     47 H24         7.9039   -1.5419    7.1618 H         1 <0>         0.0795
     48 H25         8.1415   -2.9886    8.1712 H         1 <0>         0.0843
     49 H26         7.8851   -3.1589    6.4180 H         1 <0>         0.1078
     50 H27         6.1834   -4.7172    6.8685 H         1 <0>         0.1082
     51 H28         6.1352   -4.5224    8.6371 H         1 <0>         0.0791
     52 H29         4.6593   -4.2736    7.6739 H         1 <0>         0.0876
     53 H30         6.3409   -1.0509    8.7223 H         1 <0>         0.4238
@<TRIPOS>BOND
     1    1    2 1
     2    1   24 1
     3    1   25 1
     4    1   26 1
     5    2    3 1
     6    2   27 1
     7    2   28 1
     8    3    4 1
     9    4    9 ar
    10    4    5 ar
    11    5    6 ar
    12    5   29 1
    13    6    7 ar
    14    6   30 1
    15    7    8 ar
    16    7   31 1
    17    8    9 ar
    18    8   32 1
    19    9   10 1
    20   10   11 1
    21   10   33 1
    22   11   12 2
    23   11   13 1
    24   13   14 1
    25   13   34 1
    26   14   19 1
    27   14   15 1
    28   14   35 1
    29   15   16 1
    30   15   36 1
    31   15   37 1
    32   16   17 1
    33   16   22 1
    34   16   23 1
    35   17   18 1
    36   17   38 1
    37   17   53 1
    38   18   19 1
    39   18   20 1
    40   18   21 1
    41   19   39 1
    42   19   40 1
    43   20   41 1
    44   20   42 1
    45   20   43 1
    46   21   44 1
    47   21   45 1
    48   21   46 1
    49   22   47 1
    50   22   48 1
    51   22   49 1
    52   23   50 1
    53   23   51 1
    54   23   52 1
@<TRIPOS>MOLECULE
ZINC63806979
   46    49     0     0     0
SMALL
USER_CHARGES

@<TRIPOS>ATOM
      1 C1         -0.0833    1.1740   -0.1261 C.ar      1 <0>        -0.1102
      2 C2          1.0690    1.9059    0.0915 C.ar      1 <0>        -0.1294
      3 C3          2.2968    1.2712    0.1147 C.ar      1 <0>        -0.1092
      4 C4          2.3723   -0.0954   -0.0793 C.ar      1 <0>        -0.0980
      5 C5          1.2198   -0.8274   -0.2960 C.ar      1 <0>        -0.0448
      6 C6         -0.0079   -0.1925   -0.3206 C.ar      1 <0>        -0.1303
      7 C7          3.7109   -0.7871   -0.0550 C.3       1 <0>         0.1377
      8 H1          4.4584   -0.1510   -0.5289 H         1 <0>         0.0851
      9 C8          4.1240   -1.0667    1.4148 C.3       1 <0>        -0.0731
     10 H2          4.7669   -0.2750    1.7995 H         1 <0>         0.1328
     11 S1          5.0555   -2.6434    1.2223 S.3       1 <0>        -0.0492
     12 N1          4.8240   -2.8833   -0.5406 N.3       1 <0>        -0.4102
     13 N2          3.6183   -2.0667   -0.7840 N.3       1 <0>        -0.5401
     14 C9          2.9136   -1.2536    2.2930 C.2       1 <0>         0.5369
     15 O1          1.9338   -1.8237    1.8618 O.2       1 <0>        -0.4898
     16 N3          2.9200   -0.7873    3.5575 N.am      1 <0>        -0.7324
     17 C10         1.7433   -0.9690    4.4111 C.3       1 <0>         0.1304
     18 C11         2.0105   -0.3527    5.7858 C.3       1 <0>        -0.1057
     19 C12         0.8001   -0.5396    6.6639 C.2       1 <0>         0.0714
     20 C13         0.5889   -1.5334    7.5568 C.ar      1 <0>        -0.1671
     21 C14         1.3916   -2.6938    7.9613 C.ar      1 <0>        -0.0119
     22 C15         0.9033   -3.5331    8.9027 C.ar      1 <0>        -0.1506
     23 C16        -0.3473   -3.3233    9.5000 C.ar      1 <0>         0.0555
     24 C17        -1.1421   -2.2800    9.1807 C.ar      1 <0>        -0.2104
     25 C18        -0.7280   -1.3339    8.2029 C.ar      1 <0>         0.3280
     26 N4         -1.3084   -0.2586    7.7279 N.pl3     1 <0>        -0.5853
     27 C19        -0.4214    0.3496    6.7299 C.3       1 <0>         0.0605
     28 H3         -1.0430    1.6692   -0.1398 H         1 <0>         0.1202
     29 H4          1.0101    2.9736    0.2430 H         1 <0>         0.1226
     30 H5          3.1972    1.8431    0.2840 H         1 <0>         0.1202
     31 H6          1.2788   -1.8950   -0.4479 H         1 <0>         0.1357
     32 H7         -0.9082   -0.7644   -0.4903 H         1 <0>         0.1209
     33 H8          4.6520   -3.8544   -0.7538 H         1 <0>         0.3720
     34 H9          3.4809   -1.9112   -1.7715 H         1 <0>         0.3733
     35 H10         3.7036   -0.3314    3.9023 H         1 <0>         0.4050
     36 H11         0.8837   -0.4790    3.9541 H         1 <0>         0.0780
     37 H12         1.5373   -2.0334    4.5240 H         1 <0>         0.0791
     38 H13         2.8701   -0.8427    6.2428 H         1 <0>         0.1167
     39 H14         2.2165    0.7117    5.6729 H         1 <0>         0.1192
     40 H15         2.3576   -2.8749    7.5136 H         1 <0>         0.1610
     41 H16         1.4922   -4.3876    9.2019 H         1 <0>         0.1584
     42 H17        -0.6892   -4.0254   10.2460 H         1 <0>         0.1613
     43 H18        -2.0977   -2.1633    9.6701 H         1 <0>         0.1607
     44 H19        -0.1377    1.3554    7.0397 H         1 <0>         0.1751
     45 H20        -0.9166    0.3804    5.7594 H         1 <0>         0.1740
     46 H21        -2.1772    0.0804    7.9946 H         1 <0>         0.4561
@<TRIPOS>BOND
     1    1    6 ar
     2    1    2 ar
     3    1   28 1
     4    2    3 ar
     5    2   29 1
     6    3    4 ar
     7    3   30 1
     8    4    5 ar
     9    4    7 1
    10    5    6 ar
    11    5   31 1
    12    6   32 1
    13    7    8 1
    14    7   13 1
    15    7    9 1
    16    9   10 1
    17    9   11 1
    18    9   14 1
    19   11   12 1
    20   12   13 1
    21   12   33 1
    22   13   34 1
    23   14   15 2
    24   14   16 am
    25   16   17 1
    26   16   35 1
    27   17   18 1
    28   17   36 1
    29   17   37 1
    30   18   19 1
    31   18   38 1
    32   18   39 1
    33   19   27 1
    34   19   20 2
    35   20   25 ar
    36   20   21 ar
    37   21   22 ar
    38   21   40 1
    39   22   23 ar
    40   22   41 1
    41   23   24 ar
    42   23   42 1
    43   24   25 ar
    44   24   43 1
    45   25   26 2
    46   26   27 1
    47   26   46 1
    48   27   44 1
    49   27   45 1
@<TRIPOS>MOLECULE
ZINC35736692
   35    36     0     0     0
SMALL
USER_CHARGES

@<TRIPOS>ATOM
      1 C1         -0.0187    1.5258    0.0104 C.3       1 <0>        -0.1681
      2 C2          0.0021   -0.0041    0.0020 C.3       1 <0>         0.2376
      3 H1          0.5293   -0.3651    0.8851 H         1 <0>         0.1032
      4 C3         -1.4117   -0.5257    0.0127 C.2       1 <0>        -0.1598
      5 C4         -2.1413   -0.9931    1.0551 C.2       1 <0>        -0.1419
      6 C5         -3.4348   -1.4243    0.8282 C.2       1 <0>        -0.1567
      7 C6         -3.9355   -1.3669   -0.4301 C.2       1 <0>        -0.1649
      8 S1         -2.5631   -0.6810   -1.3428 S.3       1 <0>         0.0374
      9 N1          0.6878   -0.4765   -1.2033 N.pl3     1 <0>        -0.7389
     10 C7          2.0832   -0.5913   -1.2154 C.ar      1 <0>         0.2051
     11 C8          2.8176   -0.2637   -0.0857 C.ar      1 <0>        -0.1802
     12 C9          4.1955   -0.3783   -0.0997 C.ar      1 <0>        -0.0239
     13 C10         4.8450   -0.8189   -1.2379 C.ar      1 <0>        -0.6650
     14 C11         4.1206   -1.1477   -2.3687 C.ar      1 <0>        -0.0647
     15 C12         2.7381   -1.0408   -2.3618 C.ar      1 <0>         0.1346
     16 N2          2.0020   -1.3783   -3.5041 N.pl3     1 <0>        -0.8829
     17 S2          6.6012   -0.9614   -1.2474 S.o2      1 <0>         2.5052
     18 O1          6.9692   -0.8184   -2.6125 O.2       1 <0>        -0.9434
     19 O2          7.0463   -0.0254   -0.2753 O.2       1 <0>        -0.9419
     20 C13         6.9347   -2.6533   -0.6844 C.3       1 <0>        -0.6528
     21 H2          1.0039    1.9031    0.0027 H         1 <0>         0.0722
     22 H3         -0.5459    1.8868   -0.8726 H         1 <0>         0.0630
     23 H4         -0.5289    1.8773    0.9072 H         1 <0>         0.0721
     24 H5         -1.7180   -1.0285    2.0481 H         1 <0>         0.1361
     25 H6         -4.0374   -1.8015    1.6412 H         1 <0>         0.1378
     26 H7         -4.9127   -1.6570   -0.7871 H         1 <0>         0.1883
     27 H8          0.1751   -0.7099   -1.9930 H         1 <0>         0.3967
     28 H9          2.3134    0.0812    0.8049 H         1 <0>         0.1324
     29 H10         4.7660   -0.1224    0.7809 H         1 <0>         0.1394
     30 H11         4.6312   -1.4912   -3.2562 H         1 <0>         0.1395
     31 H12         1.0353   -1.2996   -3.4989 H         1 <0>         0.3916
     32 H13         2.4589   -1.6908   -4.3007 H         1 <0>         0.4032
     33 H14         6.4689   -3.3624   -1.3687 H         1 <0>         0.1294
     34 H15         8.0111   -2.8233   -0.6622 H         1 <0>         0.1297
     35 H16         6.5245   -2.7907    0.3161 H         1 <0>         0.1303
@<TRIPOS>BOND
     1    1    2 1
     2    1   21 1
     3    1   22 1
     4    1   23 1
     5    2    3 1
     6    2    4 1
     7    2    9 1
     8    4    8 1
     9    4    5 2
    10    5    6 1
    11    5   24 1
    12    6    7 2
    13    6   25 1
    14    7    8 1
    15    7   26 1
    16    9   10 1
    17    9   27 1
    18   10   15 ar
    19   10   11 ar
    20   11   12 ar
    21   11   28 1
    22   12   13 ar
    23   12   29 1
    24   13   14 ar
    25   13   17 1
    26   14   15 ar
    27   14   30 1
    28   15   16 1
    29   16   31 1
    30   16   32 1
    31   17   18 2
    32   17   19 2
    33   17   20 1
    34   20   33 1
    35   20   34 1
    36   20   35 1
@<TRIPOS>MOLECULE
ZINC38094929
   34    35     0     0     0
SMALL
USER_CHARGES

@<TRIPOS>ATOM
      1 C1         -0.5702    1.5090    0.0252 C.3       1 <0>        -0.1047
      2 C2         -0.3466    0.0187    0.0218 C.ar      1 <0>         0.1368
      3 C3         -0.2609   -0.6636   -1.1930 C.ar      1 <0>        -0.1451
      4 C4         -0.0532   -2.0470   -1.1796 C.ar      1 <0>        -0.1233
      5 C5          0.0591   -2.6831    0.0519 C.ar      1 <0>         0.1548
      6 C6         -0.0381   -1.9286    1.2151 C.ar      1 <0>         0.0663
      7 N1         -0.2290   -0.6246    1.1644 N.ar      1 <0>        -0.4474
      8 N2          0.2667   -4.0634    0.1190 N.pl3     1 <0>        -0.8684
      9 C7         -0.3881    0.0641   -2.4735 C.2       1 <0>         0.5662
     10 O1         -0.4571    1.2777   -2.4786 O.2       1 <0>        -0.4991
     11 N3         -0.4276   -0.6180   -3.6352 N.am      1 <0>        -0.6689
     12 C8         -0.4445    0.0724   -4.8512 C.ar      1 <0>         0.1669
     13 C9          0.2317    1.2803   -4.9748 C.ar      1 <0>        -0.1241
     14 C10         0.2153    1.9636   -6.1754 C.ar      1 <0>        -0.0782
     15 C11        -0.4730    1.4493   -7.2572 C.ar      1 <0>        -0.1477
     16 C12        -1.1515    0.2417   -7.1407 C.ar      1 <0>        -0.0637
     17 C13        -1.1317   -0.4504   -5.9369 C.ar      1 <0>        -0.1273
     18 S1         -2.0297   -0.4135   -8.5206 S.3       1 <0>        -0.1164
     19 C14        -1.7632    0.8111   -9.8320 C.3       1 <0>        -0.1438
     20 H1          0.3833    2.0197   -0.1093 H         1 <0>         0.0791
     21 H2         -1.2440    1.7772   -0.7885 H         1 <0>         0.0973
     22 H3         -1.0115    1.8080    0.9760 H         1 <0>         0.0689
     23 H4          0.0177   -2.6060   -2.1009 H         1 <0>         0.1358
     24 H5          0.0479   -2.4169    2.1746 H         1 <0>         0.1600
     25 H6          0.3333   -4.5841   -0.6967 H         1 <0>         0.4019
     26 H7          0.3441   -4.5009    0.9813 H         1 <0>         0.4047
     27 H8         -0.4442   -1.5879   -3.6279 H         1 <0>         0.4103
     28 H9          0.7705    1.6855   -4.1310 H         1 <0>         0.1394
     29 H10         0.7415    2.9022   -6.2684 H         1 <0>         0.1315
     30 H11        -0.4841    1.9861   -8.1943 H         1 <0>         0.1254
     31 H12        -1.6542   -1.3911   -5.8447 H         1 <0>         0.1309
     32 H13        -2.2754    0.4896  -10.7389 H         1 <0>         0.1107
     33 H14        -2.1586    1.7758   -9.5141 H         1 <0>         0.0856
     34 H15        -0.6956    0.9038  -10.0311 H         1 <0>         0.0853
@<TRIPOS>BOND
     1    1    2 1
     2    1   20 1
     3    1   21 1
     4    1   22 1
     5    2    7 ar
     6    2    3 ar
     7    3    4 ar
     8    3    9 1
     9    4    5 ar
    10    4   23 1
    11    5    6 ar
    12    5    8 1
    13    6    7 ar
    14    6   24 1
    15    8   25 1
    16    8   26 1
    17    9   10 2
    18    9   11 am
    19   11   12 1
    20   11   27 1
    21   12   17 ar
    22   12   13 ar
    23   13   14 ar
    24   13   28 1
    25   14   15 ar
    26   14   29 1
    27   15   16 ar
    28   15   30 1
    29   16   17 ar
    30   16   18 1
    31   17   31 1
    32   18   19 1
    33   19   32 1
    34   19   33 1
    35   19   34 1
@<TRIPOS>MOLECULE
ZINC43400992
   38    40     0     0     0
SMALL
USER_CHARGES

@<TRIPOS>ATOM
      1 C1         -0.0343    1.5030    0.0111 C.3       1 <0>        -0.1082
      2 C2         -0.0087   -0.0038    0.0026 C.ar      1 <0>         0.1661
      3 C3         -0.0035   -0.6760   -1.2060 C.ar      1 <0>        -0.1854
      4 C4          0.0205   -2.0606   -1.2157 C.ar      1 <0>        -0.0267
      5 C5          0.0387   -2.7332    0.0090 C.ar      1 <0>        -0.1066
      6 C6          0.0320   -1.9810    1.1944 C.ar      1 <0>         0.1397
      7 N1          0.0138   -0.6576    1.1476 N.ar      1 <0>        -0.4798
      8 S1          0.0539   -2.8022    2.7531 S.3       1 <0>         0.1473
      9 C7          0.1906   -1.4920    3.9233 C.ar      1 <0>        -0.1689
     10 C8         -0.9496   -0.9711    4.5231 C.ar      1 <0>        -0.0567
     11 C9         -0.8364    0.0546    5.4385 C.ar      1 <0>        -0.1194
     12 C10         0.4092    0.5683    5.7632 C.ar      1 <0>        -0.0679
     13 C11         1.5459    0.0522    5.1681 C.ar      1 <0>        -0.1096
     14 C12         1.4381   -0.9805    4.2536 C.ar      1 <0>        -0.0431
     15 C13         2.7692    0.7777    5.6867 C.3       1 <0>        -0.0819
     16 C14         2.2290    2.0749    6.3251 C.3       1 <0>        -0.1204
     17 C15         0.7920    1.6755    6.7221 C.3       1 <0>        -0.0869
     18 C16         0.0641   -4.2103    0.0556 C.2       1 <0>         0.4140
     19 N2          0.0809   -4.8252    1.2030 N.2       1 <0>        -0.3996
     20 O1          0.1052   -6.2403    1.2477 O.3       1 <0>        -0.4156
     21 N3          0.0700   -4.9403   -1.1214 N.pl3     1 <0>        -0.8674
     22 H1          0.9870    1.8838    0.0030 H         1 <0>         0.0830
     23 H2         -0.5631    1.8624   -0.8716 H         1 <0>         0.0798
     24 H3         -0.5453    1.8526    0.9082 H         1 <0>         0.0793
     25 H4         -0.0183   -0.1255   -2.1350 H         1 <0>         0.1439
     26 H5          0.0247   -2.6073   -2.1471 H         1 <0>         0.1412
     27 H6         -1.9223   -1.3681    4.2727 H         1 <0>         0.1281
     28 H7         -1.7227    0.4595    5.9042 H         1 <0>         0.1234
     29 H8          2.3262   -1.3868    3.7926 H         1 <0>         0.1217
     30 H9          3.2793    0.1717    6.4353 H         1 <0>         0.0804
     31 H10         3.4455    1.0137    4.8651 H         1 <0>         0.0746
     32 H11         2.8128    2.3460    7.2048 H         1 <0>         0.0781
     33 H12         2.2186    2.8885    5.5999 H         1 <0>         0.0729
     34 H13         0.1183    2.5246    6.6078 H         1 <0>         0.0772
     35 H14         0.7710    1.3106    7.7490 H         1 <0>         0.0833
     36 H15         0.1164   -6.6054    2.1430 H         1 <0>         0.4029
     37 H16         0.0575   -4.4822   -1.9763 H         1 <0>         0.3955
     38 H17         0.0867   -5.9097   -1.0908 H         1 <0>         0.4116
@<TRIPOS>BOND
     1    1    2 1
     2    1   22 1
     3    1   23 1
     4    1   24 1
     5    2    7 ar
     6    2    3 ar
     7    3    4 ar
     8    3   25 1
     9    4    5 ar
    10    4   26 1
    11    5    6 ar
    12    5   18 1
    13    6    7 ar
    14    6    8 1
    15    8    9 1
    16    9   14 ar
    17    9   10 ar
    18   10   11 ar
    19   10   27 1
    20   11   12 ar
    21   11   28 1
    22   12   17 1
    23   12   13 ar
    24   13   14 ar
    25   13   15 1
    26   14   29 1
    27   15   16 1
    28   15   30 1
    29   15   31 1
    30   16   17 1
    31   16   32 1
    32   16   33 1
    33   17   34 1
    34   17   35 1
    35   18   19 2
    36   18   21 1
    37   19   20 1
    38   20   36 1
    39   21   37 1
    40   21   38 1
@<TRIPOS>MOLECULE
ZINC50374789
   43    44     0     0     0
SMALL
USER_CHARGES

@<TRIPOS>ATOM
      1 C1          0.6386    1.4448   -0.6578 C.3       1 <0>         0.0298
      2 O1          0.4516    0.0433   -0.4511 O.3       1 <0>        -0.3792
      3 C2          0.9795   -0.7741   -1.4976 C.3       1 <0>         0.0765
      4 H1          0.9559   -0.2391   -2.4470 H         1 <0>         0.0725
      5 C3          2.4247   -1.2186   -1.1617 C.3       1 <0>        -0.1433
      6 C4          2.5932   -2.5033   -2.0103 C.3       1 <0>        -0.1235
      7 C5          1.2172   -3.1956   -1.9259 C.3       1 <0>        -0.1307
      8 C6          0.1889   -2.0946   -1.6023 C.3       1 <0>         0.1430
      9 H2         -0.3034   -2.3112   -0.6543 H         1 <0>         0.1034
     10 N1         -0.8049   -2.0009   -2.6746 N.am      1 <0>        -0.7177
     11 C7         -1.9086   -2.7736   -2.6398 C.2       1 <0>         0.5316
     12 O2         -2.0359   -3.6105   -1.7713 O.2       1 <0>        -0.5179
     13 C8         -2.9847   -2.5976   -3.6801 C.3       1 <0>        -0.0671
     14 C9         -4.0306   -3.7033   -3.5242 C.3       1 <0>        -0.0898
     15 C10        -3.3620   -5.0672   -3.7077 C.3       1 <0>        -0.1267
     16 C11        -2.7400   -5.1467   -5.1033 C.3       1 <0>        -0.1226
     17 C12        -1.6941   -4.0409   -5.2592 C.3       1 <0>        -0.1247
     18 C13        -2.3627   -2.6770   -5.0757 C.3       1 <0>        -0.0962
     19 C14        -3.6432   -1.2542   -3.4994 C.2       1 <0>         0.2935
     20 S1         -3.7224   -0.2311   -4.7258 S.2       1 <0>        -0.4310
     21 N2         -4.1654   -0.9150   -2.3041 N.pl3     1 <0>        -0.7728
     22 H3          1.7042    1.6625   -0.7294 H         1 <0>         0.0443
     23 H4          0.1435    1.7452   -1.5812 H         1 <0>         0.0424
     24 H5          0.2107    1.9958    0.1797 H         1 <0>         0.0880
     25 H6          3.1434   -0.4577   -1.4658 H         1 <0>         0.0739
     26 H7          2.5231   -1.4418   -0.0993 H         1 <0>         0.0827
     27 H8          2.8298   -2.2496   -3.0436 H         1 <0>         0.0698
     28 H9          3.3681   -3.1418   -1.5862 H         1 <0>         0.0747
     29 H10         0.9744   -3.6616   -2.8810 H         1 <0>         0.0740
     30 H11         1.2245   -3.9458   -1.1352 H         1 <0>         0.0776
     31 H12        -0.6685   -1.3828   -3.4096 H         1 <0>         0.4015
     32 H13        -4.4737   -3.6467   -2.5299 H         1 <0>         0.0698
     33 H14        -4.8089   -3.5760   -4.2766 H         1 <0>         0.0782
     34 H15        -2.5837   -5.1945   -2.9553 H         1 <0>         0.0855
     35 H16        -4.1071   -5.8550   -3.5966 H         1 <0>         0.0683
     36 H17        -2.2637   -6.1184   -5.2340 H         1 <0>         0.0655
     37 H18        -3.5183   -5.0194   -5.8557 H         1 <0>         0.0655
     38 H19        -0.9158   -4.1682   -4.5068 H         1 <0>         0.0592
     39 H20        -1.2510   -4.0975   -6.2535 H         1 <0>         0.0745
     40 H21        -3.1410   -2.5497   -5.8282 H         1 <0>         0.0976
     41 H22        -1.6176   -1.8893   -5.1868 H         1 <0>         0.0781
     42 H23        -4.1829   -1.5617   -1.5814 H         1 <0>         0.4004
     43 H24        -4.5236   -0.0241   -2.1665 H         1 <0>         0.4211
@<TRIPOS>BOND
     1    1    2 1
     2    1   22 1
     3    1   23 1
     4    1   24 1
     5    2    3 1
     6    3    4 1
     7    3    8 1
     8    3    5 1
     9    5    6 1
    10    5   25 1
    11    5   26 1
    12    6    7 1
    13    6   27 1
    14    6   28 1
    15    7    8 1
    16    7   29 1
    17    7   30 1
    18    8    9 1
    19    8   10 1
    20   10   11 am
    21   10   31 1
    22   11   12 2
    23   11   13 1
    24   13   18 1
    25   13   14 1
    26   13   19 1
    27   14   15 1
    28   14   32 1
    29   14   33 1
    30   15   16 1
    31   15   34 1
    32   15   35 1
    33   16   17 1
    34   16   36 1
    35   16   37 1
    36   17   18 1
    37   17   38 1
    38   17   39 1
    39   18   40 1
    40   18   41 1
    41   19   20 2
    42   19   21 1
    43   21   42 1
    44   21   43 1
@<TRIPOS>MOLECULE
ZINC61360549
   35    36     0     0     0
SMALL
USER_CHARGES

@<TRIPOS>ATOM
      1 C1         -0.0187    1.5258    0.0104 C.3       1 <0>        -0.1754
      2 C2          0.0021   -0.0041    0.0020 C.3       1 <0>         0.2002
      3 H1          0.5293   -0.3651    0.8851 H         1 <0>         0.0990
      4 C3          0.7074   -0.4901   -1.2379 C.2       1 <0>        -0.1237
      5 C4          2.0242   -0.9062   -1.1782 C.2       1 <0>        -0.1530
      6 C5          2.6293   -1.3376   -2.3118 C.2       1 <0>        -0.1665
      7 S1          1.3239   -1.1620   -3.5169 S.3       1 <0>         0.0472
      8 C6          0.0584   -0.5309   -2.4272 C.2       1 <0>        -0.1679
      9 N1         -1.3723   -0.5112    0.0124 N.pl3     1 <0>        -1.1151
     10 S2         -2.0922   -0.9227    1.4458 S.o2      1 <0>         2.5987
     11 O1         -3.3848   -1.3877    1.0821 O.2       1 <0>        -0.9495
     12 O2         -1.1632   -1.7892    2.0825 O.2       1 <0>        -0.9459
     13 C7         -2.2247    0.6355    2.3652 C.3       1 <0>        -0.5705
     14 C8         -2.8729    0.3770    3.7009 C.ar      1 <0>        -0.1800
     15 C9         -4.2465    0.4474    3.8280 C.ar      1 <0>        -0.0547
     16 C10        -4.8420    0.2109    5.0532 C.ar      1 <0>        -0.1768
     17 C11        -4.0651   -0.0971    6.1553 C.ar      1 <0>        -0.0577
     18 C12        -2.6915   -0.1695    6.0351 C.ar      1 <0>        -0.1970
     19 C13        -2.0902    0.0623    4.8043 C.ar      1 <0>         0.2358
     20 N2         -0.7013   -0.0152    4.6780 N.pl3     1 <0>        -0.8675
     21 H2          1.0039    1.9031    0.0027 H         1 <0>         0.0763
     22 H3         -0.5459    1.8868   -0.8726 H         1 <0>         0.0705
     23 H4         -0.5289    1.8773    0.9072 H         1 <0>         0.0627
     24 H5          2.5630   -0.8877   -0.2424 H         1 <0>         0.1377
     25 H6          3.6392   -1.6945   -2.4502 H         1 <0>         0.1885
     26 H7         -0.9597   -0.2527   -2.6563 H         1 <0>         0.1848
     27 H8         -1.8607   -0.6058   -0.8203 H         1 <0>         0.4171
     28 H9         -1.2294    1.0523    2.5190 H         1 <0>         0.1302
     29 H10        -2.8307    1.3417    1.7978 H         1 <0>         0.1441
     30 H11        -4.8560    0.6876    2.9694 H         1 <0>         0.1291
     31 H12        -5.9162    0.2672    5.1500 H         1 <0>         0.1265
     32 H13        -4.5334   -0.2809    7.1109 H         1 <0>         0.1274
     33 H14        -2.0854   -0.4097    6.8962 H         1 <0>         0.1272
     34 H15        -0.2824    0.1508    3.8191 H         1 <0>         0.3945
     35 H16        -0.1558   -0.2351    5.4493 H         1 <0>         0.4038
@<TRIPOS>BOND
     1    1    2 1
     2    1   21 1
     3    1   22 1
     4    1   23 1
     5    2    3 1
     6    2    4 1
     7    2    9 1
     8    4    8 2
     9    4    5 1
    10    5    6 2
    11    5   24 1
    12    6    7 1
    13    6   25 1
    14    7    8 1
    15    8   26 1
    16    9   10 1
    17    9   27 1
    18   10   11 2
    19   10   12 2
    20   10   13 1
    21   13   14 1
    22   13   28 1
    23   13   29 1
    24   14   19 ar
    25   14   15 ar
    26   15   16 ar
    27   15   30 1
    28   16   17 ar
    29   16   31 1
    30   17   18 ar
    31   17   32 1
    32   18   19 ar
    33   18   33 1
    34   19   20 1
    35   20   34 1
    36   20   35 1
@<TRIPOS>MOLECULE
ZINC05226618
   28    29     0     0     0
SMALL
USER_CHARGES
1-[8-hydroxy-3-(trichloromethyl)-2,4,6-trioxabicyclo[3.3.0]oct-7-yl]ethane-1,2-diol
@<TRIPOS>ATOM
      1 C1          3.2761    4.0875    5.1890 C.3       1 <0>         0.0459
      2 C2          2.1905    5.0103    4.6315 C.3       1 <0>         0.1251
      3 H1          2.6569    5.8529    4.1210 H         1 <0>         0.1259
      4 C3          1.3194    4.2335    3.6422 C.3       1 <0>         0.0473
      5 H2          1.9149    3.8884    2.7969 H         1 <0>         0.1003
      6 C4          0.1352    5.1062    3.1555 C.3       1 <0>         0.0867
      7 H3         -0.2512    5.7269    3.9639 H         1 <0>         0.1044
      8 C5         -0.9055    4.0417    2.7328 C.3       1 <0>        -0.0223
      9 H4         -1.9290    4.3374    2.9634 H         1 <0>         0.1287
     10 C6         -0.4619    2.7628    3.4886 C.3       1 <0>         0.2099
     11 H5         -1.2742    2.3440    4.0825 H         1 <0>         0.1514
     12 O1          0.6711    3.1212    4.2951 O.3       1 <0>        -0.3366
     13 O2         -0.0369    1.8533    2.4538 O.3       1 <0>        -0.3615
     14 C7         -0.7385    2.2922    1.2707 C.3       1 <0>         0.2336
     15 H6         -1.7685    1.9357    1.2855 H         1 <0>         0.1206
     16 O3         -0.7013    3.7336    1.3386 O.3       1 <0>        -0.3314
     17 C8         -0.0224    1.7987    0.0119 C.3       1 <0>         0.1324
     18 Cl1         0.0021   -0.0041    0.0020 Cl        1 <0>        -0.0616
     19 Cl2         1.6691    2.4228   -0.0009 Cl        1 <0>        -0.0593
     20 Cl3        -0.8944    2.3960   -1.4488 Cl        1 <0>        -0.0616
     21 O4          0.5215    5.9110    2.0396 O.3       1 <0>        -0.5327
     22 O5          1.3787    5.4930    5.7039 O.3       1 <0>        -0.5457
     23 O6          4.1594    4.8405    6.0225 O.3       1 <0>        -0.5644
     24 H7          2.8125    3.2936    5.7746 H         1 <0>         0.0583
     25 H8          3.8392    3.6496    4.3648 H         1 <0>         0.0558
     26 H9         -0.2063    6.4096    1.6436 H         1 <0>         0.3889
     27 H10         0.9318    4.7960    6.2034 H         1 <0>         0.3789
     28 H11         4.8743    4.3180    6.4112 H         1 <0>         0.3826
@<TRIPOS>BOND
     1    1    2 1
     2    1   23 1
     3    1   24 1
     4    1   25 1
     5    2    3 1
     6    2    4 1
     7    2   22 1
     8    4    5 1
     9    4   12 1
    10    4    6 1
    11    6    7 1
    12    6    8 1
    13    6   21 1
    14    8    9 1
    15    8   16 1
    16    8   10 1
    17   10   11 1
    18   10   12 1
    19   10   13 1
    20   13   14 1
    21   14   15 1
    22   14   16 1
    23   14   17 1
    24   17   18 1
    25   17   19 1
    26   17   20 1
    27   21   26 1
    28   22   27 1
    29   23   28 1
@<TRIPOS>MOLECULE
ZINC05075327
   32    34     0     0     0
SMALL
USER_CHARGES

@<TRIPOS>ATOM
      1 C1         -0.0173    1.4248    0.0099 C.3       1 <0>         0.0310
      2 O1          0.0021   -0.0041    0.0020 O.3       1 <0>        -0.3825
      3 C2         -1.2953   -0.6030    0.0112 C.3       1 <0>         0.1379
      4 C3         -1.1560   -2.1035    0.0018 C.2       1 <0>         0.1208
      5 C4         -1.0858   -2.9086   -1.1271 C.2       1 <0>        -0.2442
      6 C5         -0.9629   -4.2063   -0.7149 C.2       1 <0>         0.2722
      7 N1         -0.9582   -4.2069    0.6277 N.pl3     1 <0>        -0.4407
      8 H1         -0.8840   -4.9879    1.1983 H         1 <0>         0.4487
      9 N2         -1.0741   -2.8762    1.0589 N.2       1 <0>        -0.2416
     10 O2         -0.8668   -5.2442   -1.5826 O.3       1 <0>        -0.2299
     11 C6         -0.6187   -4.9556   -2.8764 C.2       1 <0>         0.4364
     12 C7         -0.7188   -3.7150   -3.4030 C.2       1 <0>        -0.2532
     13 C8         -1.1291   -2.5181   -2.5819 C.3       1 <0>         0.1353
     14 H2         -0.4384   -1.6944   -2.7623 H         1 <0>         0.0988
     15 C9         -2.5282   -2.1006   -2.9549 C.2       1 <0>        -0.1134
     16 C10        -2.7759   -0.8288   -3.4364 C.2       1 <0>        -0.1506
     17 C11        -4.0458   -0.4852   -3.7626 C.2       1 <0>        -0.1702
     18 S1         -4.9414   -1.9837   -3.3889 S.3       1 <0>         0.0312
     19 C12        -3.5618   -2.9684   -2.8284 C.2       1 <0>        -0.1548
     20 C13        -0.4249   -3.5300   -4.7923 C.1       1 <0>         0.2713
     21 N3         -0.1917   -3.3833   -5.8943 N.1       1 <0>        -0.4373
     22 N4         -0.2422   -5.9818   -3.7067 N.pl3     1 <0>        -0.8311
     23 H3          1.0053    1.8021    0.0021 H         1 <0>         0.0902
     24 H4         -0.5445    1.7859   -0.8732 H         1 <0>         0.0455
     25 H5         -0.5275    1.7763    0.9067 H         1 <0>         0.0450
     26 H6         -1.8320   -0.2936    0.9080 H         1 <0>         0.0709
     27 H7         -1.8490   -0.2840   -0.8718 H         1 <0>         0.0790
     28 H8         -1.9696   -0.1194   -3.5506 H         1 <0>         0.1346
     29 H9         -4.4191    0.4520   -4.1483 H         1 <0>         0.1856
     30 H10        -3.5531   -3.9901   -2.4784 H         1 <0>         0.1758
     31 H11        -0.1613   -6.8833   -3.3578 H         1 <0>         0.4115
     32 H12        -0.0570   -5.8055   -4.6424 H         1 <0>         0.4281
@<TRIPOS>BOND
     1    1    2 1
     2    1   23 1
     3    1   24 1
     4    1   25 1
     5    2    3 1
     6    3    4 1
     7    3   26 1
     8    3   27 1
     9    4    9 2
    10    4    5 1
    11    5   13 1
    12    5    6 2
    13    6    7 1
    14    6   10 1
    15    7    8 1
    16    7    9 1
    17   10   11 1
    18   11   12 2
    19   11   22 1
    20   12   13 1
    21   12   20 1
    22   13   14 1
    23   13   15 1
    24   15   19 2
    25   15   16 1
    26   16   17 2
    27   16   28 1
    28   17   18 1
    29   17   29 1
    30   18   19 1
    31   19   30 1
    32   20   21 3
    33   22   31 1
    34   22   32 1
@<TRIPOS>MOLECULE
ZINC40348953
   32    33     0     0     0
SMALL
USER_CHARGES

@<TRIPOS>ATOM
      1 C1         -4.0246   -5.6213   -3.4687 C.3       1 <0>         0.0508
      2 N1         -2.9463   -5.2161   -2.5635 N.am      1 <0>        -0.4793
      3 C2         -3.1419   -4.1769   -1.7075 C.2       1 <0>         0.0524
      4 C3         -2.1554   -3.7845   -0.8596 C.2       1 <0>         0.0691
      5 C4         -0.9203   -4.4568   -0.8647 C.2       1 <0>        -0.0311
      6 C5         -0.7316   -5.4975   -1.7255 C.2       1 <0>        -0.2048
      7 C6         -1.7752   -5.8800   -2.5846 C.2       1 <0>         0.5047
      8 O1         -1.6182   -6.8140   -3.3555 O.2       1 <0>        -0.5471
      9 N2         -2.3683   -2.7111    0.0186 N.pl3     1 <0>        -1.0384
     10 S1         -3.7724   -1.8374   -0.0670 S.o2      1 <0>         2.6903
     11 O2         -4.8369   -2.7787   -0.0709 O.2       1 <0>        -0.9438
     12 O3         -3.6698   -0.8074    0.9066 O.2       1 <0>        -0.9353
     13 C7         -3.7968   -1.0432   -1.6397 C.ar      1 <0>        -0.6425
     14 C8         -3.1186    0.1480   -1.8219 C.ar      1 <0>        -0.0425
     15 C9         -3.1347    0.7752   -3.0543 C.ar      1 <0>        -0.1205
     16 C10        -3.8298    0.2121   -4.1088 C.ar      1 <0>         0.0804
     17 C11        -4.5126   -0.9859   -3.9277 C.ar      1 <0>         0.1774
     18 C12        -4.4887   -1.6145   -2.6901 C.ar      1 <0>        -0.0875
     19 N3         -5.2169   -1.5589   -4.9914 N.pl3     1 <0>        -0.8685
     20 F1         -3.8460    0.8249   -5.3127 F         1 <0>        -0.1302
     21 H1         -3.6937   -6.4663   -4.0726 H         1 <0>         0.1085
     22 H2         -4.8986   -5.9116   -2.8856 H         1 <0>         0.0851
     23 H3         -4.2837   -4.7876   -4.1213 H         1 <0>         0.0776
     24 H4         -4.0896   -3.6590   -1.7022 H         1 <0>         0.1721
     25 H5         -0.1300   -4.1521   -0.1947 H         1 <0>         0.1474
     26 H6          0.2104   -6.0255   -1.7438 H         1 <0>         0.1603
     27 H7         -1.6930   -2.4808    0.6757 H         1 <0>         0.4343
     28 H8         -2.5753    0.5898   -0.9997 H         1 <0>         0.1500
     29 H9         -2.6043    1.7056   -3.1932 H         1 <0>         0.1501
     30 H10        -5.0143   -2.5471   -2.5474 H         1 <0>         0.1472
     31 H11        -5.2295   -1.1208   -5.8567 H         1 <0>         0.4076
     32 H12        -5.6927   -2.3945   -4.8639 H         1 <0>         0.4064
@<TRIPOS>BOND
     1    1    2 1
     2    1   21 1
     3    1   22 1
     4    1   23 1
     5    2    7 am
     6    2    3 1
     7    3    4 2
     8    3   24 1
     9    4    5 1
    10    4    9 1
    11    5    6 2
    12    5   25 1
    13    6    7 1
    14    6   26 1
    15    7    8 2
    16    9   10 1
    17    9   27 1
    18   10   11 2
    19   10   12 2
    20   10   13 1
    21   13   18 ar
    22   13   14 ar
    23   14   15 ar
    24   14   28 1
    25   15   16 ar
    26   15   29 1
    27   16   17 ar
    28   16   20 1
    29   17   18 ar
    30   17   19 1
    31   18   30 1
    32   19   31 1
    33   19   32 1
@<TRIPOS>MOLECULE
ZINC50252562
   32    33     0     0     0
SMALL
USER_CHARGES

@<TRIPOS>ATOM
      1 C1         -0.0184    1.5028    0.0103 C.3       1 <0>        -0.1098
      2 C2          0.0021   -0.0041    0.0020 C.cat     1 <0>         0.3153
      3 N1          0.0080   -0.7588   -1.0626 N.pl3     1 <0>        -0.4223
      4 C3          0.0275   -2.0475   -0.6911 C.2       1 <0>        -0.4728
      5 C4          0.0339   -2.0930    0.6548 C.2       1 <0>         0.1268
      6 N2          0.0232   -0.7970    1.0950 N.pl3     1 <0>        -0.4189
      7 C5          0.0304   -0.3529    2.4910 C.3       1 <0>         0.0553
      8 S1          0.0421   -3.4372   -1.7742 S.o2      1 <0>         2.5894
      9 O1         -0.4904   -4.5305   -1.0393 O.2       1 <0>        -0.9878
     10 O2         -0.5202   -2.9997   -3.0038 O.2       1 <0>        -1.0004
     11 N3          1.6280   -3.8013   -2.0821 N.2       1 <0>        -1.0793
     12 C6          1.9495   -4.8739   -2.9227 C.ar      1 <0>         0.2165
     13 C7          0.9415   -5.6288   -3.5030 C.ar      1 <0>        -0.2170
     14 C8          1.2617   -6.6879   -4.3338 C.ar      1 <0>        -0.0299
     15 C9          2.5862   -6.9966   -4.5877 C.ar      1 <0>        -0.1415
     16 C10         3.5969   -6.2484   -4.0126 C.ar      1 <0>        -0.1628
     17 C11         3.2845   -5.1822   -3.1832 C.ar      1 <0>         0.1806
     18 N4          4.3072   -4.4196   -2.6044 N.pl3     1 <0>        -0.8722
     19 Cl1        -0.0018   -7.6321   -5.0589 Cl        1 <0>        -0.1018
     20 H1          1.0042    1.8801    0.0026 H         1 <0>         0.1230
     21 H2         -0.5455    1.8639   -0.8728 H         1 <0>         0.1183
     22 H3         -0.5286    1.8543    0.9071 H         1 <0>         0.1150
     23 H4          0.0489   -2.9814    1.2688 H         1 <0>         0.2358
     24 H5         -0.9954   -0.2568    2.8470 H         1 <0>         0.1091
     25 H6          0.5600   -1.0838    3.1021 H         1 <0>         0.1197
     26 H7          0.5318    0.6122    2.5628 H         1 <0>         0.1130
     27 H8         -0.0933   -5.3903   -3.3063 H         1 <0>         0.1070
     28 H9          2.8314   -7.8244   -5.2365 H         1 <0>         0.1192
     29 H10         4.6298   -6.4920   -4.2129 H         1 <0>         0.1192
     30 H11         4.0872   -3.6760   -2.0217 H         1 <0>         0.4012
     31 H12         5.2352   -4.6351   -2.7865 H         1 <0>         0.3854
     32 H13        -0.0004   -0.4384   -1.9781 H         1 <0>         0.4669
@<TRIPOS>BOND
     1    1    2 1
     2    1   20 1
     3    1   21 1
     4    1   22 1
     5    2    6 1
     6    2    3 2
     7    3    4 1
     8    3   32 1
     9    4    5 2
    10    4    8 1
    11    5    6 1
    12    5   23 1
    13    6    7 1
    14    7   24 1
    15    7   25 1
    16    7   26 1
    17    8    9 2
    18    8   10 2
    19    8   11 1
    20   11   12 1
    21   12   17 ar
    22   12   13 ar
    23   13   14 ar
    24   13   27 1
    25   14   15 ar
    26   14   19 1
    27   15   16 ar
    28   15   28 1
    29   16   17 ar
    30   16   29 1
    31   17   18 1
    32   18   30 1
    33   18   31 1
@<TRIPOS>MOLECULE
ZINC47553323
   29    30     0     0     0
SMALL
USER_CHARGES

@<TRIPOS>ATOM
      1 C1         -0.3053    1.0020    1.5579 C.2       1 <0>        -0.2397
      2 C2         -1.5186    1.6859    1.4834 C.2       1 <0>         0.0717
      3 C3         -2.5817    1.1013    0.7981 C.2       1 <0>        -0.2782
      4 C4         -2.3925   -0.1712    0.1991 C.2       1 <0>         0.5336
      5 N1         -1.2000   -0.7881    0.3013 N.am      1 <0>        -0.5981
      6 C5         -0.1711   -0.2137    0.9690 C.2       1 <0>         0.1671
      7 O1         -3.3068   -0.7042   -0.4055 O.2       1 <0>        -0.5477
      8 C6         -3.8769    1.7905    0.6978 C.2       1 <0>         0.5764
      9 O2         -4.0634    2.8268    1.3075 O.2       1 <0>        -0.5015
     10 N2         -4.8574    1.2741   -0.0694 N.am      1 <0>        -0.6490
     11 C7         -6.0910    1.9307   -0.1650 C.2       1 <0>         0.0553
     12 C8         -7.2580    1.2163   -0.1587 C.2       1 <0>        -0.0378
     13 C9         -8.4790    1.8985   -0.2552 C.2       1 <0>        -0.2740
     14 C10        -8.4950    3.2475   -0.3536 C.2       1 <0>         0.1888
     15 N3         -7.3368    3.9593   -0.3601 N.am      1 <0>        -0.5971
     16 H1         -7.3688    4.9262   -0.4314 H         1 <0>         0.4270
     17 C11        -6.1457    3.3383   -0.2632 C.2       1 <0>         0.5171
     18 O3         -5.1144    3.9911   -0.2652 O.2       1 <0>        -0.4885
     19 C12        -9.7744    1.1284   -0.2499 C.3       1 <0>         0.5302
     20 F1        -10.8473    2.0199   -0.3558 F         1 <0>        -0.1782
     21 F2         -9.7950    0.2431   -1.3330 F         1 <0>        -0.1729
     22 F3         -9.8833    0.4073    0.9440 F         1 <0>        -0.1726
     23 H2          0.5304    1.4426    2.0812 H         1 <0>         0.1592
     24 H3         -1.6325    2.6533    1.9499 H         1 <0>         0.1535
     25 H4          0.7752   -0.7307    1.0303 H         1 <0>         0.1759
     26 H5         -1.0759   -1.6579   -0.1097 H         1 <0>         0.4230
     27 H6         -4.7087    0.4479   -0.5553 H         1 <0>         0.4267
     28 H7         -7.2387    0.1393   -0.0807 H         1 <0>         0.1476
     29 H8         -9.4397    3.7655   -0.4283 H         1 <0>         0.1823
@<TRIPOS>BOND
     1    1    6 2
     2    1   23 1
     3    1    2 1
     4    2   24 1
     5    2    3 2
     6    3    4 1
     7    3    8 1
     8    4    7 2
     9    4    5 am
    10    5   26 1
    11    5    6 1
    12    6   25 1
    13    8    9 2
    14    8   10 am
    15   10   11 1
    16   10   27 1
    17   11   17 1
    18   11   12 2
    19   12   13 1
    20   12   28 1
    21   13   14 2
    22   13   19 1
    23   14   15 1
    24   14   29 1
    25   15   16 1
    26   15   17 am
    27   17   18 2
    28   19   20 1
    29   19   21 1
    30   19   22 1
@<TRIPOS>MOLECULE
ZINC07683694
   48    50     0     0     0
SMALL
USER_CHARGES
1-[1-(4-chlorophenyl)sulfonylpyrrolidin-2-yl]carbonylpiperidine-4-carboxamide
@<TRIPOS>ATOM
      1 C1         -3.0028    5.7974    6.6475 C.ar      1 <0>        -0.0076
      2 C2         -2.6341    5.3850    7.9142 C.ar      1 <0>        -0.1309
      3 C3         -2.4984    6.3129    8.9314 C.ar      1 <0>         0.0170
      4 C4         -2.7264    7.6539    8.6786 C.ar      1 <0>        -0.1305
      5 C5         -3.0895    8.0658    7.4102 C.ar      1 <0>        -0.0076
      6 C6         -3.2253    7.1381    6.3943 C.ar      1 <0>        -0.6826
      7 S1         -3.6894    7.6639    4.7779 S.o2      1 <0>         2.7068
      8 O1         -4.3753    8.8986    4.9337 O.2       1 <0>        -0.9449
      9 O2         -4.2793    6.5400    4.1390 O.2       1 <0>        -0.9221
     10 N1         -2.2934    7.9988    3.9523 N.pl3     1 <0>        -0.9911
     11 C7         -1.6156    9.3071    3.9058 C.3       1 <0>         0.1173
     12 C8         -0.1379    8.9767    3.5788 C.3       1 <0>        -0.1293
     13 C9         -0.2952    7.7908    2.5907 C.3       1 <0>        -0.1221
     14 C10        -1.5251    7.0407    3.1440 C.3       1 <0>         0.1339
     15 H1         -1.2015    6.2047    3.7641 H         1 <0>         0.1016
     16 C11        -2.3726    6.5357    2.0049 C.2       1 <0>         0.4999
     17 O3         -3.5153    6.9228    1.8812 O.2       1 <0>        -0.5031
     18 N2         -1.8607    5.6538    1.1235 N.am      1 <0>        -0.6122
     19 C12        -2.6746    5.1524    0.0078 C.3       1 <0>         0.1125
     20 C13        -2.6575    3.6208    0.0343 C.3       1 <0>        -0.1163
     21 C14        -1.2077    3.1306    0.0248 C.3       1 <0>        -0.1083
     22 C15        -0.4858    3.6435    1.2730 C.3       1 <0>        -0.1295
     23 C16        -0.4784    5.1753    1.2605 C.3       1 <0>         0.1020
     24 C17        -1.1873    1.6238    0.0165 C.2       1 <0>         0.5196
     25 O4         -2.2293    1.0032    0.0181 O.2       1 <0>        -0.5369
     26 N3         -0.0111    0.9658    0.0074 N.am      1 <0>        -0.8567
     27 Cl1        -2.0428    5.7948   10.5244 Cl        1 <0>        -0.0517
     28 H2         -3.1131    5.0727    5.8545 H         1 <0>         0.1483
     29 H3         -2.4562    4.3381    8.1109 H         1 <0>         0.1454
     30 H4         -2.6203    8.3788    9.4721 H         1 <0>         0.1461
     31 H5         -3.2674    9.1126    7.2128 H         1 <0>         0.1498
     32 H6         -1.6878    9.8064    4.8721 H         1 <0>         0.0820
     33 H7         -2.0467    9.9320    3.1236 H         1 <0>         0.0780
     34 H8          0.4014    8.6698    4.4749 H         1 <0>         0.0819
     35 H9          0.3552    9.8222    3.0990 H         1 <0>         0.0912
     36 H10         0.5877    7.1519    2.6115 H         1 <0>         0.0947
     37 H11        -0.4855    8.1505    1.5795 H         1 <0>         0.0861
     38 H12        -2.2589    5.5062   -0.9357 H         1 <0>         0.0704
     39 H13        -3.6994    5.5082    0.1142 H         1 <0>         0.1001
     40 H14        -3.1775    3.2359   -0.8429 H         1 <0>         0.0854
     41 H15        -3.1554    3.2665    0.9369 H         1 <0>         0.0777
     42 H16        -0.7035    3.5055   -0.8659 H         1 <0>         0.1023
     43 H17        -1.0040    3.2894    2.1642 H         1 <0>         0.0768
     44 H18         0.5399    3.2747    1.2773 H         1 <0>         0.0826
     45 H19         0.1165    5.5309    0.4192 H         1 <0>         0.0781
     46 H20        -0.0532    5.5484    2.1922 H         1 <0>         0.0925
     47 H21         0.0021   -0.0041    0.0020 H         1 <0>         0.4025
     48 H22         0.8223    1.4622    0.0021 H         1 <0>         0.4008
@<TRIPOS>BOND
     1    1    6 ar
     2    1    2 ar
     3    1   28 1
     4    2    3 ar
     5    2   29 1
     6    3    4 ar
     7    3   27 1
     8    4    5 ar
     9    4   30 1
    10    5    6 ar
    11    5   31 1
    12    6    7 1
    13    7    8 2
    14    7    9 2
    15    7   10 1
    16   10   14 1
    17   10   11 1
    18   11   12 1
    19   11   32 1
    20   11   33 1
    21   12   13 1
    22   12   34 1
    23   12   35 1
    24   13   14 1
    25   13   36 1
    26   13   37 1
    27   14   15 1
    28   14   16 1
    29   16   17 2
    30   16   18 am
    31   18   23 1
    32   18   19 1
    33   19   20 1
    34   19   38 1
    35   19   39 1
    36   20   21 1
    37   20   40 1
    38   20   41 1
    39   21   22 1
    40   21   24 1
    41   21   42 1
    42   22   23 1
    43   22   43 1
    44   22   44 1
    45   23   45 1
    46   23   46 1
    47   24   25 2
    48   24   26 am
    49   26   47 1
    50   26   48 1
@<TRIPOS>MOLECULE
ZINC35273155
   51    54     0     0     0
SMALL
USER_CHARGES

@<TRIPOS>ATOM
      1 C1          1.0876    1.3056   -0.0185 C.3       1 <0>         0.0609
      2 N1          1.4217   -0.1167    0.0885 N.pl3     1 <0>        -0.4384
      3 C2          1.9056   -0.8985   -0.9188 C.2       1 <0>         0.0109
      4 C3          2.0905   -2.1474   -0.4400 C.2       1 <0>        -0.2024
      5 C4          1.7095   -2.1467    0.9122 C.2       1 <0>        -0.1428
      6 C5          1.3056   -0.8829    1.2196 C.2       1 <0>         0.0623
      7 C6          0.8240   -0.4195    2.5395 C.2       1 <0>         0.1525
      8 C7          0.5213    0.9083    2.8829 C.2       1 <0>        -0.2347
      9 C8          0.1080    0.9152    4.1973 C.2       1 <0>         0.0502
     10 N2          0.1571   -0.3783    4.6464 N.pl3     1 <0>        -0.2866
     11 N3          0.6009   -1.1846    3.5911 N.2       1 <0>        -0.2409
     12 C9         -0.1817   -0.8171    5.9318 C.ar      1 <0>         0.1136
     13 C10         0.4371   -0.2587    7.0429 C.ar      1 <0>        -0.0383
     14 C11         0.1014   -0.6930    8.3099 C.ar      1 <0>        -0.1444
     15 C12        -0.8514   -1.6847    8.4733 C.ar      1 <0>         0.1172
     16 C13        -1.4697   -2.2430    7.3668 C.ar      1 <0>        -0.1492
     17 C14        -1.1412   -1.8076    6.0982 C.ar      1 <0>        -0.0653
     18 F1         -1.1780   -2.1086    9.7139 F         1 <0>        -0.1322
     19 C15        -0.3080    2.0930    4.9745 C.2       1 <0>         0.5864
     20 O1         -0.1932    2.0942    6.1854 O.2       1 <0>        -0.5183
     21 N4         -0.8163    3.1707    4.3447 N.am      1 <0>        -0.5947
     22 C16        -1.1037    3.1297    2.9044 C.3       1 <0>         0.0678
     23 C17        -0.3968    4.3079    2.2269 C.3       1 <0>        -0.1190
     24 C18        -0.8127    5.6106    2.9139 C.3       1 <0>        -0.1092
     25 C19        -0.3874    5.5726    4.3836 C.3       1 <0>        -0.1270
     26 C20        -1.0994    4.4069    5.0866 C.3       1 <0>         0.1160
     27 C21        -0.1456    6.7750    2.2282 C.2       1 <0>         0.5215
     28 O2          0.5899    6.5821    1.2833 O.2       1 <0>        -0.5394
     29 N5         -0.3662    8.0308    2.6650 N.am      1 <0>        -0.8550
     30 H1          1.9276    1.9037    0.3347 H         1 <0>         0.0786
     31 H2          0.8782    1.5523   -1.0594 H         1 <0>         0.0921
     32 H3          0.2085    1.5191    0.5895 H         1 <0>         0.0828
     33 H4          2.1064   -0.5737   -1.9290 H         1 <0>         0.1694
     34 H5          2.4638   -2.9944   -0.9964 H         1 <0>         0.1423
     35 H6          1.7359   -2.9913    1.5848 H         1 <0>         0.1424
     36 H7          0.5991    1.7683    2.2343 H         1 <0>         0.1740
     37 H8          1.1804    0.5145    6.9160 H         1 <0>         0.1454
     38 H9          0.5826   -0.2593    9.1741 H         1 <0>         0.1468
     39 H10        -2.2122   -3.0164    7.4964 H         1 <0>         0.1470
     40 H11        -1.6270   -2.2397    5.2359 H         1 <0>         0.1412
     41 H12        -0.7364    2.1931    2.4851 H         1 <0>         0.1163
     42 H13        -2.1790    3.2075    2.7440 H         1 <0>         0.0790
     43 H14         0.6826    4.1812    2.3101 H         1 <0>         0.0788
     44 H15        -0.6791    4.3453    1.1747 H         1 <0>         0.0901
     45 H16        -1.8949    5.7244    2.8519 H         1 <0>         0.1041
     46 H17         0.6919    5.4340    4.4465 H         1 <0>         0.0774
     47 H18        -0.6630    6.5101    4.8665 H         1 <0>         0.0851
     48 H19        -2.1744    4.5867    5.1005 H         1 <0>         0.0782
     49 H20        -0.7293    4.3132    6.1076 H         1 <0>         0.1023
     50 H21        -0.9544    8.1851    3.4207 H         1 <0>         0.4019
     51 H22         0.0632    8.7803    2.2236 H         1 <0>         0.4035
@<TRIPOS>BOND
     1    1    2 1
     2    1   30 1
     3    1   31 1
     4    1   32 1
     5    2    6 1
     6    2    3 1
     7    3    4 2
     8    3   33 1
     9    4    5 1
    10    4   34 1
    11    5    6 2
    12    5   35 1
    13    6    7 1
    14    7   11 2
    15    7    8 1
    16    8    9 2
    17    8   36 1
    18    9   10 1
    19    9   19 1
    20   10   11 1
    21   10   12 1
    22   12   17 ar
    23   12   13 ar
    24   13   14 ar
    25   13   37 1
    26   14   15 ar
    27   14   38 1
    28   15   16 ar
    29   15   18 1
    30   16   17 ar
    31   16   39 1
    32   17   40 1
    33   19   20 2
    34   19   21 am
    35   21   26 1
    36   21   22 1
    37   22   23 1
    38   22   41 1
    39   22   42 1
    40   23   24 1
    41   23   43 1
    42   23   44 1
    43   24   25 1
    44   24   27 1
    45   24   45 1
    46   25   26 1
    47   25   46 1
    48   25   47 1
    49   26   48 1
    50   26   49 1
    51   27   28 2
    52   27   29 am
    53   29   50 1
    54   29   51 1
@<TRIPOS>MOLECULE
ZINC47963875
   47    50     0     0     0
SMALL
USER_CHARGES

@<TRIPOS>ATOM
      1 C1         -0.0167    1.3779    0.0096 C.ar      1 <0>        -0.0905
      2 C2          1.1696    2.0876    0.0021 C.ar      1 <0>        -0.1145
      3 C3          2.3817    1.4145   -0.0127 C.ar      1 <0>         0.0641
      4 C4          2.4006    0.0245   -0.0177 C.ar      1 <0>         0.0490
      5 C5          1.2071   -0.6813   -0.0113 C.ar      1 <0>        -0.0900
      6 C6          0.0021   -0.0041    0.0020 C.ar      1 <0>        -0.1150
      7 C7         -1.2934   -0.7739    0.0087 C.3       1 <0>         0.1647
      8 N1         -1.7247   -1.0160   -1.3703 N.am      1 <0>        -0.6888
      9 C8         -2.8658   -1.6916   -1.6108 C.2       1 <0>         0.5167
     10 O1         -3.5362   -2.0995   -0.6848 O.2       1 <0>        -0.5063
     11 C9         -3.3053   -1.9382   -3.0159 C.2       1 <0>         0.5056
     12 O2         -2.6348   -1.5302   -3.9420 O.2       1 <0>        -0.4724
     13 N2         -4.4464   -2.6138   -3.2563 N.am      1 <0>        -0.5928
     14 C10        -4.8542   -2.8426   -4.5600 C.2       1 <0>         0.1080
     15 C11        -5.9878   -3.5049   -5.0155 C.2       1 <0>        -0.1071
     16 C12        -6.1825   -3.6077   -6.4510 C.2       1 <0>        -0.0651
     17 C13        -5.2291   -3.0415   -7.2256 C.2       1 <0>        -0.1864
     18 S1         -4.0620   -2.3555   -6.0824 S.3       1 <0>         0.2087
     19 C14        -5.1816   -3.0030   -8.7220 C.3       1 <0>        -0.0382
     20 C15        -6.1889   -4.0265   -9.2654 C.3       1 <0>        -0.1158
     21 C16        -7.5203   -3.8427   -8.5314 C.3       1 <0>        -0.1205
     22 C17        -7.3831   -4.3072   -7.0811 C.3       1 <0>        -0.0633
     23 C18        -6.9331   -4.0683   -4.0991 C.1       1 <0>         0.2618
     24 N3         -7.6830   -4.5152   -3.3722 N.1       1 <0>        -0.4129
     25 O3          3.5794   -0.6560   -0.0244 O.3       1 <0>        -0.3056
     26 C19         4.7458    0.0812   -0.4063 C.3       1 <0>         0.0199
     27 C20         4.7331    1.4219    0.3404 C.3       1 <0>         0.0192
     28 O4          3.5415    2.1268   -0.0241 O.3       1 <0>        -0.3054
     29 H1         -0.9596    1.9041    0.0259 H         1 <0>         0.1369
     30 H2          1.1522    3.1675    0.0074 H         1 <0>         0.1397
     31 H3          1.2190   -1.7612   -0.0174 H         1 <0>         0.1384
     32 H4         -1.1469   -1.7274    0.5162 H         1 <0>         0.0888
     33 H5         -2.0561   -0.1973    0.5320 H         1 <0>         0.0907
     34 H6         -1.1890   -0.6900   -2.1104 H         1 <0>         0.4174
     35 H7         -4.9822   -2.9398   -2.5163 H         1 <0>         0.4342
     36 H8         -5.4469   -2.0054   -9.0721 H         1 <0>         0.0868
     37 H9         -4.1785   -3.2579   -9.0640 H         1 <0>         0.0847
     38 H10        -6.3347   -3.8644  -10.3334 H         1 <0>         0.0762
     39 H11        -5.8133   -5.0354   -9.0944 H         1 <0>         0.0702
     40 H12        -7.8012   -2.7897   -8.5491 H         1 <0>         0.0688
     41 H13        -8.2920   -4.4305   -9.0284 H         1 <0>         0.0722
     42 H14        -7.2314   -5.3863   -7.0565 H         1 <0>         0.0812
     43 H15        -8.2868   -4.0508   -6.5281 H         1 <0>         0.0756
     44 H16         5.6402   -0.4808   -0.1375 H         1 <0>         0.1253
     45 H17         4.7323    0.2592   -1.4816 H         1 <0>         0.0800
     46 H18         4.7403    1.2438    1.4157 H         1 <0>         0.0803
     47 H19         5.6078    2.0080    0.0585 H         1 <0>         0.1255
@<TRIPOS>BOND
     1    1    6 ar
     2    1    2 ar
     3    1   29 1
     4    2    3 ar
     5    2   30 1
     6    3   28 1
     7    3    4 ar
     8    4    5 ar
     9    4   25 1
    10    5    6 ar
    11    5   31 1
    12    6    7 1
    13    7    8 1
    14    7   32 1
    15    7   33 1
    16    8    9 am
    17    8   34 1
    18    9   10 2
    19    9   11 1
    20   11   12 2
    21   11   13 am
    22   13   14 1
    23   13   35 1
    24   14   18 1
    25   14   15 2
    26   15   16 1
    27   15   23 1
    28   16   22 1
    29   16   17 2
    30   17   18 1
    31   17   19 1
    32   19   20 1
    33   19   36 1
    34   19   37 1
    35   20   21 1
    36   20   38 1
    37   20   39 1
    38   21   22 1
    39   21   40 1
    40   21   41 1
    41   22   42 1
    42   22   43 1
    43   23   24 3
    44   25   26 1
    45   26   27 1
    46   26   44 1
    47   26   45 1
    48   27   28 1
    49   27   46 1
    50   27   47 1
@<TRIPOS>MOLECULE
ZINC58316011
   44    45     0     0     0
SMALL
USER_CHARGES

@<TRIPOS>ATOM
      1 C1         -0.3550    1.1808   -1.9186 C.3       1 <0>        -0.1747
      2 C2         -0.2490   -0.1654   -1.2496 C.2       1 <0>         0.5113
      3 O1          0.8008   -0.5145   -0.7523 O.2       1 <0>        -0.5151
      4 N1         -1.3206   -0.9815   -1.2039 N.am      1 <0>        -0.6735
      5 C3         -1.1929   -2.2772   -0.6863 C.ar      1 <0>         0.1235
      6 C4          0.0398   -2.9129   -0.6996 C.ar      1 <0>        -0.0990
      7 C5          0.1641   -4.1907   -0.1883 C.ar      1 <0>        -0.1036
      8 C6         -0.9392   -4.8401    0.3377 C.ar      1 <0>        -0.0307
      9 C7         -2.1719   -4.2134    0.3548 C.ar      1 <0>        -0.1027
     10 C8         -2.3035   -2.9287   -0.1513 C.ar      1 <0>         0.1298
     11 N2         -3.5498   -2.2900   -0.1303 N.am      1 <0>        -0.6683
     12 C9         -4.6816   -3.0213   -0.1064 C.2       1 <0>         0.5201
     13 O2         -4.6255   -4.2290   -0.2043 O.2       1 <0>        -0.5013
     14 C10        -6.0169   -2.3387    0.0419 C.3       1 <0>        -0.1232
     15 H1         -6.1671   -1.6488   -0.7885 H         1 <0>         0.1068
     16 C11        -6.0510   -1.5646    1.3617 C.3       1 <0>        -0.1112
     17 C12        -7.3944   -0.8442    1.4979 C.3       1 <0>        -0.1341
     18 C13        -8.5244   -1.8784    1.5147 C.3       1 <0>         0.1153
     19 N3         -8.4110   -2.7223    0.3173 N.pl3     1 <0>        -0.9992
     20 C14        -7.1314   -3.3897    0.0413 C.3       1 <0>         0.1392
     21 S1         -9.7010   -2.9177   -0.7025 S.o2      1 <0>         2.6082
     22 O3         -9.4835   -4.1765   -1.3251 O.2       1 <0>        -0.9488
     23 O4        -10.8441   -2.7008    0.1132 O.2       1 <0>        -0.9507
     24 C15        -9.5395   -1.5825   -1.9197 C.3       1 <0>        -0.6754
     25 Cl1        -0.7753   -6.4457    0.9772 Cl        1 <0>        -0.0608
     26 H2          0.6047    1.6938   -1.8567 H         1 <0>         0.1004
     27 H3         -0.6281    1.0460   -2.9651 H         1 <0>         0.0943
     28 H4         -1.1183    1.7763   -1.4177 H         1 <0>         0.0925
     29 H5         -2.1803   -0.6717   -1.5294 H         1 <0>         0.4082
     30 H6          0.9026   -2.4093   -1.1100 H         1 <0>         0.1585
     31 H7          1.1247   -4.6841   -0.1995 H         1 <0>         0.1399
     32 H8         -3.0311   -4.7228    0.7656 H         1 <0>         0.1611
     33 H9         -3.5984   -1.3212   -0.1330 H         1 <0>         0.4089
     34 H10        -5.9250   -2.2583    2.1929 H         1 <0>         0.0774
     35 H11        -5.2435   -0.8325    1.3742 H         1 <0>         0.0717
     36 H12        -7.4090   -0.2743    2.4270 H         1 <0>         0.0855
     37 H13        -7.5322   -0.1685    0.6538 H         1 <0>         0.0707
     38 H14        -8.4397   -2.4978    2.4076 H         1 <0>         0.0790
     39 H15        -9.4873   -1.3676    1.5118 H         1 <0>         0.0960
     40 H16        -7.1749   -3.8757   -0.9334 H         1 <0>         0.1017
     41 H17        -6.9333   -4.1328    0.8139 H         1 <0>         0.0891
     42 H18        -8.5904   -1.6835   -2.4461 H         1 <0>         0.1261
     43 H19       -10.3598   -1.6417   -2.6350 H         1 <0>         0.1298
     44 H20        -9.5712   -0.6198   -1.4094 H         1 <0>         0.1274
@<TRIPOS>BOND
     1    1    2 1
     2    1   26 1
     3    1   27 1
     4    1   28 1
     5    2    3 2
     6    2    4 am
     7    4    5 1
     8    4   29 1
     9    5   10 ar
    10    5    6 ar
    11    6    7 ar
    12    6   30 1
    13    7    8 ar
    14    7   31 1
    15    8    9 ar
    16    8   25 1
    17    9   10 ar
    18    9   32 1
    19   10   11 1
    20   11   12 am
    21   11   33 1
    22   12   13 2
    23   12   14 1
    24   14   15 1
    25   14   20 1
    26   14   16 1
    27   16   17 1
    28   16   34 1
    29   16   35 1
    30   17   18 1
    31   17   36 1
    32   17   37 1
    33   18   19 1
    34   18   38 1
    35   18   39 1
    36   19   20 1
    37   19   21 1
    38   20   40 1
    39   20   41 1
    40   21   22 2
    41   21   23 2
    42   21   24 1
    43   24   42 1
    44   24   43 1
    45   24   44 1
@<TRIPOS>MOLECULE
ZINC50846904
   50    52     0     0     0
SMALL
USER_CHARGES

@<TRIPOS>ATOM
      1 C1         -0.0184    1.5028    0.0103 C.3       1 <0>        -0.1219
      2 C2          0.0021   -0.0041    0.0020 C.ar      1 <0>        -0.0758
      3 C3          0.0057   -0.6876   -1.2000 C.ar      1 <0>        -0.0884
      4 C4          0.0244   -2.0685   -1.2110 C.ar      1 <0>        -0.1012
      5 C5          0.0396   -2.7714   -0.0135 C.ar      1 <0>         0.1635
      6 C6          0.0359   -2.0836    1.1921 C.ar      1 <0>        -0.1215
      7 C7          0.0229   -0.7010    1.1972 C.ar      1 <0>        -0.0190
      8 Cl1         0.0260    0.1609    2.7041 Cl        1 <0>        -0.0522
      9 N1          0.0581   -4.1730   -0.0221 N.pl3     1 <0>        -0.3235
     10 C8          0.6957   -4.9660    0.8685 C.2       1 <0>         0.1086
     11 C9          0.4678   -6.2514    0.5122 C.2       1 <0>        -0.2154
     12 C10        -0.3352   -6.2450   -0.6336 C.2       1 <0>         0.1027
     13 N2         -0.5855   -5.0003   -0.9515 N.2       1 <0>        -0.2855
     14 C11        -0.8311   -7.4618   -1.3715 C.3       1 <0>        -0.0755
     15 C12         0.9876   -7.4740    1.2236 C.3       1 <0>        -0.0574
     16 C13        -0.0024   -7.9015    2.2765 C.2       1 <0>         0.5187
     17 O1         -1.0289   -7.2750    2.4336 O.2       1 <0>        -0.5219
     18 N3          0.2530   -8.9799    3.0434 N.am      1 <0>        -0.6202
     19 C14         1.4943   -9.7521    2.8753 C.3       1 <0>         0.0681
     20 C15         1.1274  -11.2347    2.7438 C.3       1 <0>         0.0456
     21 O2          0.2890  -11.6110    3.8389 O.3       1 <0>        -0.3485
     22 C16        -0.9609  -10.9185    3.8839 C.3       1 <0>         0.0600
     23 C17        -0.6984   -9.4164    4.0777 C.3       1 <0>         0.0906
     24 C18        -1.7823  -11.4368    5.0362 C.2       1 <0>         0.5265
     25 O3         -1.3074  -12.2474    5.8032 O.2       1 <0>        -0.5141
     26 N4         -3.0447  -10.9996    5.2143 N.am      1 <0>        -0.8497
     27 C19         1.5131   -4.5017    2.0463 C.3       1 <0>        -0.1020
     28 H1          1.0042    1.8801    0.0026 H         1 <0>         0.0797
     29 H2         -0.5455    1.8639   -0.8728 H         1 <0>         0.0750
     30 H3         -0.5286    1.8543    0.9071 H         1 <0>         0.0761
     31 H4         -0.0065   -0.1410   -2.1314 H         1 <0>         0.1437
     32 H5          0.0269   -2.6014   -2.1504 H         1 <0>         0.1408
     33 H6          0.0477   -2.6276    2.1250 H         1 <0>         0.1428
     34 H7         -1.7922   -7.7699   -0.9597 H         1 <0>         0.0804
     35 H8         -0.9484   -7.2230   -2.4285 H         1 <0>         0.0772
     36 H9         -0.1113   -8.2727   -1.2599 H         1 <0>         0.0772
     37 H10         1.1249   -8.2818    0.5048 H         1 <0>         0.1044
     38 H11         1.9422   -7.2415    1.6956 H         1 <0>         0.1015
     39 H12         2.0136   -9.4212    1.9759 H         1 <0>         0.1012
     40 H13         2.1365   -9.6085    3.7443 H         1 <0>         0.0845
     41 H14         0.5960  -11.3964    1.8060 H         1 <0>         0.0615
     42 H15         2.0357  -11.8371    2.7570 H         1 <0>         0.1169
     43 H16        -1.5000  -11.0791    2.9503 H         1 <0>         0.0918
     44 H17        -0.2732   -9.2396    5.0656 H         1 <0>         0.0830
     45 H18        -1.6318   -8.8631    3.9748 H         1 <0>         0.1074
     46 H19        -3.4245  -10.3513    4.6009 H         1 <0>         0.4037
     47 H20        -3.5734  -11.3333    5.9560 H         1 <0>         0.4095
     48 H21         0.8688   -4.4044    2.9201 H         1 <0>         0.0858
     49 H22         2.2983   -5.2290    2.2530 H         1 <0>         0.0877
     50 H23         1.9636   -3.5358    1.8177 H         1 <0>         0.0775
@<TRIPOS>BOND
     1    1    2 1
     2    1   28 1
     3    1   29 1
     4    1   30 1
     5    2    7 ar
     6    2    3 ar
     7    3    4 ar
     8    3   31 1
     9    4    5 ar
    10    4   32 1
    11    5    6 ar
    12    5    9 1
    13    6    7 ar
    14    6   33 1
    15    7    8 1
    16    9   13 1
    17    9   10 1
    18   10   11 2
    19   10   27 1
    20   11   12 1
    21   11   15 1
    22   12   13 2
    23   12   14 1
    24   14   34 1
    25   14   35 1
    26   14   36 1
    27   15   16 1
    28   15   37 1
    29   15   38 1
    30   16   17 2
    31   16   18 am
    32   18   23 1
    33   18   19 1
    34   19   20 1
    35   19   39 1
    36   19   40 1
    37   20   21 1
    38   20   41 1
    39   20   42 1
    40   21   22 1
    41   22   23 1
    42   22   24 1
    43   22   43 1
    44   23   44 1
    45   23   45 1
    46   24   25 2
    47   24   26 am
    48   26   46 1
    49   26   47 1
    50   27   48 1
    51   27   49 1
    52   27   50 1
@<TRIPOS>MOLECULE
ZINC04746998
   30    30     0     0     0
SMALL
USER_CHARGES
N-(4-amino-1,3-dimethyl-2,6-dioxo-pyrimidin-5-yl)-2,2,3,3,3-pentafluoro-propanamide
@<TRIPOS>ATOM
      1 C1          0.1573    2.1131    4.7393 C.3       1 <0>         0.0628
      2 N1         -0.6144    2.0549    3.4954 N.am      1 <0>        -0.5400
      3 C2         -1.9719    2.2755    3.5221 C.2       1 <0>         0.4948
      4 C3         -2.6871    2.2177    2.3435 C.2       1 <0>        -0.1612
      5 C4         -2.0019    1.9391    1.1460 C.2       1 <0>         0.5684
      6 O1         -2.6086    1.8871    0.0894 O.2       1 <0>        -0.5052
      7 N2         -0.6718    1.7263    1.1754 N.am      1 <0>        -0.5547
      8 C5          0.0088    1.7865    2.3337 C.2       1 <0>         0.7079
      9 O2          1.2096    1.5945    2.3311 O.2       1 <0>        -0.5271
     10 C6          0.0422    1.4318   -0.0695 C.3       1 <0>         0.0821
     11 N3         -4.0806    2.4393    2.3380 N.am      1 <0>        -0.6116
     12 C7         -4.9135    1.4859    1.8709 C.2       1 <0>         0.4929
     13 O3         -4.4733    0.4046    1.5406 O.2       1 <0>        -0.4468
     14 C8         -6.3903    1.7643    1.7595 C.3       1 <0>         0.2520
     15 C9         -7.1640    0.4459    1.8226 C.3       1 <0>         0.4442
     16 F1         -6.9002   -0.1918    3.0395 F         1 <0>        -0.1524
     17 F2         -8.5350    0.7043    1.7191 F         1 <0>        -0.1542
     18 F3         -6.7643   -0.3804    0.7668 F         1 <0>        -0.1382
     19 F4         -6.7901    2.5906    2.8152 F         1 <0>        -0.1531
     20 F5         -6.6541    2.4020    0.5425 F         1 <0>        -0.1365
     21 N4         -2.6085    2.5496    4.7089 N.pl3     1 <0>        -0.8264
     22 H1          1.2074    1.9147    4.5249 H         1 <0>         0.1177
     23 H2          0.0579    3.1039    5.1825 H         1 <0>         0.0849
     24 H3         -0.2192    1.3640    5.4358 H         1 <0>         0.0848
     25 H4          0.0596    0.3542   -0.2322 H         1 <0>         0.0758
     26 H5          1.0638    1.8053    0.0005 H         1 <0>         0.0926
     27 H6         -0.4657    1.9170   -0.9031 H         1 <0>         0.0957
     28 H7         -4.4398    3.2769    2.6701 H         1 <0>         0.4117
     29 H8         -2.1003    2.5885    5.5342 H         1 <0>         0.4138
     30 H9         -3.5660    2.7042    4.7212 H         1 <0>         0.4252
@<TRIPOS>BOND
     1    1    2 1
     2    1   22 1
     3    1   23 1
     4    1   24 1
     5    2    8 am
     6    2    3 1
     7    3    4 2
     8    3   21 1
     9    4    5 1
    10    4   11 1
    11    5    6 2
    12    5    7 am
    13    7    8 am
    14    7   10 1
    15    8    9 2
    16   10   25 1
    17   10   26 1
    18   10   27 1
    19   11   12 am
    20   11   28 1
    21   12   13 2
    22   12   14 1
    23   14   15 1
    24   14   19 1
    25   14   20 1
    26   15   16 1
    27   15   17 1
    28   15   18 1
    29   21   29 1
    30   21   30 1
@<TRIPOS>MOLECULE
ZINC34786054
   42    43     0     0     0
SMALL
USER_CHARGES

@<TRIPOS>ATOM
      1 C1          0.0402    1.5041    0.0160 C.3       1 <0>        -0.0990
      2 C2          0.0513   -0.0029    0.0074 C.2       1 <0>        -0.0682
      3 C3          0.0524   -0.7110   -1.1368 C.2       1 <0>        -0.2241
      4 S1          0.0676   -2.3989   -0.5740 S.3       1 <0>         0.2856
      5 C4          0.0721   -2.1574    1.0862 C.2       1 <0>         0.0606
      6 C5          0.0676   -0.7773    1.2277 C.2       1 <0>        -0.2454
      7 C6          0.0737   -0.1375    2.5466 C.2       1 <0>         0.5872
      8 O1         -0.9778    0.1198    3.1030 O.2       1 <0>        -0.5347
      9 N1          1.2436    0.1656    3.1431 N.am      1 <0>        -0.8483
     10 N2          0.0829   -3.1168    2.0872 N.am      1 <0>        -0.6329
     11 C7          0.0919   -4.4257    1.7660 C.2       1 <0>         0.7058
     12 O2         -0.0025   -4.7668    0.6029 O.2       1 <0>        -0.5479
     13 N3          0.2054   -5.3564    2.7342 N.am      1 <0>        -0.6182
     14 C8          0.1979   -4.9664    4.1511 C.3       1 <0>         0.0944
     15 C9         -0.9090   -5.7487    4.8689 C.3       1 <0>         0.0966
     16 N4         -0.7759   -7.1717    4.5266 N.am      1 <0>        -0.6170
     17 C10        -0.7684   -7.5617    3.1096 C.3       1 <0>         0.0850
     18 C11         0.3329   -6.7799    2.3920 C.3       1 <0>         0.1128
     19 C12        -0.6624   -8.1024    5.4947 C.2       1 <0>         0.5154
     20 O3         -0.7621   -7.7807    6.6598 O.2       1 <0>        -0.5409
     21 C13        -0.4115   -9.5428    5.1296 C.3       1 <0>        -0.1804
     22 C14         0.0430   -0.1980   -2.5537 C.3       1 <0>        -0.0646
     23 H1          1.0651    1.8750    0.0092 H         1 <0>         0.0717
     24 H2         -0.4840    1.8686   -0.8674 H         1 <0>         0.0741
     25 H3         -0.4686    1.8586    0.9124 H         1 <0>         0.0641
     26 H4          2.0816   -0.0395    2.6996 H         1 <0>         0.4034
     27 H5          1.2477    0.5890    4.0158 H         1 <0>         0.4028
     28 H6          0.0841   -2.8459    3.0186 H         1 <0>         0.4132
     29 H7          1.1627   -5.2020    4.6005 H         1 <0>         0.0856
     30 H8          0.0037   -3.8972    4.2353 H         1 <0>         0.0859
     31 H9         -0.8076   -5.6206    5.9465 H         1 <0>         0.1099
     32 H10        -1.8837   -5.3841    4.5447 H         1 <0>         0.0758
     33 H11        -0.5742   -8.6309    3.0255 H         1 <0>         0.1117
     34 H12        -1.7331   -7.3261    2.6602 H         1 <0>         0.0800
     35 H13         0.2277   -6.9081    1.3147 H         1 <0>         0.1138
     36 H14         1.3074   -7.1476    2.7133 H         1 <0>         0.0795
     37 H15        -0.4452   -9.6541    4.0458 H         1 <0>         0.0839
     38 H16         0.5698   -9.8448    5.4955 H         1 <0>         0.0986
     39 H17        -1.1778  -10.1714    5.5833 H         1 <0>         0.0977
     40 H18         1.0684   -0.0663   -2.8993 H         1 <0>         0.0760
     41 H19        -0.4677   -0.9150   -3.1964 H         1 <0>         0.0723
     42 H20        -0.4784    0.7586   -2.5904 H         1 <0>         0.0781
@<TRIPOS>BOND
     1    1    2 1
     2    1   23 1
     3    1   24 1
     4    1   25 1
     5    2    6 1
     6    2    3 2
     7    3    4 1
     8    3   22 1
     9    4    5 1
    10    5    6 2
    11    5   10 1
    12    6    7 1
    13    7    8 2
    14    7    9 am
    15    9   26 1
    16    9   27 1
    17   10   11 am
    18   10   28 1
    19   11   12 2
    20   11   13 am
    21   13   18 1
    22   13   14 1
    23   14   15 1
    24   14   29 1
    25   14   30 1
    26   15   16 1
    27   15   31 1
    28   15   32 1
    29   16   17 1
    30   16   19 am
    31   17   18 1
    32   17   33 1
    33   17   34 1
    34   18   35 1
    35   18   36 1
    36   19   20 2
    37   19   21 1
    38   21   37 1
    39   21   38 1
    40   21   39 1
    41   22   40 1
    42   22   41 1
    43   22   42 1
@<TRIPOS>MOLECULE
ZINC44886755
   36    37     0     0     0
SMALL
USER_CHARGES

@<TRIPOS>ATOM
      1 C1          0.0257    1.3771   -0.0179 C.3       1 <0>        -0.1910
      2 C2         -0.0812   -0.1326    0.2062 C.3       1 <0>         0.1875
      3 C3          0.5287   -0.8505   -0.9970 C.3       1 <0>        -0.1579
      4 C4          2.0440   -1.1040   -0.7622 C.3       1 <0>        -0.5589
      5 S1          2.0063   -1.5579    1.0275 S.o2      1 <0>         2.3630
      6 O1          3.1983   -1.1001    1.6510 O.2       1 <0>        -0.9326
      7 O2          1.6245   -2.9206    1.1561 O.2       1 <0>        -0.9241
      8 C5          0.6026   -0.4832    1.5421 C.3       1 <0>        -0.5822
      9 N1         -1.4982   -0.4934    0.2952 N.pl3     1 <0>        -1.1094
     10 S2         -2.5148   -0.1760   -0.9729 S.o2      1 <0>         2.6862
     11 O3         -1.8491   -0.6188   -2.1477 O.2       1 <0>        -0.9470
     12 O4         -3.7971   -0.6586   -0.5962 O.2       1 <0>        -0.9461
     13 C6         -2.6542    1.5757   -1.1030 C.ar      1 <0>        -0.6997
     14 C7         -2.2036    2.2215   -2.2364 C.ar      1 <0>         0.0278
     15 C8         -2.3105    3.5953   -2.3435 C.ar      1 <0>        -0.1908
     16 C9         -2.8723    4.3364   -1.3101 C.ar      1 <0>         0.2719
     17 C10        -3.3281    3.6976   -0.1673 C.ar      1 <0>        -0.1669
     18 C11        -3.2257    2.3099   -0.0618 C.ar      1 <0>         0.1270
     19 C12        -3.6995    1.6417    1.1128 C.1       1 <0>         0.2133
     20 N2         -4.0753    1.1117    2.0446 N.1       1 <0>        -0.3565
     21 N3         -2.9772    5.7249   -1.4230 N.pl3     1 <0>        -0.8596
     22 H1          1.0655    1.6871    0.0859 H         1 <0>         0.0873
     23 H2         -0.3282    1.6217   -1.0194 H         1 <0>         0.0772
     24 H3         -0.5842    1.8980    0.7202 H         1 <0>         0.0787
     25 H4          0.0218   -1.8044   -1.1427 H         1 <0>         0.1069
     26 H5          0.3997   -0.2353   -1.8875 H         1 <0>         0.1237
     27 H6          2.4083   -1.9293   -1.3738 H         1 <0>         0.1481
     28 H7          2.6289   -0.1997   -0.9305 H         1 <0>         0.1431
     29 H8          0.9683    0.4175    2.0351 H         1 <0>         0.1539
     30 H9         -0.0810   -1.0286    2.1927 H         1 <0>         0.1494
     31 H10        -1.8411   -0.9182    1.0970 H         1 <0>         0.4241
     32 H11        -1.7655    1.6514   -3.0424 H         1 <0>         0.1558
     33 H12        -1.9560    4.0949   -3.2330 H         1 <0>         0.1411
     34 H13        -3.7645    4.2714    0.6368 H         1 <0>         0.1414
     35 H14        -2.6580    6.1719   -2.2225 H         1 <0>         0.4083
     36 H15        -3.3692    6.2419   -0.7020 H         1 <0>         0.4068
@<TRIPOS>BOND
     1    1    2 1
     2    1   22 1
     3    1   23 1
     4    1   24 1
     5    2    8 1
     6    2    3 1
     7    2    9 1
     8    3    4 1
     9    3   25 1
    10    3   26 1
    11    4    5 1
    12    4   27 1
    13    4   28 1
    14    5    6 2
    15    5    7 2
    16    5    8 1
    17    8   29 1
    18    8   30 1
    19    9   10 1
    20    9   31 1
    21   10   11 2
    22   10   12 2
    23   10   13 1
    24   13   18 ar
    25   13   14 ar
    26   14   15 ar
    27   14   32 1
    28   15   16 ar
    29   15   33 1
    30   16   17 ar
    31   16   21 1
    32   17   18 ar
    33   17   34 1
    34   18   19 1
    35   19   20 3
    36   21   35 1
    37   21   36 1
@<TRIPOS>MOLECULE
ZINC51988484
   35    37     0     0     0
SMALL
USER_CHARGES

@<TRIPOS>ATOM
      1 C1          0.5572    1.4101    0.2673 C.ar      1 <0>        -0.1535
      2 C2          1.8342    1.9405    0.2828 C.ar      1 <0>        -0.0766
      3 C3          2.9287    1.1039    0.2065 C.ar      1 <0>        -0.1520
      4 C4          2.7523   -0.2731    0.1126 C.ar      1 <0>         0.1436
      5 C5          1.4732   -0.8007    0.0937 C.ar      1 <0>        -0.1798
      6 C6          0.3784    0.0439    0.1734 C.ar      1 <0>        -0.0648
      7 C7          1.2375   -2.2856   -0.0184 C.3       1 <0>         0.2029
      8 H1          0.9491   -2.5309   -1.0405 H         1 <0>         0.1018
      9 C8          2.5191   -3.0400    0.3442 C.3       1 <0>        -0.1740
     10 C9          3.6859   -2.4040   -0.4220 C.3       1 <0>         0.0637
     11 O1          3.8542   -1.0646    0.0446 O.3       1 <0>        -0.3134
     12 N1          0.1650   -2.6795    0.8986 N.pl3     1 <0>        -1.1069
     13 S1         -1.1535   -3.5018    0.3262 S.o2      1 <0>         2.7090
     14 O2         -1.9919   -3.7545    1.4453 O.2       1 <0>        -0.9506
     15 O3         -1.6062   -2.7954   -0.8207 O.2       1 <0>        -0.9485
     16 C10        -0.5838   -5.0699   -0.2405 C.ar      1 <0>        -0.8572
     17 C11        -0.1650   -5.2398   -1.5508 C.ar      1 <0>         0.2938
     18 N2          0.2569   -6.4302   -1.9441 N.ar      1 <0>        -0.5747
     19 C12         0.2817   -7.4524   -1.1015 C.ar      1 <0>         0.6030
     20 N3         -0.1121   -7.3236    0.1569 N.ar      1 <0>        -0.5755
     21 C13        -0.5394   -6.1589    0.6158 C.ar      1 <0>         0.2997
     22 N4          0.7291   -8.6842   -1.5467 N.pl3     1 <0>        -0.8030
     23 H2         -0.3000    2.0638    0.3330 H         1 <0>         0.1274
     24 H3          1.9748    3.0089    0.3543 H         1 <0>         0.1310
     25 H4          3.9256    1.5192    0.2193 H         1 <0>         0.1324
     26 H5         -0.6200   -0.3679    0.1620 H         1 <0>         0.1263
     27 H6          2.6990   -2.9643    1.4166 H         1 <0>         0.0908
     28 H7          2.4212   -4.0879    0.0606 H         1 <0>         0.0857
     29 H8          4.5977   -2.9731   -0.2409 H         1 <0>         0.1135
     30 H9          3.4635   -2.3958   -1.4890 H         1 <0>         0.0696
     31 H10         0.2272   -2.4586    1.8411 H         1 <0>         0.4239
     32 H11        -0.1832   -4.4105   -2.2423 H         1 <0>         0.1840
     33 H12        -0.8545   -6.0588    1.6440 H         1 <0>         0.1859
     34 H13         1.0198   -8.7913   -2.4659 H         1 <0>         0.4211
     35 H14         0.7520   -9.4403   -0.9395 H         1 <0>         0.4212
@<TRIPOS>BOND
     1    1    6 ar
     2    1    2 ar
     3    1   23 1
     4    2    3 ar
     5    2   24 1
     6    3    4 ar
     7    3   25 1
     8    4   11 1
     9    4    5 ar
    10    5    6 ar
    11    5    7 1
    12    6   26 1
    13    7    8 1
    14    7    9 1
    15    7   12 1
    16    9   10 1
    17    9   27 1
    18    9   28 1
    19   10   11 1
    20   10   29 1
    21   10   30 1
    22   12   13 1
    23   12   31 1
    24   13   14 2
    25   13   15 2
    26   13   16 1
    27   16   21 ar
    28   16   17 ar
    29   17   18 ar
    30   17   32 1
    31   18   19 ar
    32   19   20 ar
    33   19   22 1
    34   20   21 ar
    35   21   33 1
    36   22   34 1
    37   22   35 1
@<TRIPOS>MOLECULE
ZINC63515352
   35    37     0     0     0
SMALL
USER_CHARGES

@<TRIPOS>ATOM
      1 C1         -0.0225    1.8097    0.0120 C.3       1 <0>        -0.1507
      2 S1          0.0021   -0.0041    0.0020 S.3       1 <0>         0.0525
      3 C2          0.8484   -0.4107   -1.4889 C.2       1 <0>         0.4215
      4 N1          1.2696    0.5904   -2.2424 N.2       1 <0>        -0.6338
      5 C3          1.9774    0.3916   -3.3564 C.2       1 <0>         0.5265
      6 O1          2.3380    1.3174   -4.0570 O.2       1 <0>        -0.4221
      7 C4          2.3095   -1.0448   -3.7042 C.3       1 <0>        -0.1998
      8 H1          3.3922   -1.1695   -3.6858 H         1 <0>         0.1483
      9 C5          1.8087   -1.3226   -5.1229 C.3       1 <0>        -0.0278
     10 H2          0.7193   -1.2919   -5.1388 H         1 <0>         0.0984
     11 C6          2.2898   -2.7122   -5.5480 C.3       1 <0>        -0.1354
     12 C7          1.9910   -3.7327   -4.4882 C.2       1 <0>         0.5312
     13 O2          1.9845   -4.9047   -4.7983 O.2       1 <0>        -0.4826
     14 N2          1.7311   -3.4053   -3.2117 N.am      1 <0>        -0.6264
     15 C8          1.6791   -2.1031   -2.8179 C.2       1 <0>         0.4987
     16 N3          1.0188   -1.7088   -1.7666 N.2       1 <0>        -0.5721
     17 C9          2.3578   -0.2830   -6.0656 C.ar      1 <0>        -0.0658
     18 C10         3.7248   -0.1462   -6.2211 C.ar      1 <0>        -0.0953
     19 C11         4.2335    0.8059   -7.0847 C.ar      1 <0>        -0.1218
     20 C12         3.3728    1.6254   -7.7972 C.ar      1 <0>         0.0884
     21 C13         1.9969    1.4873   -7.6411 C.ar      1 <0>         0.0896
     22 C14         1.4935    0.5278   -6.7775 C.ar      1 <0>        -0.1085
     23 O3          1.1481    2.2892   -8.3382 O.3       1 <0>        -0.4860
     24 O4          3.8715    2.5628   -8.6469 O.3       1 <0>        -0.4872
     25 H3          1.0001    2.1870    0.0043 H         1 <0>         0.0967
     26 H4         -0.5497    2.1708   -0.8711 H         1 <0>         0.0977
     27 H5         -0.5327    2.1613    0.9088 H         1 <0>         0.1167
     28 H6          1.7870   -2.9979   -6.4719 H         1 <0>         0.1297
     29 H7          3.3654   -2.6809   -5.7217 H         1 <0>         0.1253
     30 H8          1.5907   -4.1056   -2.5554 H         1 <0>         0.4293
     31 H9          4.3967   -0.7842   -5.6663 H         1 <0>         0.1256
     32 H10         5.3017    0.9113   -7.2037 H         1 <0>         0.1351
     33 H11         0.4261    0.4160   -6.6573 H         1 <0>         0.1294
     34 H12         0.8870    1.9323   -9.1982 H         1 <0>         0.3871
     35 H13         4.0005    2.2453   -9.5511 H         1 <0>         0.3878
@<TRIPOS>BOND
     1    1    2 1
     2    1   25 1
     3    1   26 1
     4    1   27 1
     5    2    3 1
     6    3   16 1
     7    3    4 2
     8    4    5 1
     9    5    6 2
    10    5    7 1
    11    7    8 1
    12    7   15 1
    13    7    9 1
    14    9   10 1
    15    9   11 1
    16    9   17 1
    17   11   12 1
    18   11   28 1
    19   11   29 1
    20   12   13 2
    21   12   14 am
    22   14   15 1
    23   14   30 1
    24   15   16 2
    25   17   22 ar
    26   17   18 ar
    27   18   19 ar
    28   18   31 1
    29   19   20 ar
    30   19   32 1
    31   20   21 ar
    32   20   24 1
    33   21   22 ar
    34   21   23 1
    35   22   33 1
    36   23   34 1
    37   24   35 1
@<TRIPOS>MOLECULE
ZINC20278292
   28    28     0     0     0
SMALL
USER_CHARGES
N'-(2-methoxyethyl)-5-(trifluoromethyl)pyridine-2,3-diamine
@<TRIPOS>ATOM
      1 C1          3.3604    5.8659   -1.2769 C.3       1 <0>         0.0270
      2 O1          2.0097    5.4106   -1.1758 O.3       1 <0>        -0.3883
      3 C2          1.3670    5.7652    0.0503 C.3       1 <0>         0.0474
      4 C3         -0.0661    5.2293    0.0485 C.3       1 <0>         0.1302
      5 N1         -0.0396    3.7646    0.0344 N.pl3     1 <0>        -0.7458
      6 C4         -1.2393    3.0428    0.0303 C.ar      1 <0>         0.1140
      7 C5         -2.4602    3.7044    0.0348 C.ar      1 <0>        -0.0869
      8 C6         -3.6232    2.9461    0.0361 C.ar      1 <0>        -0.2540
      9 C7         -3.5336    1.5689    0.0278 C.ar      1 <0>         0.1457
     10 N2         -2.3599    0.9639    0.0185 N.ar      1 <0>        -0.5167
     11 C8         -1.2267    1.6458    0.0168 C.ar      1 <0>         0.3923
     12 N3         -0.0111    0.9658    0.0074 N.pl3     1 <0>        -0.8670
     13 C9         -4.9708    3.6204    0.0462 C.3       1 <0>         0.5202
     14 F1         -5.9782    2.6496    0.0452 F         1 <0>        -0.1775
     15 F2         -5.0875    4.4123    1.1936 F         1 <0>        -0.1794
     16 F3         -5.0979    4.4255   -1.0909 F         1 <0>        -0.1790
     17 H1          3.7811    5.5539   -2.2442 H         1 <0>         0.0897
     18 H2          3.9560    5.4311   -0.4607 H         1 <0>         0.0433
     19 H3          3.3839    6.9632   -1.2036 H         1 <0>         0.0442
     20 H4          1.9208    5.3282    0.8943 H         1 <0>         0.0581
     21 H5          1.3488    6.8604    0.1514 H         1 <0>         0.0682
     22 H6         -0.5890    5.5779    0.9513 H         1 <0>         0.0754
     23 H7         -0.5933    5.5952   -0.8449 H         1 <0>         0.0693
     24 H8          0.9228    3.2320    0.0270 H         1 <0>         0.4149
     25 H9         -2.5041    4.7835    0.0412 H         1 <0>         0.1380
     26 H10        -4.4370    0.9771    0.0285 H         1 <0>         0.1652
     27 H11         0.0038   -0.1340   -0.0032 H         1 <0>         0.4314
     28 H12         0.9340    1.5286    0.0106 H         1 <0>         0.4202
@<TRIPOS>BOND
     1    1    2 1
     2    1   17 1
     3    1   18 1
     4    1   19 1
     5    2    3 1
     6    3    4 1
     7    3   20 1
     8    3   21 1
     9    4    5 1
    10    4   22 1
    11    4   23 1
    12    5    6 1
    13    5   24 1
    14    6   11 ar
    15    6    7 ar
    16    7    8 ar
    17    7   25 1
    18    8    9 ar
    19    8   13 1
    20    9   10 ar
    21    9   26 1
    22   10   11 ar
    23   11   12 1
    24   12   27 1
    25   12   28 1
    26   13   14 1
    27   13   15 1
    28   13   16 1
@<TRIPOS>MOLECULE
ZINC00567025
   33    33     0     0     0
SMALL
USER_CHARGES

@<TRIPOS>ATOM
      1 C1         -1.7577    0.8959   -0.3003 C.3       1 <0>        -0.1128
      2 C2         -0.8454   -0.2937   -0.1458 C.ar      1 <0>        -0.0870
      3 C3         -0.0382   -0.6849   -1.1981 C.ar      1 <0>        -0.0925
      4 C4          0.8004   -1.7757   -1.0626 C.ar      1 <0>        -0.1379
      5 C5          0.8341   -2.4800    0.1300 C.ar      1 <0>         0.0992
      6 C6          0.0215   -2.0861    1.1907 C.ar      1 <0>         0.0943
      7 C7         -0.8137   -0.9874    1.0490 C.ar      1 <0>        -0.0531
      8 N1          0.0513   -2.7945    2.3990 N.pl3     1 <0>        -0.6158
      9 C8          0.1499   -2.1300    3.5674 C.2       1 <0>         0.5097
     10 S1          0.1276   -0.4182    3.5832 S.2       1 <0>        -0.4938
     11 N2          0.2662   -2.8131    4.7234 N.am      1 <0>        -0.6427
     12 C9          0.3649   -2.1486    5.8918 C.2       1 <0>         0.4874
     13 O1          0.3490   -0.9363    5.9030 O.2       1 <0>        -0.4014
     14 C10         0.4949   -2.9125    7.1844 C.3       1 <0>        -0.1084
     15 C11         1.7576   -3.7753    7.1421 C.3       1 <0>        -0.1492
     16 C12         0.5890   -1.9276    8.3515 C.3       1 <0>        -0.1370
     17 O2          1.6581   -3.5533    0.2647 O.3       1 <0>        -0.4976
     18 H1         -1.2294    1.8004    0.0012 H         1 <0>         0.0746
     19 H2         -2.0653    0.9850   -1.3421 H         1 <0>         0.0681
     20 H3         -2.6381    0.7627    0.3284 H         1 <0>         0.0679
     21 H4         -0.0631   -0.1371   -2.1285 H         1 <0>         0.1312
     22 H5          1.4291   -2.0790   -1.8866 H         1 <0>         0.1351
     23 H6         -1.4417   -0.6768    1.8708 H         1 <0>         0.1473
     24 H7          0.0009   -3.7631    2.3947 H         1 <0>         0.4104
     25 H8          0.2789   -3.7830    4.7144 H         1 <0>         0.4104
     26 H9         -0.3778   -3.5518    7.3179 H         1 <0>         0.1029
     27 H10         1.8517   -4.3278    8.0770 H         1 <0>         0.0763
     28 H11         1.6906   -4.4769    6.3106 H         1 <0>         0.0564
     29 H12         2.6303   -3.1360    7.0085 H         1 <0>         0.0655
     30 H13        -0.3107   -1.3129    8.3816 H         1 <0>         0.0665
     31 H14         0.6830   -2.4801    9.2864 H         1 <0>         0.0686
     32 H15         1.4616   -1.2883    8.2179 H         1 <0>         0.0666
     33 H16         2.5387   -3.3337    0.5985 H         1 <0>         0.3908
@<TRIPOS>BOND
     1    1    2 1
     2    1   18 1
     3    1   19 1
     4    1   20 1
     5    2    7 ar
     6    2    3 ar
     7    3    4 ar
     8    3   21 1
     9    4    5 ar
    10    4   22 1
    11    5    6 ar
    12    5   17 1
    13    6    7 ar
    14    6    8 1
    15    7   23 1
    16    8    9 1
    17    8   24 1
    18    9   10 2
    19    9   11 1
    20   11   12 am
    21   11   25 1
    22   12   13 2
    23   12   14 1
    24   14   15 1
    25   14   16 1
    26   14   26 1
    27   15   27 1
    28   15   28 1
    29   15   29 1
    30   16   30 1
    31   16   31 1
    32   16   32 1
    33   17   33 1
@<TRIPOS>MOLECULE
ZINC41832677
   34    34     0     0     0
SMALL
USER_CHARGES

@<TRIPOS>ATOM
      1 C1         -1.2941    1.4929   -1.2331 C.3       1 <0>        -0.1353
      2 C2         -1.2799   -0.0140   -1.2515 C.2       1 <0>        -0.1052
      3 C3         -0.2748   -0.6645   -1.8401 C.2       1 <0>        -0.1675
      4 C4         -0.2610   -2.1276   -1.8580 C.2       1 <0>        -0.0121
      5 C5          0.7575   -2.7868   -2.4545 C.2       1 <0>        -0.2281
      6 C6          0.7713   -4.2488   -2.4723 C.2       1 <0>         0.5475
      7 O1         -0.1344   -4.8725   -1.9501 O.2       1 <0>        -0.5230
      8 N1          1.7867   -4.9060   -3.0669 N.am      1 <0>        -0.6652
      9 C7          1.8608   -6.2997   -2.9846 C.ar      1 <0>         0.1660
     10 C8          1.2553   -6.9678   -1.9278 C.ar      1 <0>        -0.1302
     11 C9          1.3304   -8.3444   -1.8494 C.ar      1 <0>        -0.0961
     12 C10         2.0075   -9.0580   -2.8217 C.ar      1 <0>        -0.1371
     13 C11         2.6112   -8.3961   -3.8749 C.ar      1 <0>        -0.0862
     14 C12         2.5350   -7.0197   -3.9623 C.ar      1 <0>        -0.1043
     15 C13         3.1880   -6.2997   -5.1139 C.3       1 <0>        -0.1044
     16 C14         4.5649   -5.8435   -4.7052 C.2       1 <0>         0.5097
     17 O2          4.9756   -6.0798   -3.5888 O.2       1 <0>        -0.5266
     18 N2          5.3400   -5.1729   -5.5804 N.am      1 <0>        -0.8577
     19 H1         -0.4061    1.8583   -0.7173 H         1 <0>         0.0732
     20 H2         -1.3005    1.8687   -2.2562 H         1 <0>         0.0731
     21 H3         -2.1860    1.8415   -0.7123 H         1 <0>         0.0674
     22 H4         -2.0835   -0.5672   -0.7882 H         1 <0>         0.1172
     23 H5          0.5287   -0.1112   -2.3034 H         1 <0>         0.1209
     24 H6         -1.0646   -2.6809   -1.3947 H         1 <0>         0.1315
     25 H7          1.5611   -2.2335   -2.9178 H         1 <0>         0.1295
     26 H8          2.4661   -4.4120   -3.5520 H         1 <0>         0.4076
     27 H9          0.7268   -6.4111   -1.1681 H         1 <0>         0.1457
     28 H10         0.8602   -8.8643   -1.0279 H         1 <0>         0.1260
     29 H11         2.0650  -10.1346   -2.7579 H         1 <0>         0.1241
     30 H12         3.1391   -8.9563   -4.6324 H         1 <0>         0.1242
     31 H13         3.2669   -6.9743   -5.9664 H         1 <0>         0.1104
     32 H14         2.5855   -5.4343   -5.3898 H         1 <0>         0.0995
     33 H15         5.0116   -4.9839   -6.4733 H         1 <0>         0.4023
     34 H16         6.2263   -4.8793   -5.3174 H         1 <0>         0.4033
@<TRIPOS>BOND
     1    1    2 1
     2    1   19 1
     3    1   20 1
     4    1   21 1
     5    2    3 2
     6    2   22 1
     7    3    4 1
     8    3   23 1
     9    4    5 2
    10    4   24 1
    11    5    6 1
    12    5   25 1
    13    6    7 2
    14    6    8 am
    15    8    9 1
    16    8   26 1
    17    9   14 ar
    18    9   10 ar
    19   10   11 ar
    20   10   27 1
    21   11   12 ar
    22   11   28 1
    23   12   13 ar
    24   12   29 1
    25   13   14 ar
    26   13   30 1
    27   14   15 1
    28   15   16 1
    29   15   31 1
    30   15   32 1
    31   16   17 2
    32   16   18 am
    33   18   33 1
    34   18   34 1
@<TRIPOS>MOLECULE
ZINC50988215
   37    38     0     0     0
SMALL
NO_CHARGES

@<TRIPOS>ATOM
      1 C1         -0.0187    1.5258    0.0104 C.3       1 <0>        -0.1518
      2 C2          0.0021   -0.0041    0.0020 C.3       1 <0>        -0.1355
      3 C3          0.7421   -0.5109    1.2415 C.3       1 <0>         0.1032
      4 N1          0.7619   -1.9757    1.2335 N.pl3     1 <0>        -0.3438
      5 C4          1.7369   -2.7422    0.6601 C.cat     1 <0>         0.0207
      6 N2          1.5312   -4.0056    0.7846 N.pl3     1 <0>        -0.6695
      7 C5          0.2750   -4.1953    1.5263 C.3       1 <0>         0.2891
      8 C6         -0.1972   -2.7817    1.8084 C.cat     1 <0>        -0.0310
      9 N3         -1.2615   -2.4151    2.4431 N.pl3     1 <0>        -0.8245
     10 C7          0.5287   -4.9305    2.8171 C.ar      1 <0>        -0.1571
     11 C8         -0.3701   -5.8844    3.2701 C.ar      1 <0>        -0.0741
     12 C9         -0.0958   -6.5356    4.4628 C.ar      1 <0>        -0.1743
     13 C10         1.0562   -6.2147    5.1559 C.ar      1 <0>         0.0885
     14 N4          1.8883   -5.3015    4.6951 N.ar      1 <0>        -0.4885
     15 C11         1.6627   -4.6666    3.5614 C.ar      1 <0>         0.1208
     16 C12         2.9345   -2.1642   -0.0489 C.3       1 <0>        -0.0259
     17 C13         4.0733   -1.9648    0.9532 C.3       1 <0>        -0.1509
     18 H1          1.0039    1.9031    0.0027 H         1 <0>         0.0579
     19 H2         -0.5459    1.8868   -0.8726 H         1 <0>         0.0620
     20 H3         -0.5289    1.8773    0.9072 H         1 <0>         0.0567
     21 H4         -1.0205   -0.3814    0.0098 H         1 <0>         0.0699
     22 H5          0.5123   -0.3556   -0.8948 H         1 <0>         0.0711
     23 H6          1.7647   -0.1336    1.2338 H         1 <0>         0.0903
     24 H7          0.2319   -0.1594    2.1383 H         1 <0>         0.0839
     25 H8         -1.4575   -1.4720    2.5573 H         1 <0>         0.3852
     26 H9         -0.4515   -4.7331    0.9172 H         1 <0>         0.0472
     27 H10        -1.2627   -6.1143    2.7072 H         1 <0>         0.1302
     28 H11        -0.7738   -7.2840    4.8457 H         1 <0>         0.1317
     29 H12         1.2772   -6.7174    6.0859 H         1 <0>         0.1513
     30 H13         2.3700   -3.9286    3.2130 H         1 <0>         0.1486
     31 H14         3.2570   -2.8482   -0.8340 H         1 <0>         0.0715
     32 H15         2.6669   -1.2043   -0.4906 H         1 <0>         0.0645
     33 H16         4.9395   -1.5467    0.4403 H         1 <0>         0.0538
     34 H17         3.7508   -1.2808    1.7383 H         1 <0>         0.0492
     35 H18         4.3409   -2.9247    1.3949 H         1 <0>         0.0550
     36 H19        -1.8644   -3.0830    2.8053 H         1 <0>         0.4023
     37 H20         2.1050   -4.7113    0.4475 H         1 <0>         0.4221
@<TRIPOS>BOND
     1    1    2 1
     2    1   18 1
     3    1   19 1
     4    1   20 1
     5    2    3 1
     6    2   21 1
     7    2   22 1
     8    3   23 1
     9    3   24 1
    10    3    4 1
    11    4    5 1
    12    4    8 1
    13    5    6 2
    14    5   16 1
    15    6    7 1
    16    6   37 1
    17    7   10 1
    18    7   26 1
    19    7    8 1
    20    8    9 2
    21    9   25 1
    22    9   36 1
    23   10   15 ar
    24   10   11 ar
    25   11   12 ar
    26   11   27 1
    27   12   13 ar
    28   12   28 1
    29   13   14 ar
    30   13   29 1
    31   14   15 ar
    32   15   30 1
    33   16   17 1
    34   16   31 1
    35   16   32 1
    36   17   33 1
    37   17   34 1
    38   17   35 1
@<TRIPOS>MOLECULE
ZINC58090781
   31    31     0     0     0
SMALL
USER_CHARGES

@<TRIPOS>ATOM
      1 C1          0.5394    1.4551   -0.0935 C.3       1 <0>        -0.1204
      2 C2          0.2694   -0.0268   -0.0477 C.ar      1 <0>        -0.0917
      3 C3          0.0435   -0.7240   -1.2215 C.ar      1 <0>        -0.0814
      4 C4         -0.2056   -2.0843   -1.1882 C.ar      1 <0>        -0.1265
      5 C5         -0.2297   -2.7550    0.0174 C.ar      1 <0>        -0.0893
      6 C6         -0.0021   -2.0580    1.2048 C.ar      1 <0>        -0.1365
      7 C7          0.2537   -0.6863    1.1637 C.ar      1 <0>        -0.0129
      8 C8          0.5066    0.0734    2.4404 C.3       1 <0>        -0.1290
      9 C9         -0.0264   -2.7702    2.5002 C.2       1 <0>         0.5685
     10 O1          0.0598   -2.1452    3.5391 O.2       1 <0>        -0.5085
     11 N1         -0.1443   -4.1125    2.5291 N.am      1 <0>        -0.5484
     12 N2         -0.1673   -4.7874    3.7566 N.pl3     1 <0>        -0.4687
     13 C10        -0.2852   -6.1297    3.7854 C.2       1 <0>         0.5573
     14 S1         -0.3133   -6.9545    5.2854 S.2       1 <0>        -0.5853
     15 N3         -0.3808   -6.8227    2.6335 N.pl3     1 <0>        -0.6883
     16 C11        -0.5089   -8.2818    2.6649 C.3       1 <0>         0.0885
     17 H1          1.6113    1.6262   -0.1928 H         1 <0>         0.0758
     18 H2          0.0211    1.8927   -0.9467 H         1 <0>         0.0714
     19 H3          0.1812    1.9183    0.8258 H         1 <0>         0.0746
     20 H4          0.0612   -0.2037   -2.1677 H         1 <0>         0.1322
     21 H5         -0.3819   -2.6225   -2.1078 H         1 <0>         0.1335
     22 H6         -0.4246   -3.8170    0.0421 H         1 <0>         0.1206
     23 H7         -0.4455    0.3409    2.8987 H         1 <0>         0.0800
     24 H8          1.0779   -0.5508    3.1275 H         1 <0>         0.0939
     25 H9          1.0703    0.9795    2.2185 H         1 <0>         0.0673
     26 H10        -0.2131   -4.6113    1.7000 H         1 <0>         0.4183
     27 H11        -0.0985   -4.2887    4.5856 H         1 <0>         0.4598
     28 H12        -0.3649   -6.3555    1.7836 H         1 <0>         0.3915
     29 H13        -0.5731   -8.6629    1.6457 H         1 <0>         0.0853
     30 H14         0.3616   -8.7124    3.1597 H         1 <0>         0.0844
     31 H15        -1.4106   -8.5557    3.2126 H         1 <0>         0.0843
@<TRIPOS>BOND
     1    1    2 1
     2    1   17 1
     3    1   18 1
     4    1   19 1
     5    2    7 ar
     6    2    3 ar
     7    3    4 ar
     8    3   20 1
     9    4    5 ar
    10    4   21 1
    11    5    6 ar
    12    5   22 1
    13    6    7 ar
    14    6    9 1
    15    7    8 1
    16    8   23 1
    17    8   24 1
    18    8   25 1
    19    9   10 2
    20    9   11 am
    21   11   12 1
    22   11   26 1
    23   12   13 1
    24   12   27 1
    25   13   14 2
    26   13   15 1
    27   15   16 1
    28   15   28 1
    29   16   29 1
    30   16   30 1
    31   16   31 1
@<TRIPOS>MOLECULE
ZINC19702731
   26    28     0     0     0
SMALL
USER_CHARGES
5-amino-2-(3-methyl-[1,2,4]triazolo[4,3-d][1,3,4]thiadiazol-6-yl)phenol
@<TRIPOS>ATOM
      1 C1         -9.4589    2.7003    0.0589 C.3       1 <0>        -0.0706
      2 C2         -8.6479    3.9705    0.0621 C.2       1 <0>         0.2348
      3 N1         -9.1246    5.1838    0.0703 N.2       1 <0>        -0.2634
      4 N2         -8.1599    6.0368    0.0706 N.2       1 <0>        -0.2300
      5 C3         -7.0257    5.4041    0.0626 C.2       1 <0>         0.0872
      6 N3         -7.2706    4.0531    0.0567 N.pl3     1 <0>        -0.3478
      7 N4         -6.1592    3.2207    0.0424 N.2       1 <0>        -0.2934
      8 C4         -4.9452    3.7119    0.0452 C.2       1 <0>         0.2163
      9 S1         -5.2517    5.4714    0.0555 S.3       1 <0>         0.1686
     10 C5         -3.6533    2.9944    0.0357 C.ar      1 <0>        -0.1452
     11 C6         -3.6278    1.5989    0.0279 C.ar      1 <0>         0.0293
     12 C7         -2.4225    0.9323    0.0186 C.ar      1 <0>        -0.2433
     13 C8         -1.2280    1.6465    0.0168 C.ar      1 <0>         0.3008
     14 C9         -1.2445    3.0352    0.0302 C.ar      1 <0>        -0.3069
     15 C10        -2.4510    3.7129    0.0339 C.ar      1 <0>         0.2571
     16 O1         -2.4692    5.0707    0.0413 O.3       1 <0>        -0.5016
     17 N5         -0.0111    0.9658    0.0074 N.pl3     1 <0>        -0.8824
     18 H1        -10.5303    2.9494    0.0647 H         1 <0>         0.1036
     19 H2         -9.2154    2.1075    0.9529 H         1 <0>         0.0884
     20 H3         -9.2230    2.1169   -0.8433 H         1 <0>         0.0884
     21 H4         -4.5530    1.0418    0.0297 H         1 <0>         0.1417
     22 H5         -2.4044   -0.1475    0.0123 H         1 <0>         0.1332
     23 H6         -0.3156    3.5863    0.0332 H         1 <0>         0.1362
     24 H7         -1.5240    5.6334    0.0399 H         1 <0>         0.4491
     25 H8          0.9340    1.5287    0.0060 H         1 <0>         0.4237
     26 H9          0.0038   -0.1341    0.0014 H         1 <0>         0.4261
@<TRIPOS>BOND
     1    1    2 1
     2    1   18 1
     3    1   19 1
     4    1   20 1
     5    2    6 1
     6    2    3 2
     7    3    4 1
     8    4    5 2
     9    5    9 1
    10    5    6 1
    11    6    7 1
    12    7    8 2
    13    8    9 1
    14    8   10 1
    15   10   15 ar
    16   10   11 ar
    17   11   12 ar
    18   11   21 1
    19   12   13 ar
    20   12   22 1
    21   13   14 ar
    22   13   17 1
    23   14   15 ar
    24   14   23 1
    25   15   16 1
    26   16   24 1
    27   17   25 1
    28   17   26 1
@<TRIPOS>MOLECULE
ZINC40291954
   35    35     0     0     0
SMALL
USER_CHARGES

@<TRIPOS>ATOM
      1 C1         -0.0184    1.5028    0.0103 C.3       1 <0>        -0.1248
      2 C2          0.0021   -0.0041    0.0020 C.ar      1 <0>        -0.0081
      3 C3          0.0062   -0.7122   -1.1884 C.ar      1 <0>         0.0360
      4 N1          0.0237   -2.0307   -1.1738 N.ar      1 <0>        -0.1922
      5 N2          0.0379   -2.7098   -0.0856 N.ar      1 <0>        -0.2881
      6 C4          0.0360   -2.1339    1.1056 C.ar      1 <0>         0.3020
      7 C5          0.0233   -0.7325    1.1967 C.ar      1 <0>        -0.0767
      8 C6          0.0266   -0.0502    2.5099 C.2       1 <0>         0.4269
      9 N3         -1.0983    0.2345    3.0977 N.2       1 <0>        -0.4023
     10 O1         -1.0952    0.8873    4.3543 O.3       1 <0>        -0.4201
     11 N4          1.2273    0.2854    3.1129 N.pl3     1 <0>        -0.8606
     12 O2          0.0513   -2.8911    2.2300 O.3       1 <0>        -0.2837
     13 C7          0.0693   -4.3094    2.0568 C.3       1 <0>         0.1143
     14 C8          1.3202   -4.7118    1.2731 C.3       1 <0>        -0.1845
     15 C9          0.0848   -4.9904    3.4268 C.3       1 <0>        -0.1405
     16 C10        -1.1780   -4.7448    1.2850 C.3       1 <0>        -0.1849
     17 C11        -0.0098    0.0254   -2.5024 C.3       1 <0>        -0.0996
     18 H1          1.0042    1.8801    0.0026 H         1 <0>         0.0911
     19 H2         -0.5455    1.8639   -0.8728 H         1 <0>         0.0914
     20 H3         -0.5286    1.8543    0.9071 H         1 <0>         0.0807
     21 H4         -1.9776    1.0567    4.7117 H         1 <0>         0.4027
     22 H5          2.0661    0.0731    2.6746 H         1 <0>         0.3974
     23 H6          1.2294    0.7326    3.9737 H         1 <0>         0.4115
     24 H7          2.2088   -4.4016    1.8229 H         1 <0>         0.0576
     25 H8          1.3339   -5.7936    1.1410 H         1 <0>         0.0739
     26 H9          1.3091   -4.2267    0.2971 H         1 <0>         0.0899
     27 H10        -0.8064   -4.7037    3.9852 H         1 <0>         0.0666
     28 H11         0.0985   -6.0723    3.2947 H         1 <0>         0.0829
     29 H12         0.9734   -4.6802    3.9767 H         1 <0>         0.0656
     30 H13        -1.1891   -4.2597    0.3090 H         1 <0>         0.0898
     31 H14        -1.1644   -5.8267    1.1529 H         1 <0>         0.0736
     32 H15        -2.0692   -4.4582    1.8433 H         1 <0>         0.0590
     33 H16         1.0139    0.2172   -2.8240 H         1 <0>         0.0851
     34 H17        -0.5189   -0.5797   -3.2526 H         1 <0>         0.0852
     35 H18        -0.5360    0.9723   -2.3812 H         1 <0>         0.0829
@<TRIPOS>BOND
     1    1    2 1
     2    1   18 1
     3    1   19 1
     4    1   20 1
     5    2    7 ar
     6    2    3 ar
     7    3    4 ar
     8    3   17 1
     9    4    5 ar
    10    5    6 ar
    11    6    7 ar
    12    6   12 1
    13    7    8 1
    14    8    9 2
    15    8   11 1
    16    9   10 1
    17   10   21 1
    18   11   22 1
    19   11   23 1
    20   12   13 1
    21   13   14 1
    22   13   15 1
    23   13   16 1
    24   14   24 1
    25   14   25 1
    26   14   26 1
    27   15   27 1
    28   15   28 1
    29   15   29 1
    30   16   30 1
    31   16   31 1
    32   16   32 1
    33   17   33 1
    34   17   34 1
    35   17   35 1
@<TRIPOS>MOLECULE
ZINC50287993
   34    36     0     0     0
SMALL
USER_CHARGES

@<TRIPOS>ATOM
      1 C1         -0.0178    1.4608    0.0101 C.3       1 <0>         0.0947
      2 N1          0.0021   -0.0041    0.0020 N.pl3     1 <0>        -0.6326
      3 C2         -1.2477   -0.7683    0.1141 C.3       1 <0>         0.1224
      4 C3         -1.0142   -1.9040    1.1190 C.3       1 <0>        -0.1399
      5 C4          0.0601   -2.8399    0.5653 C.3       1 <0>        -0.0745
      6 C5          1.2787   -2.0575    0.1521 C.ar      1 <0>        -0.1462
      7 C6          1.2110   -0.6981   -0.1183 C.ar      1 <0>         0.2361
      8 C7          2.3527   -0.0068   -0.5076 C.ar      1 <0>        -0.1843
      9 C8          3.5561   -0.6727   -0.6291 C.ar      1 <0>        -0.0624
     10 C9          3.6241   -2.0278   -0.3628 C.ar      1 <0>        -0.1805
     11 C10         2.4904   -2.7173    0.0350 C.ar      1 <0>        -0.0383
     12 C11         4.9378   -2.7545   -0.4936 C.3       1 <0>         0.2194
     13 H1          4.7527   -3.8235   -0.5992 H         1 <0>         0.1467
     14 C12         5.7728   -2.5083    0.7365 C.2       1 <0>        -0.0071
     15 N2          6.4188   -1.3926    1.0426 N.2       1 <0>        -0.3727
     16 N3          7.0117   -1.5828    2.1716 N.2       1 <0>        -0.1624
     17 N4          6.7594   -2.7769    2.5819 N.2       1 <0>        -0.1646
     18 N5          5.9977   -3.3639    1.7230 N.2       1 <0>        -0.3469
     19 N6          5.6538   -2.2623   -1.6781 N.4       1 <0>        -0.6276
     20 H2          0.3181    1.8340   -0.9574 H         1 <0>         0.0540
     21 H3         -1.0327    1.8093    0.2015 H         1 <0>         0.0763
     22 H4          0.6464    1.8289    0.7921 H         1 <0>         0.0585
     23 H5         -2.0471   -0.1186    0.4705 H         1 <0>         0.0824
     24 H6         -1.5145   -1.1842   -0.8575 H         1 <0>         0.0634
     25 H7         -0.6812   -1.4877    2.0697 H         1 <0>         0.0714
     26 H8         -1.9412   -2.4584    1.2655 H         1 <0>         0.0824
     27 H9          0.3388   -3.5623    1.3325 H         1 <0>         0.0798
     28 H10        -0.3365   -3.3722   -0.2992 H         1 <0>         0.0756
     29 H11         2.2982    1.0516   -0.7155 H         1 <0>         0.1279
     30 H12         4.4431   -0.1359   -0.9313 H         1 <0>         0.1205
     31 H13         2.5482   -3.7757    0.2418 H         1 <0>         0.1306
     32 H14         6.5334   -2.7489   -1.7657 H         1 <0>         0.4343
     33 H15         5.0947   -2.4271   -2.5017 H         1 <0>         0.4297
     34 H16         5.8251   -1.2727   -1.5804 H         1 <0>         0.4340
@<TRIPOS>BOND
     1    1    2 1
     2    1   20 1
     3    1   21 1
     4    1   22 1
     5    2    7 1
     6    2    3 1
     7    3    4 1
     8    3   23 1
     9    3   24 1
    10    4    5 1
    11    4   25 1
    12    4   26 1
    13    5    6 1
    14    5   27 1
    15    5   28 1
    16    6   11 ar
    17    6    7 ar
    18    7    8 ar
    19    8    9 ar
    20    8   29 1
    21    9   10 ar
    22    9   30 1
    23   10   11 ar
    24   10   12 1
    25   11   31 1
    26   12   13 1
    27   12   14 1
    28   12   19 1
    29   14   18 2
    30   14   15 1
    31   15   16 1
    32   16   17 2
    33   17   18 1
    34   19   32 1
    35   19   33 1
    36   19   34 1
@<TRIPOS>MOLECULE
ZINC50640374
   29    30     0     0     0
SMALL
USER_CHARGES

@<TRIPOS>ATOM
      1 C1         -0.0166    1.3737    0.0096 C.ar      1 <0>        -0.2073
      2 C2          1.1696    2.0900    0.0021 C.ar      1 <0>        -0.0353
      3 C3          2.3829    1.4324   -0.0134 C.ar      1 <0>        -0.2580
      4 C4          2.4221    0.0442   -0.0212 C.ar      1 <0>         0.3147
      5 C5          1.2224   -0.6845   -0.0132 C.ar      1 <0>        -0.1091
      6 C6          0.0021   -0.0041    0.0020 C.ar      1 <0>        -0.0263
      7 C7          1.2490   -2.1162   -0.0211 C.1       1 <0>         0.3047
      8 N1          1.2701   -3.2520   -0.0273 N.1       1 <0>        -0.4792
      9 N2          3.6432   -0.6203   -0.0373 N.2       1 <0>        -1.0825
     10 S1          5.0559    0.2436   -0.0472 S.o2      1 <0>         2.5911
     11 O1          5.1023    0.9320   -1.2895 O.2       1 <0>        -0.9923
     12 O2          5.1279    0.9187    1.2010 O.2       1 <0>        -1.0073
     13 C8          6.3784   -0.9206   -0.0670 C.ar      1 <0>        -0.7002
     14 C9          7.2300   -0.9959   -1.1547 C.ar      1 <0>         0.1198
     15 C10         8.2585   -1.9281   -1.1277 C.ar      1 <0>        -0.1905
     16 C11         8.4006   -2.7465   -0.0248 C.ar      1 <0>         0.1750
     17 N3          7.5730   -2.6528    0.9985 N.ar      1 <0>        -0.5153
     18 C12         6.5838   -1.7726    1.0131 C.ar      1 <0>         0.5313
     19 N4          5.7392   -1.7038    2.1150 N.pl3     1 <0>        -0.7958
     20 H1         -0.9606    1.8981    0.0259 H         1 <0>         0.1205
     21 H2          1.1445    3.1697    0.0081 H         1 <0>         0.1173
     22 H3          3.3030    1.9981   -0.0199 H         1 <0>         0.1074
     23 H4         -0.9254   -0.5574    0.0082 H         1 <0>         0.1217
     24 H5          7.0974   -0.3445   -2.0059 H         1 <0>         0.1866
     25 H6          8.9403   -2.0124   -1.9610 H         1 <0>         0.1856
     26 H7          9.1993   -3.4730    0.0004 H         1 <0>         0.2099
     27 H8          5.0105   -1.0637    2.1283 H         1 <0>         0.4499
     28 H9          5.8785   -2.2958    2.8706 H         1 <0>         0.4221
     29 H10         7.6950   -3.2401    1.7608 H         1 <0>         0.4417
@<TRIPOS>BOND
     1    1    6 ar
     2    1    2 ar
     3    1   20 1
     4    2    3 ar
     5    2   21 1
     6    3    4 ar
     7    3   22 1
     8    4    5 ar
     9    4    9 1
    10    5    6 ar
    11    5    7 1
    12    6   23 1
    13    7    8 3
    14    9   10 1
    15   10   11 2
    16   10   12 2
    17   10   13 1
    18   13   18 ar
    19   13   14 ar
    20   14   15 ar
    21   14   24 1
    22   15   16 ar
    23   15   25 1
    24   16   17 ar
    25   16   26 1
    26   17   18 ar
    27   17   29 1
    28   18   19 1
    29   19   27 1
    30   19   28 1
@<TRIPOS>MOLECULE
ZINC61843653
   33    34     0     0     0
SMALL
USER_CHARGES

@<TRIPOS>ATOM
      1 C1         -0.0184    1.5028    0.0103 C.3       1 <0>        -0.1147
      2 C2          0.0021   -0.0041    0.0020 C.ar      1 <0>        -0.0975
      3 C3          0.0057   -0.6888   -1.1991 C.ar      1 <0>        -0.1010
      4 C4          0.0245   -2.0707   -1.2067 C.ar      1 <0>        -0.1208
      5 C5          0.0400   -2.7685   -0.0132 C.ar      1 <0>        -0.0473
      6 C6          0.0373   -2.0840    1.1875 C.ar      1 <0>        -0.1207
      7 C7          0.0229   -0.7015    1.1951 C.ar      1 <0>        -0.0948
      8 C8          0.0538   -2.8445    2.4885 C.3       1 <0>         0.1684
      9 N1          1.4360   -3.1770    2.8422 N.pl3     1 <0>        -0.3678
     10 C9          2.0642   -2.8852    3.9964 C.2       1 <0>         0.2636
     11 N2          3.2833   -3.3484    3.9287 N.2       1 <0>        -0.5260
     12 C10         3.4768   -3.9457    2.7440 C.2       1 <0>         0.2589
     13 N3          2.3638   -3.8682    2.0462 N.2       1 <0>        -0.2421
     14 C11         4.7326   -4.5910    2.2974 C.2       1 <0>         0.4579
     15 N4          4.7989   -5.1393    1.1199 N.2       1 <0>        -0.3889
     16 O1          5.9997   -5.7563    0.6929 O.3       1 <0>        -0.4159
     17 N5          5.8363   -4.6106    3.1335 N.pl3     1 <0>        -0.8547
     18 C12         0.0595   -4.2753   -0.0215 C.3       1 <0>        -0.1202
     19 H1          1.0042    1.8801    0.0026 H         1 <0>         0.0699
     20 H2         -0.5455    1.8639   -0.8728 H         1 <0>         0.0676
     21 H3         -0.5286    1.8543    0.9071 H         1 <0>         0.0665
     22 H4         -0.0064   -0.1437   -2.1314 H         1 <0>         0.1240
     23 H5          0.0266   -2.6056   -2.1449 H         1 <0>         0.1256
     24 H6          0.0246   -0.1666    2.1333 H         1 <0>         0.1222
     25 H7         -0.3845   -2.2295    3.2744 H         1 <0>         0.1144
     26 H8         -0.5244   -3.7622    2.3802 H         1 <0>         0.1052
     27 H9          1.6338   -2.3579    4.8349 H         1 <0>         0.2271
     28 H10         5.9527   -6.1355   -0.1954 H         1 <0>         0.4048
     29 H11         5.7868   -4.2016    4.0116 H         1 <0>         0.4068
     30 H12         6.6589   -5.0333    2.8409 H         1 <0>         0.4128
     31 H13         1.0917   -4.6253   -0.0291 H         1 <0>         0.0892
     32 H14        -0.4447   -4.6501    0.8693 H         1 <0>         0.0624
     33 H15        -0.4546   -4.6404   -0.9106 H         1 <0>         0.0649
@<TRIPOS>BOND
     1    1    2 1
     2    1   19 1
     3    1   20 1
     4    1   21 1
     5    2    7 ar
     6    2    3 ar
     7    3    4 ar
     8    3   22 1
     9    4    5 ar
    10    4   23 1
    11    5    6 ar
    12    5   18 1
    13    6    7 ar
    14    6    8 1
    15    7   24 1
    16    8    9 1
    17    8   25 1
    18    8   26 1
    19    9   13 1
    20    9   10 1
    21   10   11 2
    22   10   27 1
    23   11   12 1
    24   12   13 2
    25   12   14 1
    26   14   15 2
    27   14   17 1
    28   15   16 1
    29   16   28 1
    30   17   29 1
    31   17   30 1
    32   18   31 1
    33   18   32 1
    34   18   33 1
@<TRIPOS>MOLECULE
ZINC00049209
   36    38     0     0     0
SMALL
USER_CHARGES
4-[(9,9-dioxo-9$l^{6}-thia-8-azabicyclo[4.3.0]nona-1,3,5,7-tetraen-7-yl)aminoiminomethyl]-2-methoxy-phenol
@<TRIPOS>ATOM
      1 C1         -7.1237   -0.4454    0.0334 C.3       1 <0>         0.0230
      2 O1         -7.2120    0.9809    0.0421 O.3       1 <0>        -0.3053
      3 C2         -6.0407    1.6719    0.0403 C.ar      1 <0>         0.0979
      4 C3         -4.8371    0.9920    0.0304 C.ar      1 <0>        -0.1638
      5 C4         -3.6356    1.7052    0.0286 C.ar      1 <0>        -0.0335
      6 C5         -3.6566    3.1022    0.0421 C.ar      1 <0>        -0.0914
      7 C6         -4.8612    3.7734    0.0461 C.ar      1 <0>        -0.1117
      8 C7         -6.0539    3.0649    0.0479 C.ar      1 <0>         0.0993
      9 O2         -7.2386    3.7317    0.0576 O.3       1 <0>        -0.4855
     10 C8         -2.3490    0.9855    0.0185 C.2       1 <0>         0.1259
     11 N1         -1.2338    1.6498    0.0169 N.2       1 <0>        -0.2138
     12 N2         -0.0111    0.9658    0.0074 N.pl3     1 <0>        -0.5306
     13 C9          1.1727    1.6709   -0.0002 C.2       1 <0>         0.5324
     14 N3          1.1637    2.9670    0.0014 N.2       1 <0>        -0.8402
     15 S1          2.7705    3.4352   -0.0069 S.o2      1 <0>         2.5739
     16 O3          3.0544    4.0443    1.2452 O.2       1 <0>        -0.9359
     17 O4          3.0307    4.0573   -1.2577 O.2       1 <0>        -0.9359
     18 C10         3.5505    1.8441   -0.0225 C.ar      1 <0>        -0.6122
     19 C11         2.4610    0.9616   -0.0163 C.ar      1 <0>        -0.1227
     20 C12         2.7438   -0.4127   -0.0259 C.ar      1 <0>        -0.0517
     21 C13         4.0482   -0.8538   -0.0409 C.ar      1 <0>        -0.0854
     22 C14         5.1026    0.0414   -0.0466 C.ar      1 <0>        -0.0877
     23 C15         4.8417    1.4048   -0.0372 C.ar      1 <0>         0.0070
     24 H1         -6.5929   -0.7711   -0.8611 H         1 <0>         0.0571
     25 H2         -6.5841   -0.7814    0.9188 H         1 <0>         0.0567
     26 H3         -8.1270   -0.8715    0.0359 H         1 <0>         0.1035
     27 H4         -4.8255   -0.0879    0.0237 H         1 <0>         0.1390
     28 H5         -2.7296    3.6563    0.0452 H         1 <0>         0.1465
     29 H6         -4.8762    4.8533    0.0521 H         1 <0>         0.1441
     30 H7         -7.5768    3.9197    0.9438 H         1 <0>         0.3918
     31 H8         -2.3344   -0.0944    0.0126 H         1 <0>         0.1265
     32 H9          0.0021   -0.0041    0.0020 H         1 <0>         0.4002
     33 H10         1.9346   -1.1280   -0.0220 H         1 <0>         0.1386
     34 H11         4.2510   -1.9146   -0.0485 H         1 <0>         0.1465
     35 H12         6.1211   -0.3175   -0.0587 H         1 <0>         0.1495
     36 H13         5.6565    2.1137   -0.0413 H         1 <0>         0.1480
@<TRIPOS>BOND
     1    1    2 1
     2    1   24 1
     3    1   25 1
     4    1   26 1
     5    2    3 1
     6    3    8 ar
     7    3    4 ar
     8    4    5 ar
     9    4   27 1
    10    5    6 ar
    11    5   10 1
    12    6    7 ar
    13    6   28 1
    14    7    8 ar
    15    7   29 1
    16    8    9 1
    17    9   30 1
    18   10   11 2
    19   10   31 1
    20   11   12 1
    21   12   13 1
    22   12   32 1
    23   13   19 1
    24   13   14 2
    25   14   15 1
    26   15   16 2
    27   15   17 2
    28   15   18 1
    29   18   23 ar
    30   18   19 ar
    31   19   20 ar
    32   20   21 ar
    33   20   33 1
    34   21   22 ar
    35   21   34 1
    36   22   23 ar
    37   22   35 1
    38   23   36 1
@<TRIPOS>MOLECULE
ZINC39217348
   44    47     0     0     0
SMALL
USER_CHARGES

@<TRIPOS>ATOM
      1 C1         -0.0184    1.5028    0.0103 C.3       1 <0>        -0.1056
      2 C2          0.0021   -0.0041    0.0020 C.2       1 <0>         0.0096
      3 C3         -1.0636   -0.7678    0.0029 C.2       1 <0>        -0.1759
      4 C4         -2.5370   -0.4917   -0.1224 C.3       1 <0>         0.1584
      5 H1         -3.0177   -0.5614    0.8533 H         1 <0>         0.1236
      6 C5         -3.0749   -1.5655   -1.0500 C.2       1 <0>        -0.2948
      7 C6         -2.3168   -2.6122   -1.4382 C.2       1 <0>         0.4589
      8 O1         -1.0334   -2.8415   -1.1072 O.3       1 <0>        -0.2782
      9 C7         -0.5285   -2.1988    0.0663 C.3       1 <0>         0.1688
     10 H2         -0.8342   -2.7144    0.9767 H         1 <0>         0.1679
     11 N1          0.9209   -1.9851    0.0015 N.2       1 <0>        -0.1317
     12 N2          1.1266   -0.7647   -0.0133 N.2       1 <0>        -0.1109
     13 N3         -2.9170   -3.5379   -2.2540 N.pl3     1 <0>        -0.8313
     14 C8         -4.4220   -1.4658   -1.5254 C.1       1 <0>         0.2738
     15 N4         -5.4906   -1.3866   -1.9025 N.1       1 <0>        -0.4372
     16 C9         -2.7622    0.8747   -0.7168 C.2       1 <0>        -0.1464
     17 C10        -3.4086    1.9409   -0.1850 C.2       1 <0>        -0.1321
     18 C11        -3.4929    3.1085   -0.9199 C.2       1 <0>        -0.1185
     19 C12        -2.9266    3.1529   -2.1507 C.2       1 <0>        -0.1456
     20 S1         -2.2401    1.5118   -2.3007 S.3       1 <0>         0.0627
     21 C13        -4.2041    4.3141   -0.3614 C.3       1 <0>         0.1101
     22 N5         -3.2484    5.1454    0.3825 N.3       1 <0>        -0.5297
     23 C14        -2.7642    4.4464    1.5818 C.3       1 <0>         0.0153
     24 C15        -1.7287    5.3217    2.2928 C.3       1 <0>         0.0628
     25 O2         -2.3156    6.5882    2.6042 O.3       1 <0>        -0.3851
     26 C16        -2.7975    7.2966    1.4590 C.3       1 <0>         0.0637
     27 C17        -3.8437    6.4413    0.7396 C.3       1 <0>         0.0165
     28 H3          1.0042    1.8801    0.0026 H         1 <0>         0.0837
     29 H4         -0.5455    1.8639   -0.8728 H         1 <0>         0.0961
     30 H5         -0.5286    1.8543    0.9071 H         1 <0>         0.0829
     31 H6         -3.8416   -3.4206   -2.5227 H         1 <0>         0.4247
     32 H7         -2.4166   -4.3097   -2.5620 H         1 <0>         0.4125
     33 H8         -3.8515    1.8788    0.7980 H         1 <0>         0.1320
     34 H9         -2.8952    3.9704   -2.8558 H         1 <0>         0.1875
     35 H10        -4.6315    4.8948   -1.1789 H         1 <0>         0.0858
     36 H11        -5.0003    3.9884    0.3079 H         1 <0>         0.0445
     37 H12        -3.6007    4.2539    2.2535 H         1 <0>         0.0420
     38 H13        -2.3045    3.5016    1.2918 H         1 <0>         0.0898
     39 H14        -1.4090    4.8327    3.2130 H         1 <0>         0.0976
     40 H15        -0.8680    5.4699    1.6407 H         1 <0>         0.0607
     41 H16        -3.2507    8.2358    1.7762 H         1 <0>         0.0989
     42 H17        -1.9678    7.5022    0.7826 H         1 <0>         0.0608
     43 H18        -4.1721    6.9526   -0.1653 H         1 <0>         0.0876
     44 H19        -4.6976    6.2806    1.3978 H         1 <0>         0.0439
@<TRIPOS>BOND
     1    1    2 1
     2    1   28 1
     3    1   29 1
     4    1   30 1
     5    2   12 1
     6    2    3 2
     7    3    9 1
     8    3    4 1
     9    4    5 1
    10    4    6 1
    11    4   16 1
    12    6    7 2
    13    6   14 1
    14    7    8 1
    15    7   13 1
    16    8    9 1
    17    9   10 1
    18    9   11 1
    19   11   12 2
    20   13   31 1
    21   13   32 1
    22   14   15 3
    23   16   20 1
    24   16   17 2
    25   17   18 1
    26   17   33 1
    27   18   19 2
    28   18   21 1
    29   19   20 1
    30   19   34 1
    31   21   22 1
    32   21   35 1
    33   21   36 1
    34   22   27 1
    35   22   23 1
    36   23   24 1
    37   23   37 1
    38   23   38 1
    39   24   25 1
    40   24   39 1
    41   24   40 1
    42   25   26 1
    43   26   27 1
    44   26   41 1
    45   26   42 1
    46   27   43 1
    47   27   44 1
@<TRIPOS>MOLECULE
ZINC48346054
   37    39     0     0     0
SMALL
USER_CHARGES

@<TRIPOS>ATOM
      1 C1         -0.0184    1.5028    0.0103 C.3       1 <0>        -0.1067
      2 C2          0.0021   -0.0041    0.0020 C.2       1 <0>        -0.0633
      3 C3          0.0059   -0.6770   -1.1598 C.2       1 <0>        -0.1590
      4 S1          0.0321   -2.3845   -0.6478 S.3       1 <0>         0.1560
      5 C4          0.0372   -2.1444    1.1102 C.2       1 <0>         0.0983
      6 C5          0.0240   -0.7448    1.2495 C.2       1 <0>        -0.2349
      7 C6          0.0292   -0.2565    2.5968 C.2       1 <0>         0.5594
      8 O1          0.0141    0.9415    2.8212 O.2       1 <0>        -0.5124
      9 N1          0.0506   -1.1417    3.6105 N.am      1 <0>        -0.6262
     10 H1          0.0542   -0.8173    4.5246 H         1 <0>         0.4235
     11 C7          0.0667   -2.4797    3.3796 C.2       1 <0>         0.4197
     12 N2          0.0532   -2.9560    2.1634 N.2       1 <0>        -0.4695
     13 C8          0.0899   -3.4321    4.5472 C.3       1 <0>        -0.0434
     14 H2         -0.3433   -2.9459    5.4213 H         1 <0>         0.1348
     15 C9          1.5352   -3.8323    4.8503 C.3       1 <0>        -0.1505
     16 S2         -0.8746   -4.9131    4.1388 S.3       1 <0>         0.1074
     17 C10        -0.8758   -5.8466    5.6332 C.2       1 <0>         0.2415
     18 N3         -0.3016   -5.4961    6.7478 N.2       1 <0>        -0.2842
     19 N4         -0.5333   -6.5062    7.6916 N.am      1 <0>        -0.5407
     20 H3         -0.2238   -6.5151    8.6108 H         1 <0>         0.4582
     21 C11        -1.2663   -7.4636    7.0865 C.2       1 <0>         0.6535
     22 O2         -1.6602   -8.4980    7.5955 O.2       1 <0>        -0.5453
     23 N5         -1.4889   -7.0651    5.8182 N.am      1 <0>        -0.5335
     24 C12        -2.2498   -7.8044    4.8079 C.3       1 <0>         0.0909
     25 C13        -0.0090   -0.1219   -2.5608 C.3       1 <0>        -0.0698
     26 H4          1.0042    1.8801    0.0026 H         1 <0>         0.0732
     27 H5         -0.5455    1.8639   -0.8728 H         1 <0>         0.0691
     28 H6         -0.5286    1.8543    0.9071 H         1 <0>         0.0826
     29 H7          1.5520   -4.5212    5.6948 H         1 <0>         0.0924
     30 H8          1.9685   -4.3185    3.9762 H         1 <0>         0.0840
     31 H9          2.1148   -2.9424    5.0957 H         1 <0>         0.0772
     32 H10        -1.5788   -8.4656    4.2595 H         1 <0>         0.0822
     33 H11        -3.0235   -8.3963    5.2970 H         1 <0>         0.0966
     34 H12        -2.7132   -7.1015    4.1157 H         1 <0>         0.0917
     35 H13         1.0149    0.0265   -2.9037 H         1 <0>         0.0832
     36 H14        -0.5163   -0.8228   -3.2239 H         1 <0>         0.0776
     37 H15        -0.5366    0.8319   -2.5681 H         1 <0>         0.0863
@<TRIPOS>BOND
     1    1    2 1
     2    1   26 1
     3    1   27 1
     4    1   28 1
     5    2    6 1
     6    2    3 2
     7    3    4 1
     8    3   25 1
     9    4    5 1
    10    5   12 1
    11    5    6 2
    12    6    7 1
    13    7    8 2
    14    7    9 am
    15    9   10 1
    16    9   11 1
    17   11   12 2
    18   11   13 1
    19   13   14 1
    20   13   15 1
    21   13   16 1
    22   15   29 1
    23   15   30 1
    24   15   31 1
    25   16   17 1
    26   17   23 1
    27   17   18 2
    28   18   19 1
    29   19   20 1
    30   19   21 am
    31   21   22 2
    32   21   23 am
    33   23   24 1
    34   24   32 1
    35   24   33 1
    36   24   34 1
    37   25   35 1
    38   25   36 1
    39   25   37 1
@<TRIPOS>MOLECULE
ZINC20086500
   45    49     0     0     0
SMALL
USER_CHARGES

@<TRIPOS>ATOM
      1 C1         -1.6797   -3.1289   -1.9713 C.3       1 <0>        -0.0833
      2 C2         -0.4939   -2.9020   -2.8732 C.2       1 <0>         0.1153
      3 C3          0.1247   -1.6802   -3.1123 C.2       1 <0>        -0.2480
      4 C4          1.1583   -1.8984   -3.9821 C.2       1 <0>         0.3145
      5 N1          1.1772   -3.2138   -4.2763 N.pl3     1 <0>        -0.4782
      6 H1          1.8011   -3.6587   -4.8711 H         1 <0>         0.4408
      7 N2          0.1342   -3.8244   -3.5621 N.2       1 <0>        -0.2791
      8 N3          2.0056   -0.8798   -4.4334 N.pl3     1 <0>        -0.6053
      9 C5          1.8788    0.3237   -3.7902 C.2       1 <0>         0.1652
     10 C6          0.8839    0.6300   -2.9197 C.2       1 <0>        -0.2902
     11 C7         -0.2312   -0.3250   -2.5491 C.3       1 <0>         0.0881
     12 H2         -0.3203   -0.3867   -1.4645 H         1 <0>         0.0906
     13 C8         -1.5512    0.1582   -3.1532 C.3       1 <0>        -0.0761
     14 H3         -2.3185   -0.6015   -3.0044 H         1 <0>         0.0807
     15 C9         -1.9803    1.4573   -2.4682 C.3       1 <0>        -0.1470
     16 C10        -1.3651    0.4088   -4.6510 C.3       1 <0>        -0.0630
     17 C11        -2.6947    0.7522   -5.2718 C.ar      1 <0>        -0.0653
     18 C12        -3.5035   -0.2525   -5.7697 C.ar      1 <0>        -0.1073
     19 C13        -4.7242    0.0575   -6.3396 C.ar      1 <0>        -0.0971
     20 C14        -5.1398    1.3770   -6.4136 C.ar      1 <0>         0.0245
     21 C15        -4.3250    2.3891   -5.9122 C.ar      1 <0>         0.0346
     22 C16        -3.1055    2.0705   -5.3371 C.ar      1 <0>        -0.0947
     23 O1         -4.9509    3.5872   -6.1019 O.3       1 <0>        -0.3087
     24 C17        -5.9688    3.3373   -7.0891 C.3       1 <0>         0.2132
     25 O2         -6.2762    1.9411   -6.9174 O.3       1 <0>        -0.3099
     26 C18         1.0708    1.9386   -2.4481 C.2       1 <0>         0.5164
     27 O3          0.3402    2.4937   -1.6484 O.2       1 <0>        -0.4505
     28 O4          2.1671    2.4993   -2.9974 O.3       1 <0>        -0.3195
     29 C19         2.7614    1.5368   -3.8812 C.3       1 <0>         0.0838
     30 H4         -1.3322   -3.4325   -0.9838 H         1 <0>         0.0826
     31 H5         -2.2536   -2.2061   -1.8867 H         1 <0>         0.0844
     32 H6         -2.3108   -3.9122   -2.3911 H         1 <0>         0.0784
     33 H7          2.6403   -1.0165   -5.1541 H         1 <0>         0.4266
     34 H8         -1.8868    1.3465   -1.3879 H         1 <0>         0.0618
     35 H9         -1.3425    2.2741   -2.8062 H         1 <0>         0.0625
     36 H10        -3.0172    1.6769   -2.7225 H         1 <0>         0.0505
     37 H11        -0.6712    1.2365   -4.7975 H         1 <0>         0.0679
     38 H12        -0.9649   -0.4887   -5.1226 H         1 <0>         0.0705
     39 H13        -3.1808   -1.2816   -5.7135 H         1 <0>         0.1349
     40 H14        -5.3540   -0.7294   -6.7277 H         1 <0>         0.1345
     41 H15        -2.4736    2.8529   -4.9434 H         1 <0>         0.1336
     42 H16        -6.8492    3.9499   -6.8952 H         1 <0>         0.1321
     43 H17        -5.5841    3.5242   -8.0917 H         1 <0>         0.0838
     44 H18         3.7722    1.2949   -3.5528 H         1 <0>         0.1262
     45 H19         2.7756    1.9187   -4.9021 H         1 <0>         0.1252
@<TRIPOS>BOND
     1    1    2 1
     2    1   30 1
     3    1   31 1
     4    1   32 1
     5    2    7 2
     6    2    3 1
     7    3   11 1
     8    3    4 2
     9    4    5 1
    10    4    8 1
    11    5    6 1
    12    5    7 1
    13    8    9 1
    14    8   33 1
    15    9   29 1
    16    9   10 2
    17   10   11 1
    18   10   26 1
    19   11   12 1
    20   11   13 1
    21   13   14 1
    22   13   15 1
    23   13   16 1
    24   15   34 1
    25   15   35 1
    26   15   36 1
    27   16   17 1
    28   16   37 1
    29   16   38 1
    30   17   22 ar
    31   17   18 ar
    32   18   19 ar
    33   18   39 1
    34   19   20 ar
    35   19   40 1
    36   20   25 1
    37   20   21 ar
    38   21   22 ar
    39   21   23 1
    40   22   41 1
    41   23   24 1
    42   24   25 1
    43   24   42 1
    44   24   43 1
    45   26   27 2
    46   26   28 1
    47   28   29 1
    48   29   44 1
    49   29   45 1
@<TRIPOS>MOLECULE
ZINC39951175
   54    57     0     0     0
SMALL
USER_CHARGES

@<TRIPOS>ATOM
      1 C1         -0.2658    1.3771   -0.0104 C.3       1 <0>        -0.1500
      2 C2         -0.1537   -0.1480    0.0390 C.3       1 <0>        -0.1352
      3 C3          0.4779   -0.6553   -1.2590 C.3       1 <0>        -0.0910
      4 C4          0.5900   -2.1804   -1.2096 C.3       1 <0>        -0.1686
      5 C5          1.4516   -2.6186   -0.0372 C.3       1 <0>         0.0947
      6 N1          1.8998   -3.9822   -0.0277 N.3       1 <0>        -0.5537
      7 C6          1.0667   -4.9983    0.5721 C.3       1 <0>         0.0468
      8 C7         -0.3972   -4.8519    0.3541 C.3       1 <0>        -0.1351
      9 C8         -0.7962   -4.3140   -0.9864 C.3       1 <0>        -0.1321
     10 C9         -0.7842   -2.8191   -1.0498 C.2       1 <0>         0.3791
     11 O1         -1.7943   -2.1625   -0.9666 O.2       1 <0>        -0.4249
     12 C10         0.0561   -4.8920   -2.1143 C.3       1 <0>         0.0605
     13 N2          1.3103   -4.1922   -2.3374 N.3       1 <0>        -0.5817
     14 C11         1.1475   -2.7291   -2.5333 C.3       1 <0>         0.0839
     15 C12         2.3559   -4.4554   -1.3488 C.3       1 <0>         0.2949
     16 H1          3.2662   -3.9266   -1.6312 H         1 <0>         0.1407
     17 C13         2.6297   -5.9361   -1.2868 C.2       1 <0>         0.1923
     18 C14         3.3966   -6.4433   -0.2980 C.2       1 <0>        -0.2336
     19 C15         3.6391   -7.8376   -0.2608 C.2       1 <0>         0.5521
     20 O2          4.3273   -8.3183    0.6215 O.2       1 <0>        -0.5019
     21 N3          3.1008   -8.6284   -1.2110 N.am      1 <0>        -0.6591
     22 H2          3.2622   -9.5847   -1.1920 H         1 <0>         0.4330
     23 C16         2.3400   -8.0963   -2.1854 C.2       1 <0>         0.6973
     24 O3          1.8611   -8.8217   -3.0356 O.2       1 <0>        -0.5359
     25 N4          2.0976   -6.7736   -2.2291 N.am      1 <0>        -0.6297
     26 H3          1.5434   -6.4098   -2.9372 H         1 <0>         0.4418
     27 C17         3.9868   -5.5372    0.7516 C.3       1 <0>        -0.0742
     28 C18        -2.2347   -4.7659   -1.2464 C.3       1 <0>        -0.1100
     29 C19        -2.2735   -6.2891   -1.3851 C.3       1 <0>        -0.1599
     30 H4          0.7276    1.8109   -0.1248 H         1 <0>         0.0532
     31 H5         -0.8890    1.6684   -0.8558 H         1 <0>         0.0537
     32 H6         -0.7157    1.7384    0.9143 H         1 <0>         0.0539
     33 H7          0.4696   -0.4394    0.8844 H         1 <0>         0.0591
     34 H8         -1.1471   -0.5818    0.1534 H         1 <0>         0.0768
     35 H9         -0.1454   -0.3639   -2.1044 H         1 <0>         0.0708
     36 H10         1.4713   -0.2215   -1.3734 H         1 <0>         0.0745
     37 H11         2.3317   -1.9762   -0.0093 H         1 <0>         0.0930
     38 H12         0.8856   -2.4454    0.8781 H         1 <0>         0.0797
     39 H13         1.3742   -5.9668    0.1776 H         1 <0>         0.0818
     40 H14         1.2522   -5.0000    1.6462 H         1 <0>         0.0860
     41 H15        -0.8619   -5.8294    0.4828 H         1 <0>         0.0904
     42 H16        -0.7926   -4.1863    1.1214 H         1 <0>         0.0666
     43 H17         0.2777   -5.9335   -1.8815 H         1 <0>         0.0894
     44 H18        -0.5248   -4.8634   -3.0362 H         1 <0>         0.0923
     45 H19         0.4503   -2.5221   -3.3452 H         1 <0>         0.0915
     46 H20         2.1148   -2.2743   -2.7469 H         1 <0>         0.1007
     47 H21         3.3325   -5.5162    1.6231 H         1 <0>         0.0742
     48 H22         4.9685   -5.9104    1.0433 H         1 <0>         0.0679
     49 H23         4.0864   -4.5298    0.3476 H         1 <0>         0.0837
     50 H24        -2.8677   -4.4607   -0.4132 H         1 <0>         0.0725
     51 H25        -2.5987   -4.3080   -2.1661 H         1 <0>         0.0687
     52 H26        -1.8325   -6.7460   -0.4991 H         1 <0>         0.0592
     53 H27        -3.3075   -6.6184   -1.4872 H         1 <0>         0.0628
     54 H28        -1.7081   -6.5882   -2.2677 H         1 <0>         0.0573
@<TRIPOS>BOND
     1    1    2 1
     2    1   30 1
     3    1   31 1
     4    1   32 1
     5    2    3 1
     6    2   33 1
     7    2   34 1
     8    3    4 1
     9    3   35 1
    10    3   36 1
    11    4   10 1
    12    4   14 1
    13    4    5 1
    14    5    6 1
    15    5   37 1
    16    5   38 1
    17    6   15 1
    18    6    7 1
    19    7    8 1
    20    7   39 1
    21    7   40 1
    22    8    9 1
    23    8   41 1
    24    8   42 1
    25    9   10 1
    26    9   12 1
    27    9   28 1
    28   10   11 2
    29   12   13 1
    30   12   43 1
    31   12   44 1
    32   13   14 1
    33   13   15 1
    34   14   45 1
    35   14   46 1
    36   15   16 1
    37   15   17 1
    38   17   25 1
    39   17   18 2
    40   18   19 1
    41   18   27 1
    42   19   20 2
    43   19   21 am
    44   21   22 1
    45   21   23 am
    46   23   24 2
    47   23   25 am
    48   25   26 1
    49   27   47 1
    50   27   48 1
    51   27   49 1
    52   28   29 1
    53   28   50 1
    54   28   51 1
    55   29   52 1
    56   29   53 1
    57   29   54 1
@<TRIPOS>MOLECULE
ZINC15221954
   36    39     0     0     0
SMALL
USER_CHARGES
(4S)-2-amino-7-methyl-2'-oxo-spiro[5,6-dihydropyrano[6,5-b]pyrrole-4,3'-indoline]-3-carbonitrile
@<TRIPOS>ATOM
      1 C1          6.2822    3.3563   -2.7383 C.3       1 <0>         0.1057
      2 N1          4.8960    3.7349   -2.4533 N.pl3     1 <0>        -0.6145
      3 C2          3.9170    4.1772   -3.4559 C.3       1 <0>         0.1314
      4 C3          2.6373    4.4422   -2.6387 C.3       1 <0>        -0.0659
      5 C4          3.0366    4.1176   -1.2234 C.2       1 <0>        -0.2872
      6 C5          4.3112    3.7294   -1.2006 C.2       1 <0>         0.3463
      7 O1          4.9330    3.3718   -0.0382 O.3       1 <0>        -0.2450
      8 C6          4.3463    3.6935    1.1293 C.2       1 <0>         0.4609
      9 C7          3.0550    4.0923    1.2275 C.2       1 <0>        -0.2591
     10 C8          2.1791    4.2010    0.0100 C.3       1 <0>         0.1280
     11 C9          1.1172    3.1492    0.0095 C.ar      1 <0>        -0.1273
     12 C10         1.1908    1.7728    0.0002 C.ar      1 <0>        -0.0453
     13 C11        -0.0126    1.0758    0.0080 C.ar      1 <0>        -0.1466
     14 C12        -1.2251    1.7348    0.0174 C.ar      1 <0>        -0.0841
     15 C13        -1.3076    3.1184    0.0314 C.ar      1 <0>        -0.1417
     16 C14        -0.1069    3.8300    0.0248 C.ar      1 <0>         0.1481
     17 N2          0.1033    5.1976    0.0331 N.am      1 <0>        -0.6630
     18 C15         1.4168    5.5078    0.0275 C.2       1 <0>         0.5387
     19 O2          1.8953    6.6223    0.0350 O.2       1 <0>        -0.4829
     20 C16         2.5143    4.4147    2.5137 C.1       1 <0>         0.2683
     21 N3          2.0854    4.6704    3.5341 N.1       1 <0>        -0.4331
     22 N4          5.0935    3.6147    2.2781 N.pl3     1 <0>        -0.8269
     23 H1          6.4732    3.4541   -3.8070 H         1 <0>         0.0831
     24 H2          6.9581    4.0101   -2.1871 H         1 <0>         0.0584
     25 H3          6.4467    2.3230   -2.4329 H         1 <0>         0.0601
     26 H4          3.7440    3.3929   -4.1927 H         1 <0>         0.0797
     27 H5          4.2555    5.0919   -3.9426 H         1 <0>         0.0785
     28 H6          1.8308    3.7871   -2.9682 H         1 <0>         0.0843
     29 H7          2.3378    5.4870   -2.7213 H         1 <0>         0.0803
     30 H8          2.1404    1.2587   -0.0129 H         1 <0>         0.1310
     31 H9          0.0021   -0.0041    0.0020 H         1 <0>         0.1250
     32 H10        -2.1366    1.1554    0.0182 H         1 <0>         0.1264
     33 H11        -2.2614    3.6248    0.0425 H         1 <0>         0.1335
     34 H12        -0.6092    5.8558    0.0415 H         1 <0>         0.4142
     35 H13         6.0205    3.3326    2.2353 H         1 <0>         0.4128
     36 H14         4.6944    3.8411    3.1327 H         1 <0>         0.4279
@<TRIPOS>BOND
     1    1    2 1
     2    1   23 1
     3    1   24 1
     4    1   25 1
     5    2    6 1
     6    2    3 1
     7    3    4 1
     8    3   26 1
     9    3   27 1
    10    4    5 1
    11    4   28 1
    12    4   29 1
    13    5   10 1
    14    5    6 2
    15    6    7 1
    16    7    8 1
    17    8    9 2
    18    8   22 1
    19    9   10 1
    20    9   20 1
    21   10   18 1
    22   10   11 1
    23   11   16 ar
    24   11   12 ar
    25   12   13 ar
    26   12   30 1
    27   13   14 ar
    28   13   31 1
    29   14   15 ar
    30   14   32 1
    31   15   16 ar
    32   15   33 1
    33   16   17 1
    34   17   18 am
    35   17   34 1
    36   18   19 2
    37   20   21 3
    38   22   35 1
    39   22   36 1
@<TRIPOS>MOLECULE
ZINC37487798
   24    25     0     0     0
SMALL
USER_CHARGES

@<TRIPOS>ATOM
      1 C1         -0.0229    1.8383    0.0121 C.3       1 <0>        -0.6138
      2 C2          1.5022    2.1436   -0.0008 C.3       1 <0>         0.1264
      3 H1          1.9114    2.0177    1.0016 H         1 <0>         0.0964
      4 C3          2.1799    1.1570   -0.9661 C.3       1 <0>        -0.0946
      5 H2          1.9334    1.4281   -1.9927 H         1 <0>         0.1364
      6 C4          1.6864   -0.2822   -0.6821 C.3       1 <0>        -0.5777
      7 S1          0.0021   -0.0041    0.0020 S.o2      1 <0>         2.3831
      8 O1         -0.9598   -0.4743   -0.9322 O.2       1 <0>        -0.9217
      9 O2         -0.0359   -0.4743    1.3424 O.2       1 <0>        -0.9222
     10 S2          3.9781    1.2313   -0.7389 S.3       1 <0>         0.0970
     11 C5          4.6108    0.1727   -1.9974 C.2       1 <0>         0.0309
     12 N1          3.9601   -0.5209   -2.9116 N.2       1 <0>        -0.2691
     13 N2          4.6589   -1.2931   -3.8105 N.2       1 <0>        -0.3736
     14 C6          5.9756   -1.3365   -3.7542 C.2       1 <0>         0.3548
     15 S3          6.3053   -0.2420   -2.3815 S.3       1 <0>         0.0071
     16 N3          6.8685   -2.0412   -4.5530 N.pl3     1 <0>        -0.7873
     17 O3          1.7224    3.4832   -0.4471 O.3       1 <0>        -0.5383
     18 H3         -0.4939    2.2211    0.9175 H         1 <0>         0.1530
     19 H4         -0.5111    2.2308   -0.8799 H         1 <0>         0.1544
     20 H5          1.6384   -0.8631   -1.6032 H         1 <0>         0.1612
     21 H6          2.3258   -0.7722    0.0522 H         1 <0>         0.1542
     22 H7          6.5379   -2.5999   -5.2737 H         1 <0>         0.4239
     23 H8          7.8224   -1.9742   -4.3897 H         1 <0>         0.4243
     24 H9          1.3225    4.1572    0.1193 H         1 <0>         0.3952
@<TRIPOS>BOND
     1    1    7 1
     2    1    2 1
     3    1   18 1
     4    1   19 1
     5    2    3 1
     6    2    4 1
     7    2   17 1
     8    4    5 1
     9    4    6 1
    10    4   10 1
    11    6    7 1
    12    6   20 1
    13    6   21 1
    14    7    8 2
    15    7    9 2
    16   10   11 1
    17   11   15 1
    18   11   12 2
    19   12   13 1
    20   13   14 2
    21   14   15 1
    22   14   16 1
    23   16   22 1
    24   16   23 1
    25   17   24 1
@<TRIPOS>MOLECULE
ZINC40732687
   36    37     0     0     0
SMALL
USER_CHARGES

@<TRIPOS>ATOM
      1 C1         -0.0187    1.5258    0.0104 C.3       1 <0>        -0.1472
      2 C2          0.0021   -0.0041    0.0020 C.3       1 <0>        -0.0442
      3 C3          0.7074   -0.4901   -1.2379 C.2       1 <0>        -0.2267
      4 C4          0.1079   -0.7600   -2.4733 C.2       1 <0>         0.1008
      5 N1          1.0364   -1.1604   -3.3034 N.2       1 <0>        -0.2831
      6 N2          2.2619   -1.1596   -2.6245 N.pl3     1 <0>        -0.3310
      7 C5          2.0325   -0.7366   -1.3542 C.2       1 <0>         0.1130
      8 C6          3.0665   -0.5743   -0.2700 C.3       1 <0>        -0.1050
      9 C7          3.5010   -1.5242   -3.1605 C.ar      1 <0>         0.3799
     10 C8          3.5518   -2.3895   -4.2445 C.ar      1 <0>        -0.1176
     11 C9          4.7964   -2.7441   -4.7684 C.ar      1 <0>         0.0218
     12 C10         5.9431   -2.2069   -4.1721 C.ar      1 <0>        -0.1639
     13 C11         5.8043   -1.3536   -3.0972 C.ar      1 <0>         0.1382
     14 N3          4.6114   -1.0362   -2.6319 N.ar      1 <0>        -0.4924
     15 C12         4.9006   -3.6649   -5.9244 C.2       1 <0>         0.4040
     16 N4          3.8243   -4.1541   -6.4647 N.2       1 <0>        -0.3985
     17 O1          3.9239   -5.0342   -7.5696 O.3       1 <0>        -0.4147
     18 N5          6.1446   -4.0043   -6.4292 N.pl3     1 <0>        -0.8653
     19 C13        -1.3576   -0.6146   -2.7929 C.3       1 <0>        -0.0760
     20 H1          1.0039    1.9031    0.0027 H         1 <0>         0.0525
     21 H2         -0.5459    1.8868   -0.8726 H         1 <0>         0.0543
     22 H3         -0.5289    1.8773    0.9072 H         1 <0>         0.0574
     23 H4          0.5293   -0.3651    0.8851 H         1 <0>         0.0691
     24 H5         -1.0205   -0.3814    0.0098 H         1 <0>         0.0724
     25 H6          3.1606   -1.5077    0.2851 H         1 <0>         0.0760
     26 H7          4.0267   -0.3200   -0.7187 H         1 <0>         0.1017
     27 H8          2.7600    0.2223    0.4080 H         1 <0>         0.0834
     28 H9          2.6430   -2.7825   -4.6757 H         1 <0>         0.1607
     29 H10         6.9239   -2.4576   -4.5484 H         1 <0>         0.1469
     30 H11         6.6851   -0.9359   -2.6323 H         1 <0>         0.1769
     31 H12         3.0711   -5.3455   -7.9025 H         1 <0>         0.4055
     32 H13         6.9478   -3.6393   -6.0260 H         1 <0>         0.3980
     33 H14         6.2129   -4.6072   -7.1861 H         1 <0>         0.4130
     34 H15        -1.5512    0.3933   -3.1600 H         1 <0>         0.0816
     35 H16        -1.6364   -1.3396   -3.5576 H         1 <0>         0.0766
     36 H17        -1.9452   -0.7923   -1.8923 H         1 <0>         0.0822
@<TRIPOS>BOND
     1    1    2 1
     2    1   20 1
     3    1   21 1
     4    1   22 1
     5    2    3 1
     6    2   23 1
     7    2   24 1
     8    3    7 2
     9    3    4 1
    10    4    5 2
    11    4   19 1
    12    5    6 1
    13    6    7 1
    14    6    9 1
    15    7    8 1
    16    8   25 1
    17    8   26 1
    18    8   27 1
    19    9   14 ar
    20    9   10 ar
    21   10   11 ar
    22   10   28 1
    23   11   12 ar
    24   11   15 1
    25   12   13 ar
    26   12   29 1
    27   13   14 ar
    28   13   30 1
    29   15   16 2
    30   15   18 1
    31   16   17 1
    32   17   31 1
    33   18   32 1
    34   18   33 1
    35   19   34 1
    36   19   35 1
    37   19   36 1
@<TRIPOS>MOLECULE
ZINC44699158
   35    37     0     0     0
SMALL
USER_CHARGES

@<TRIPOS>ATOM
      1 C1         -0.0167    1.3781    0.0096 C.ar      1 <0>        -0.1106
      2 C2          1.1709    2.0855    0.0021 C.ar      1 <0>        -0.1285
      3 C3          2.3773    1.4107   -0.0130 C.ar      1 <0>        -0.0930
      4 C4          2.3960    0.0285   -0.0201 C.ar      1 <0>        -0.0857
      5 C5          1.2084   -0.6789   -0.0117 C.ar      1 <0>        -0.0740
      6 C6          0.0021   -0.0041    0.0020 C.ar      1 <0>        -0.1285
      7 C7          3.7112   -0.7071   -0.0376 C.3       1 <0>         0.2874
      8 H1          4.2696   -0.4314   -0.9322 H         1 <0>         0.0629
      9 O1          4.4683   -0.3567    1.1232 O.3       1 <0>        -0.3724
     10 C8          5.7275   -1.0297    1.2183 C.3       1 <0>         0.0675
     11 C9          5.4798   -2.5436    1.2192 C.3       1 <0>         0.0390
     12 H2          6.4329   -3.0720    1.1978 H         1 <0>         0.0821
     13 C10         4.6609   -2.9049   -0.0244 C.3       1 <0>         0.0667
     14 H3          5.2481   -2.6971   -0.9189 H         1 <0>         0.0791
     15 O2          3.4686   -2.1164   -0.0428 O.3       1 <0>        -0.3316
     16 C11         4.2977   -4.3900    0.0133 C.3       1 <0>         0.1221
     17 H4          5.2075   -4.9885   -0.0339 H         1 <0>         0.0860
     18 C12         3.5520   -4.6951    1.3159 C.3       1 <0>         0.0616
     19 H5          3.3407   -5.7628    1.3737 H         1 <0>         0.0708
     20 C13         4.4293   -4.2814    2.5009 C.3       1 <0>         0.2375
     21 H6          5.3502   -4.8644    2.4928 H         1 <0>         0.0552
     22 O3          4.7606   -2.8952    2.4031 O.3       1 <0>        -0.3753
     23 O4          3.7251   -4.5188    3.7215 O.3       1 <0>        -0.5405
     24 O5          2.3256   -3.9624    1.3477 O.3       1 <0>        -0.5171
     25 O6          3.4610   -4.7050   -1.1014 O.3       1 <0>        -0.5353
     26 H7         -0.9591    1.9053    0.0259 H         1 <0>         0.1222
     27 H8          1.1563    3.1654    0.0076 H         1 <0>         0.1241
     28 H9          3.3051    1.9634   -0.0196 H         1 <0>         0.1229
     29 H10         1.2231   -1.7588   -0.0176 H         1 <0>         0.1411
     30 H11        -0.9258   -0.5567    0.0082 H         1 <0>         0.1236
     31 H12         6.3504   -0.7619    0.3648 H         1 <0>         0.0750
     32 H13         6.2273   -0.7407    2.1429 H         1 <0>         0.1127
     33 H14         4.2223   -4.2790    4.5155 H         1 <0>         0.3935
     34 H15         1.8008   -4.1084    2.1467 H         1 <0>         0.3783
     35 H16         3.1913   -5.6328   -1.1410 H         1 <0>         0.3812
@<TRIPOS>BOND
     1    1    6 ar
     2    1    2 ar
     3    1   26 1
     4    2    3 ar
     5    2   27 1
     6    3    4 ar
     7    3   28 1
     8    4    5 ar
     9    4    7 1
    10    5    6 ar
    11    5   29 1
    12    6   30 1
    13    7    8 1
    14    7   15 1
    15    7    9 1
    16    9   10 1
    17   10   11 1
    18   10   31 1
    19   10   32 1
    20   11   12 1
    21   11   22 1
    22   11   13 1
    23   13   14 1
    24   13   15 1
    25   13   16 1
    26   16   17 1
    27   16   18 1
    28   16   25 1
    29   18   19 1
    30   18   20 1
    31   18   24 1
    32   20   21 1
    33   20   22 1
    34   20   23 1
    35   23   33 1
    36   24   34 1
    37   25   35 1
@<TRIPOS>MOLECULE
ZINC61843642
   36    37     0     0     0
SMALL
USER_CHARGES

@<TRIPOS>ATOM
      1 C1         -0.0184    1.5028    0.0103 C.3       1 <0>        -0.1187
      2 C2          0.0021   -0.0041    0.0020 C.ar      1 <0>        -0.0609
      3 C3          0.0057   -0.6887   -1.1989 C.ar      1 <0>        -0.1320
      4 C4          0.0245   -2.0709   -1.2065 C.ar      1 <0>        -0.0344
      5 C5          0.0400   -2.7685   -0.0132 C.ar      1 <0>        -0.1302
      6 C6          0.0373   -2.0839    1.1877 C.ar      1 <0>        -0.0554
      7 C7          0.0229   -0.7016    1.1953 C.ar      1 <0>        -0.1340
      8 C8          0.0538   -2.8444    2.4886 C.3       1 <0>        -0.1217
      9 C9          0.0595   -4.2753   -0.0215 C.3       1 <0>         0.1646
     10 N1          1.4468   -4.7457   -0.0317 N.pl3     1 <0>        -0.3647
     11 C10         2.0141   -5.5993    0.8410 C.2       1 <0>         0.2615
     12 N2          3.2621   -5.7699    0.4961 N.2       1 <0>        -0.5254
     13 C11         3.5349   -5.0412   -0.5958 C.2       1 <0>         0.2581
     14 N3          2.4444   -4.3995   -0.9576 N.2       1 <0>        -0.2410
     15 C12         4.8444   -4.9743   -1.2840 C.2       1 <0>         0.4580
     16 N4          4.9870   -4.2276   -2.3393 N.2       1 <0>        -0.3888
     17 O1          6.2391   -4.1637   -2.9974 O.3       1 <0>        -0.4161
     18 N5          5.9170   -5.7069   -0.8040 N.pl3     1 <0>        -0.8547
     19 C13         0.0274   -2.8172   -2.5157 C.3       1 <0>        -0.1208
     20 H1          1.0042    1.8801    0.0026 H         1 <0>         0.0731
     21 H2         -0.5455    1.8639   -0.8728 H         1 <0>         0.0688
     22 H3         -0.5286    1.8543    0.9071 H         1 <0>         0.0681
     23 H4         -0.0064   -0.1436   -2.1312 H         1 <0>         0.1244
     24 H5          0.0245   -0.1667    2.1335 H         1 <0>         0.1233
     25 H6          1.0853   -3.0144    2.7970 H         1 <0>         0.0719
     26 H7         -0.4637   -2.2661    3.2541 H         1 <0>         0.0725
     27 H8         -0.4484   -3.8026    2.3557 H         1 <0>         0.0675
     28 H9         -0.4447   -4.6501    0.8693 H         1 <0>         0.1157
     29 H10        -0.4546   -4.6404   -0.9106 H         1 <0>         0.1043
     30 H11         1.5216   -6.0633    1.6827 H         1 <0>         0.2258
     31 H12         6.2478   -3.5833   -3.7708 H         1 <0>         0.4047
     32 H13         5.8106   -6.2638   -0.0170 H         1 <0>         0.4068
     33 H14         6.7747   -5.6631   -1.2549 H         1 <0>         0.4127
     34 H15         1.0557   -2.9832   -2.8370 H         1 <0>         0.0864
     35 H16        -0.4727   -3.7772   -2.3878 H         1 <0>         0.0641
     36 H17        -0.4985   -2.2310   -3.2693 H         1 <0>         0.0667
@<TRIPOS>BOND
     1    1    2 1
     2    1   20 1
     3    1   21 1
     4    1   22 1
     5    2    7 ar
     6    2    3 ar
     7    3    4 ar
     8    3   23 1
     9    4    5 ar
    10    4   19 1
    11    5    6 ar
    12    5    9 1
    13    6    7 ar
    14    6    8 1
    15    7   24 1
    16    8   25 1
    17    8   26 1
    18    8   27 1
    19    9   10 1
    20    9   28 1
    21    9   29 1
    22   10   14 1
    23   10   11 1
    24   11   12 2
    25   11   30 1
    26   12   13 1
    27   13   14 2
    28   13   15 1
    29   15   16 2
    30   15   18 1
    31   16   17 1
    32   17   31 1
    33   18   32 1
    34   18   33 1
    35   19   34 1
    36   19   35 1
    37   19   36 1
@<TRIPOS>MOLECULE
ZINC05015632
   24    25     0     0     0
SMALL
USER_CHARGES
(5-phenyl-6H-1,3,4-thiadiazin-2-yl)hydrazine
@<TRIPOS>ATOM
      1 C1         -1.2214    1.7496    0.0173 C.ar      1 <0>        -0.1078
      2 C2         -0.0126    1.0758    0.0080 C.ar      1 <0>        -0.1222
      3 C3          1.1731    1.7797    0.0004 C.ar      1 <0>        -0.0774
      4 C4          1.1520    3.1779    0.0077 C.ar      1 <0>        -0.0369
      5 C5         -0.0736    3.8514    0.0225 C.ar      1 <0>        -0.1040
      6 C6         -1.2507    3.1333    0.0299 C.ar      1 <0>        -0.1213
      7 C7          2.4129    3.9368    0.0002 C.2       1 <0>         0.0935
      8 N1          3.5309    3.2925   -0.0131 N.2       1 <0>        -0.2416
      9 N2          4.7022    3.7853   -0.0001 N.2       1 <0>        -0.3533
     10 C8          5.0079    4.9941    0.4111 C.2       1 <0>         0.3457
     11 S1          3.7354    6.0564    1.0215 S.3       1 <0>        -0.0990
     12 C9          2.3594    5.4451    0.0020 C.3       1 <0>        -0.0949
     13 N3          6.3086    5.4300    0.3665 N.pl3     1 <0>        -0.5189
     14 N4          7.2895    4.6054   -0.1067 N.3       1 <0>        -0.5929
     15 H1         -2.1468    1.1928    0.0187 H         1 <0>         0.1244
     16 H2          0.0021   -0.0041    0.0020 H         1 <0>         0.1270
     17 H3          2.1156    1.2525   -0.0114 H         1 <0>         0.1362
     18 H4         -0.0980    4.9311    0.0278 H         1 <0>         0.1250
     19 H5         -2.1979    3.6519    0.0410 H         1 <0>         0.1266
     20 H6          2.4595    5.8178   -1.0174 H         1 <0>         0.1124
     21 H7          1.4118    5.7789    0.4248 H         1 <0>         0.1429
     22 H8          6.5314    6.3236    0.6710 H         1 <0>         0.4195
     23 H9          7.0746    4.2860   -1.0394 H         1 <0>         0.3538
     24 H10         8.1894    5.0609   -0.0789 H         1 <0>         0.3630
@<TRIPOS>BOND
     1    1    6 ar
     2    1    2 ar
     3    1   15 1
     4    2    3 ar
     5    2   16 1
     6    3    4 ar
     7    3   17 1
     8    4    5 ar
     9    4    7 1
    10    5    6 ar
    11    5   18 1
    12    6   19 1
    13    7   12 1
    14    7    8 2
    15    8    9 1
    16    9   10 2
    17   10   11 1
    18   10   13 1
    19   11   12 1
    20   12   20 1
    21   12   21 1
    22   13   14 1
    23   13   22 1
    24   14   23 1
    25   14   24 1
@<TRIPOS>MOLECULE
ZINC40354475
   30    31     0     0     0
SMALL
USER_CHARGES

@<TRIPOS>ATOM
      1 C1         -0.0200    1.5354   -0.0350 C.3       1 <0>        -0.1220
      2 C2          1.4524    1.9953   -0.0489 C.3       1 <0>        -0.1258
      3 C3          2.2282    0.8043    0.5666 C.3       1 <0>        -0.1190
      4 C4          1.4842   -0.4243   -0.0131 C.3       1 <0>         0.1817
      5 C5          0.0002   -0.0031   -0.0122 C.3       1 <0>        -0.1198
      6 C6          1.6908   -1.6297    0.8675 C.2       1 <0>         0.2829
      7 S1          2.4808   -1.4839    2.2500 S.2       1 <0>        -0.4056
      8 N1          1.2097   -2.8307    0.4897 N.pl3     1 <0>        -0.7806
      9 N2          1.9378   -0.7013   -1.3783 N.am      1 <0>        -0.7198
     10 C7          3.2094   -1.0888   -1.6003 C.2       1 <0>         0.5366
     11 O1          4.0022   -1.1220   -0.6831 O.2       1 <0>        -0.5084
     12 C8          3.6462   -1.4810   -2.9883 C.3       1 <0>        -0.1982
     13 C9          3.9832   -2.9532   -3.2333 C.3       1 <0>        -0.1524
     14 C10         5.1024   -1.9115   -3.1754 C.3       1 <0>        -0.1440
     15 H1         -0.5215    1.9154    0.8550 H         1 <0>         0.0732
     16 H2         -0.5301    1.8889   -0.9311 H         1 <0>         0.0692
     17 H3          1.7848    2.1800   -1.0705 H         1 <0>         0.0636
     18 H4          1.5786    2.8893    0.5618 H         1 <0>         0.0745
     19 H5          3.2692    0.8132    0.2437 H         1 <0>         0.0875
     20 H6          2.1598    0.8195    1.6543 H         1 <0>         0.1089
     21 H7         -0.4915   -0.3696    0.8889 H         1 <0>         0.0832
     22 H8         -0.5000   -0.3962   -0.8973 H         1 <0>         0.0768
     23 H9          0.7947   -2.9348   -0.3808 H         1 <0>         0.3935
     24 H10         1.2785   -3.5908    1.0883 H         1 <0>         0.4172
     25 H11         1.3230   -0.6058   -2.1224 H         1 <0>         0.4043
     26 H12         3.1757   -0.9298   -3.8025 H         1 <0>         0.1243
     27 H13         3.8890   -3.6380   -2.3906 H         1 <0>         0.0971
     28 H14         3.7343   -3.3708   -4.2089 H         1 <0>         0.1061
     29 H15         5.5898   -1.6439   -4.1129 H         1 <0>         0.1055
     30 H16         5.7445   -1.9111   -2.2947 H         1 <0>         0.1096
@<TRIPOS>BOND
     1    1    5 1
     2    1    2 1
     3    1   15 1
     4    1   16 1
     5    2    3 1
     6    2   17 1
     7    2   18 1
     8    3    4 1
     9    3   19 1
    10    3   20 1
    11    4    5 1
    12    4    6 1
    13    4    9 1
    14    5   21 1
    15    5   22 1
    16    6    7 2
    17    6    8 1
    18    8   23 1
    19    8   24 1
    20    9   10 am
    21    9   25 1
    22   10   11 2
    23   10   12 1
    24   12   14 1
    25   12   13 1
    26   12   26 1
    27   13   14 1
    28   13   27 1
    29   13   28 1
    30   14   29 1
    31   14   30 1
@<TRIPOS>MOLECULE
ZINC44551889
   32    33     0     0     0
SMALL
USER_CHARGES

@<TRIPOS>ATOM
      1 C1          1.3060   -0.8190   -0.0735 C.ar      1 <0>        -0.1718
      2 C2          2.4772   -0.0868   -0.0814 C.ar      1 <0>        -0.1021
      3 C3          2.4501    1.2675    0.2058 C.ar      1 <0>         0.0402
      4 C4          1.2496    1.8907    0.5018 C.ar      1 <0>        -0.1006
      5 C5          0.0761    1.1623    0.5112 C.ar      1 <0>        -0.1682
      6 C6          0.1007   -0.1959    0.2226 C.ar      1 <0>         0.2077
      7 N1         -1.0861   -0.9350    0.2307 N.pl3     1 <0>        -0.6296
      8 C7         -2.3492   -0.3171    0.6582 C.3       1 <0>         0.1069
      9 C8         -3.3830   -0.4901   -0.4614 C.3       1 <0>         0.0908
     10 N2         -3.3898   -1.8986   -0.8808 N.pl3     1 <0>        -0.5703
     11 C9         -2.1268   -2.5165   -1.3082 C.3       1 <0>         0.0802
     12 C10        -1.0940   -2.3420   -0.1939 C.3       1 <0>         0.1087
     13 C11        -4.5339   -2.6111   -0.8730 C.2       1 <0>         0.5643
     14 S1         -6.0178   -1.8435   -0.4990 S.2       1 <0>        -0.6082
     15 N3         -4.5097   -3.9278   -1.1596 N.pl3     1 <0>        -0.5330
     16 N4         -5.6790   -4.6276   -1.2549 N.3       1 <0>        -0.5784
     17 F1          3.5968    1.9817    0.1975 F         1 <0>        -0.1444
     18 H1          1.3270   -1.8744   -0.3019 H         1 <0>         0.1311
     19 H2          3.4147   -0.5710   -0.3113 H         1 <0>         0.1351
     20 H3          1.2309    2.9470    0.7258 H         1 <0>         0.1365
     21 H4         -0.8599    1.6487    0.7429 H         1 <0>         0.1350
     22 H5         -2.7067   -0.8052    1.5649 H         1 <0>         0.0749
     23 H6         -2.1909    0.7443    0.8492 H         1 <0>         0.1044
     24 H7         -4.3708   -0.2132   -0.0932 H         1 <0>         0.1391
     25 H8         -3.1149    0.1422   -1.3078 H         1 <0>         0.0842
     26 H9         -2.2850   -3.5779   -1.4993 H         1 <0>         0.0850
     27 H10        -1.7692   -2.0285   -2.2149 H         1 <0>         0.0912
     28 H11        -0.1070   -2.6175   -0.5656 H         1 <0>         0.1021
     29 H12        -1.3601   -2.9775    0.6506 H         1 <0>         0.0719
     30 H13        -3.6621   -4.3785   -1.2983 H         1 <0>         0.3923
     31 H14        -6.2328   -4.3022   -2.0330 H         1 <0>         0.3604
     32 H15        -5.5026   -5.6185   -1.3259 H         1 <0>         0.3647
@<TRIPOS>BOND
     1    1    6 ar
     2    1    2 ar
     3    1   18 1
     4    2    3 ar
     5    2   19 1
     6    3    4 ar
     7    3   17 1
     8    4    5 ar
     9    4   20 1
    10    5    6 ar
    11    5   21 1
    12    6    7 1
    13    7   12 1
    14    7    8 1
    15    8    9 1
    16    8   22 1
    17    8   23 1
    18    9   10 1
    19    9   24 1
    20    9   25 1
    21   10   11 1
    22   10   13 1
    23   11   12 1
    24   11   26 1
    25   11   27 1
    26   12   28 1
    27   12   29 1
    28   13   14 2
    29   13   15 1
    30   15   16 1
    31   15   30 1
    32   16   31 1
    33   16   32 1
@<TRIPOS>MOLECULE
ZINC54153669
   28    27     0     0     0
SMALL
USER_CHARGES

@<TRIPOS>ATOM
      1 C1         -0.0187    1.5258    0.0104 C.3       1 <0>        -0.1441
      2 C2          0.0021   -0.0041    0.0020 C.3       1 <0>        -0.0954
      3 H1          0.5293   -0.3651    0.8851 H         1 <0>         0.1036
      4 C3         -1.4333   -0.5336    0.0129 C.3       1 <0>         0.1339
      5 N1         -2.0815   -0.1618    1.2729 N.am      1 <0>        -0.7355
      6 C4         -3.3585   -0.5240    1.5064 C.2       1 <0>         0.5151
      7 O1         -3.9711   -1.1578    0.6733 O.2       1 <0>        -0.5286
      8 C5         -4.0253   -0.1414    2.8026 C.3       1 <0>        -0.1148
      9 C6         -4.0429    1.3826    2.9367 C.3       1 <0>        -0.1447
     10 C7         -5.4607   -0.6710    2.8135 C.3       1 <0>        -0.1349
     11 C8          0.7074   -0.4901   -1.2379 C.2       1 <0>         0.2864
     12 S1         -0.1229   -1.2080   -2.4006 S.2       1 <0>        -0.4315
     13 N2          2.0382   -0.3195   -1.3667 N.pl3     1 <0>        -0.7787
     14 H2          1.0039    1.9031    0.0027 H         1 <0>         0.0619
     15 H3         -0.5459    1.8868   -0.8726 H         1 <0>         0.0711
     16 H4         -0.5289    1.8773    0.9072 H         1 <0>         0.0749
     17 H5         -1.9862   -0.1019   -0.8214 H         1 <0>         0.0907
     18 H6         -1.4207   -1.6194   -0.0826 H         1 <0>         0.0838
     19 H7         -1.5916    0.3451    1.9392 H         1 <0>         0.3963
     20 H8         -3.4724   -0.5732    3.6369 H         1 <0>         0.0965
     21 H9         -4.5252    1.6593    3.8742 H         1 <0>         0.0692
     22 H10        -3.0204    1.7599    2.9289 H         1 <0>         0.0572
     23 H11        -4.5958    1.8143    2.1024 H         1 <0>         0.0623
     24 H12        -5.4481   -1.7567    2.7179 H         1 <0>         0.0626
     25 H13        -5.9430   -0.3943    3.7510 H         1 <0>         0.0622
     26 H14        -6.0136   -0.2392    1.9792 H         1 <0>         0.0632
     27 H15         2.5419    0.1160   -0.6614 H         1 <0>         0.3973
     28 H16         2.4922   -0.6324   -2.1648 H         1 <0>         0.4201
@<TRIPOS>BOND
     1    1    2 1
     2    1   14 1
     3    1   15 1
     4    1   16 1
     5    2    3 1
     6    2    4 1
     7    2   11 1
     8    4    5 1
     9    4   17 1
    10    4   18 1
    11    5    6 am
    12    5   19 1
    13    6    7 2
    14    6    8 1
    15    8    9 1
    16    8   10 1
    17    8   20 1
    18    9   21 1
    19    9   22 1
    20    9   23 1
    21   10   24 1
    22   10   25 1
    23   10   26 1
    24   11   12 2
    25   11   13 1
    26   13   27 1
    27   13   28 1
@<TRIPOS>MOLECULE
ZINC61367492
   29    29     0     0     0
SMALL
USER_CHARGES

@<TRIPOS>ATOM
      1 C1         -0.9071    1.2387   -1.1123 C.3       1 <0>        -0.1571
      2 C2         -0.7635   -0.2845   -1.1190 C.3       1 <0>         0.2018
      3 H1         -0.5541   -0.6342   -0.1081 H         1 <0>         0.1003
      4 C3         -2.0444   -0.9077   -1.6109 C.2       1 <0>        -0.1207
      5 C4         -2.9623   -1.4240   -0.7157 C.2       1 <0>        -0.1496
      6 C5         -4.1045   -1.9777   -1.1912 C.2       1 <0>        -0.1643
      7 S1         -3.9055   -1.7781   -2.9541 S.3       1 <0>         0.0415
      8 C6         -2.3161   -0.9652   -2.9376 C.2       1 <0>        -0.1776
      9 N1          0.3379   -0.6673   -2.0060 N.am      1 <0>        -0.7204
     10 C7          1.6034   -0.6793   -1.5424 C.2       1 <0>         0.5432
     11 O1          1.8304   -0.3732   -0.3910 O.2       1 <0>        -0.5051
     12 C8          2.7363   -1.0730   -2.4548 C.3       1 <0>        -0.1024
     13 H2          2.4795   -0.8194   -3.4833 H         1 <0>         0.1094
     14 C9          4.0050   -0.3218   -2.0460 C.3       1 <0>        -0.1324
     15 C10         2.9749   -2.5571   -2.3479 C.2       1 <0>         0.2831
     16 S2          2.3871   -3.3739   -1.1053 S.2       1 <0>        -0.4113
     17 N2          3.6836   -3.1960   -3.2997 N.pl3     1 <0>        -0.7780
     18 H3          0.0194    1.6894   -0.7564 H         1 <0>         0.0657
     19 H4         -1.1164    1.5884   -2.1232 H         1 <0>         0.0576
     20 H5         -1.7266    1.5235   -0.4523 H         1 <0>         0.0688
     21 H6         -2.7721   -1.3872    0.3468 H         1 <0>         0.1382
     22 H7         -4.9225   -2.4241   -0.6453 H         1 <0>         0.1883
     23 H8         -1.7243   -0.6119   -3.7691 H         1 <0>         0.1815
     24 H9          0.1564   -0.9120   -2.9268 H         1 <0>         0.3946
     25 H10         4.2619   -0.5754   -1.0175 H         1 <0>         0.0814
     26 H11         4.8245   -0.6066   -2.7059 H         1 <0>         0.0661
     27 H12         3.8325    0.7517   -2.1233 H         1 <0>         0.0784
     28 H13         4.0402   -2.7006   -4.0536 H         1 <0>         0.3979
     29 H14         3.8371   -4.1513   -3.2309 H         1 <0>         0.4212
@<TRIPOS>BOND
     1    1    2 1
     2    1   18 1
     3    1   19 1
     4    1   20 1
     5    2    3 1
     6    2    4 1
     7    2    9 1
     8    4    8 2
     9    4    5 1
    10    5    6 2
    11    5   21 1
    12    6    7 1
    13    6   22 1
    14    7    8 1
    15    8   23 1
    16    9   10 am
    17    9   24 1
    18   10   11 2
    19   10   12 1
    20   12   13 1
    21   12   14 1
    22   12   15 1
    23   14   25 1
    24   14   26 1
    25   14   27 1
    26   15   16 2
    27   15   17 1
    28   17   28 1
    29   17   29 1
@<TRIPOS>MOLECULE
ZINC05033808
   44    46     0     0     0
SMALL
USER_CHARGES
3-(2-chlorophenyl)-1-[2-(2,5-dimethyl-1H-indol-3-yl)ethyl]thiourea
@<TRIPOS>ATOM
      1 C1         -3.6119   -3.4207   -3.2238 C.3       1 <0>        -0.1112
      2 C2         -2.4594   -2.5089   -3.5575 C.ar      1 <0>        -0.1084
      3 C3         -1.6736   -2.7717   -4.6715 C.ar      1 <0>        -0.0974
      4 C4         -0.6152   -1.9512   -4.9941 C.ar      1 <0>        -0.1244
      5 C5         -0.3287   -0.8473   -4.1972 C.ar      1 <0>         0.0925
      6 C6         -1.1280   -0.5854   -3.0697 C.ar      1 <0>        -0.0903
      7 C7         -2.1959   -1.4304   -2.7612 C.ar      1 <0>        -0.0746
      8 C8         -0.5763    0.6242   -2.4546 C.2       1 <0>        -0.1761
      9 C9          0.4659    1.0076   -3.2089 C.2       1 <0>         0.0967
     10 N1          0.6325    0.1369   -4.2512 N.pl3     1 <0>        -0.5907
     11 H1          1.3226    0.2053   -4.9295 H         1 <0>         0.4155
     12 C10         1.3270    2.2158   -2.9448 C.3       1 <0>        -0.0986
     13 C11        -1.0860    1.3116   -1.2142 C.3       1 <0>        -0.0523
     14 C12        -0.3824    0.7331    0.0151 C.3       1 <0>         0.1275
     15 N2         -0.8779    1.4013    1.2210 N.pl3     1 <0>        -0.6764
     16 C13        -0.3969    1.0523    2.4307 C.2       1 <0>         0.5573
     17 S1          0.7931   -0.1718    2.5581 S.2       1 <0>        -0.6098
     18 N3         -0.8528    1.6671    3.5401 N.pl3     1 <0>        -0.6341
     19 C14        -0.4209    1.2438    4.8022 C.ar      1 <0>         0.1330
     20 C15         0.9307    1.0328    5.0406 C.ar      1 <0>        -0.0544
     21 C16         1.3543    0.6192    6.2885 C.ar      1 <0>        -0.1095
     22 C17         0.4332    0.4053    7.2977 C.ar      1 <0>        -0.0981
     23 C18        -0.9140    0.6095    7.0631 C.ar      1 <0>        -0.1101
     24 C19        -1.3443    1.0280    5.8180 C.ar      1 <0>        -0.0396
     25 Cl1        -3.0360    1.2833    5.5235 Cl        1 <0>        -0.0672
     26 H2         -4.5140   -3.0625   -3.7197 H         1 <0>         0.0672
     27 H3         -3.3864   -4.4310   -3.5651 H         1 <0>         0.0651
     28 H4         -3.7687   -3.4281   -2.1452 H         1 <0>         0.0643
     29 H5         -1.8945   -3.6279   -5.2915 H         1 <0>         0.1255
     30 H6         -0.0095   -2.1643   -5.8625 H         1 <0>         0.1204
     31 H7         -2.8117   -1.2319   -1.8965 H         1 <0>         0.1189
     32 H8          2.1628    1.9334   -2.3047 H         1 <0>         0.0816
     33 H9          1.7078    2.6041   -3.8894 H         1 <0>         0.0702
     34 H10         0.7331    2.9839   -2.4492 H         1 <0>         0.0843
     35 H11        -2.1607    1.1524   -1.1262 H         1 <0>         0.0767
     36 H12        -0.8812    2.3801   -1.2807 H         1 <0>         0.0759
     37 H13        -0.5871   -0.3354    0.0816 H         1 <0>         0.0917
     38 H14         0.6923    0.8923   -0.0729 H         1 <0>         0.0900
     39 H15        -1.5521    2.0949    1.1488 H         1 <0>         0.3989
     40 H16        -1.4802    2.4029    3.4637 H         1 <0>         0.4076
     41 H17         1.6505    1.1957    4.2520 H         1 <0>         0.1538
     42 H18         2.4058    0.4584    6.4751 H         1 <0>         0.1356
     43 H19         0.7670    0.0776    8.2711 H         1 <0>         0.1352
     44 H20        -1.6308    0.4415    7.8533 H         1 <0>         0.1379
@<TRIPOS>BOND
     1    1    2 1
     2    1   26 1
     3    1   27 1
     4    1   28 1
     5    2    7 ar
     6    2    3 ar
     7    3    4 ar
     8    3   29 1
     9    4    5 ar
    10    4   30 1
    11    5   10 1
    12    5    6 ar
    13    6    7 ar
    14    6    8 1
    15    7   31 1
    16    8    9 2
    17    8   13 1
    18    9   10 1
    19    9   12 1
    20   10   11 1
    21   12   32 1
    22   12   33 1
    23   12   34 1
    24   13   14 1
    25   13   35 1
    26   13   36 1
    27   14   15 1
    28   14   37 1
    29   14   38 1
    30   15   16 1
    31   15   39 1
    32   16   17 2
    33   16   18 1
    34   18   19 1
    35   18   40 1
    36   19   24 ar
    37   19   20 ar
    38   20   21 ar
    39   20   41 1
    40   21   22 ar
    41   21   42 1
    42   22   23 ar
    43   22   43 1
    44   23   24 ar
    45   23   44 1
    46   24   25 1
@<TRIPOS>MOLECULE
ZINC12610597
   39    41     0     0     0
SMALL
USER_CHARGES
1-(4-chlorophenyl)-3-(4,5,6,7-tetrahydrobenzothiophen-3-ylcarbonylamino)thiourea
@<TRIPOS>ATOM
      1 C1         -2.0924    1.4934    1.1136 C.ar      1 <0>        -0.1067
      2 C2         -3.3116    2.1421    1.1227 C.ar      1 <0>        -0.1061
      3 C3         -3.6993    2.9044    0.0348 C.ar      1 <0>        -0.0247
      4 C4         -2.8641    3.0244   -1.0620 C.ar      1 <0>        -0.1022
      5 C5         -1.6411    2.3829   -1.0737 C.ar      1 <0>        -0.0565
      6 C6         -1.2498    1.6169    0.0166 C.ar      1 <0>         0.1206
      7 N1         -0.0111    0.9658    0.0074 N.pl3     1 <0>        -0.6323
      8 C7          1.0931    1.6239   -0.3980 C.2       1 <0>         0.5528
      9 S1          0.9651    3.2220   -0.9984 S.2       1 <0>        -0.5572
     10 N2          2.2980    1.0237   -0.3308 N.pl3     1 <0>        -0.4576
     11 N3          2.4027   -0.2841    0.1605 N.am      1 <0>        -0.5501
     12 C8          3.6076   -0.8842    0.2277 C.2       1 <0>         0.5834
     13 O1          4.6041   -0.2903   -0.1381 O.2       1 <0>        -0.5081
     14 C9          3.7177   -2.2582    0.7439 C.2       1 <0>        -0.1622
     15 C10         2.6039   -2.9515    1.1637 C.2       1 <0>        -0.1868
     16 S2          3.2526   -4.4781    1.6651 S.3       1 <0>         0.1615
     17 C11         4.9640   -4.1860    1.3187 C.2       1 <0>        -0.1662
     18 C12         5.0019   -2.9285    0.8215 C.2       1 <0>        -0.0701
     19 C13         6.3207   -2.2903    0.4037 C.3       1 <0>        -0.0575
     20 C14         7.4710   -3.0709    1.0425 C.3       1 <0>        -0.1245
     21 C15         7.3225   -4.5636    0.7346 C.3       1 <0>        -0.1161
     22 C16         6.1218   -5.1137    1.5184 C.3       1 <0>        -0.0415
     23 Cl1        -5.2360    3.7121    0.0462 Cl        1 <0>        -0.0635
     24 H1         -1.7925    0.8944    1.9607 H         1 <0>         0.1339
     25 H2         -3.9650    2.0506    1.9777 H         1 <0>         0.1402
     26 H3         -3.1687    3.6206   -1.9095 H         1 <0>         0.1416
     27 H4         -0.9895    2.4772   -1.9298 H         1 <0>         0.1576
     28 H5          0.0522    0.0398    0.2889 H         1 <0>         0.4007
     29 H6          3.0926    1.4973   -0.6226 H         1 <0>         0.4628
     30 H7          1.6081   -0.7577    0.4523 H         1 <0>         0.4175
     31 H8          1.5752   -2.6231    1.1771 H         1 <0>         0.1880
     32 H9          6.3511   -1.2540    0.7400 H         1 <0>         0.0919
     33 H10         6.4138   -2.3252   -0.6818 H         1 <0>         0.0799
     34 H11         7.4550   -2.9205    2.1220 H         1 <0>         0.0660
     35 H12         8.4181   -2.7108    0.6409 H         1 <0>         0.0732
     36 H13         8.2278   -5.0906    1.0359 H         1 <0>         0.0766
     37 H14         7.1566   -4.7036   -0.3335 H         1 <0>         0.0695
     38 H15         6.3694   -5.1692    2.5785 H         1 <0>         0.0875
     39 H16         5.8649   -6.1065    1.1489 H         1 <0>         0.0852
@<TRIPOS>BOND
     1    1    6 ar
     2    1    2 ar
     3    1   24 1
     4    2    3 ar
     5    2   25 1
     6    3    4 ar
     7    3   23 1
     8    4    5 ar
     9    4   26 1
    10    5    6 ar
    11    5   27 1
    12    6    7 1
    13    7    8 1
    14    7   28 1
    15    8    9 2
    16    8   10 1
    17   10   11 1
    18   10   29 1
    19   11   12 am
    20   11   30 1
    21   12   13 2
    22   12   14 1
    23   14   18 1
    24   14   15 2
    25   15   16 1
    26   15   31 1
    27   16   17 1
    28   17   22 1
    29   17   18 2
    30   18   19 1
    31   19   20 1
    32   19   32 1
    33   19   33 1
    34   20   21 1
    35   20   34 1
    36   20   35 1
    37   21   22 1
    38   21   36 1
    39   21   37 1
    40   22   38 1
    41   22   39 1
@<TRIPOS>MOLECULE
ZINC15844650
   42    43     0     0     0
SMALL
USER_CHARGES
1-(2,3-dimethylphenyl)-3-[[(E)-3-(4-fluorophenyl)prop-2-enoyl]amino]thiourea
@<TRIPOS>ATOM
      1 C1          2.8520   -0.7505    1.8458 C.3       1 <0>        -0.1167
      2 C2          1.9885    0.0076    0.8708 C.ar      1 <0>        -0.0816
      3 C3          1.2110   -0.6802   -0.0431 C.ar      1 <0>        -0.1065
      4 C4          0.4176    0.0116   -0.9396 C.ar      1 <0>        -0.1110
      5 C5          0.3989    1.3927   -0.9247 C.ar      1 <0>        -0.0723
      6 C6          1.1780    2.0863   -0.0081 C.ar      1 <0>         0.1243
      7 C7          1.9739    1.3883    0.8911 C.ar      1 <0>        -0.0873
      8 C8          2.8207    2.1370    1.8879 C.3       1 <0>        -0.1215
      9 N1          1.1617    3.4850    0.0092 N.pl3     1 <0>        -0.6286
     10 C9         -0.0093    4.1464   -0.0782 C.2       1 <0>         0.5533
     11 S1         -1.4852    3.2789   -0.0690 S.2       1 <0>        -0.5620
     12 N2         -0.0185    5.4908   -0.1729 N.pl3     1 <0>        -0.4632
     13 N3          1.1893    6.2008   -0.1804 N.am      1 <0>        -0.5480
     14 C10         1.1801    7.5452   -0.2751 C.2       1 <0>         0.5596
     15 O1          0.1226    8.1425   -0.3541 O.2       1 <0>        -0.5228
     16 C11         2.4417    8.2868   -0.2829 C.2       1 <0>        -0.2235
     17 C12         2.4325    9.6323   -0.3777 C.2       1 <0>         0.0145
     18 C13         3.7007   10.3778   -0.3856 C.ar      1 <0>        -0.0994
     19 C14         4.9178    9.6947   -0.2891 C.ar      1 <0>        -0.0670
     20 C15         6.1022   10.3986   -0.3015 C.ar      1 <0>        -0.1569
     21 C16         6.0893   11.7819   -0.3995 C.ar      1 <0>         0.1188
     22 C17         4.8860   12.4656   -0.4901 C.ar      1 <0>        -0.1563
     23 C18         3.6947   11.7733   -0.4837 C.ar      1 <0>        -0.0571
     24 F1          7.2539   12.4666   -0.4063 F         1 <0>        -0.1330
     25 H1          3.8362   -0.9155    1.4073 H         1 <0>         0.0714
     26 H2          2.9558   -0.1731    2.7644 H         1 <0>         0.0696
     27 H3          2.3888   -1.7111    2.0707 H         1 <0>         0.0689
     28 H4          1.2238   -1.7600   -0.0567 H         1 <0>         0.1259
     29 H5         -0.1884   -0.5285   -1.6520 H         1 <0>         0.1297
     30 H6         -0.2176    1.9326   -1.6282 H         1 <0>         0.1387
     31 H7          3.8012    2.3355    1.4552 H         1 <0>         0.0723
     32 H8          2.3367    3.0806    2.1396 H         1 <0>         0.0586
     33 H9          2.9366    1.5362    2.7900 H         1 <0>         0.0803
     34 H10         1.9933    3.9788    0.0842 H         1 <0>         0.3990
     35 H11        -0.8613    5.9669   -0.2358 H         1 <0>         0.4615
     36 H12         2.0321    5.7247   -0.1175 H         1 <0>         0.4209
     37 H13         3.3801    7.7568   -0.2129 H         1 <0>         0.1374
     38 H14         1.4941   10.1623   -0.4478 H         1 <0>         0.1436
     39 H15         4.9291    8.6177   -0.2090 H         1 <0>         0.1386
     40 H16         7.0426    9.8722   -0.2312 H         1 <0>         0.1421
     41 H17         4.8828   13.5429   -0.5655 H         1 <0>         0.1432
     42 H18         2.7583   12.3069   -0.5540 H         1 <0>         0.1424
@<TRIPOS>BOND
     1    1    2 1
     2    1   25 1
     3    1   26 1
     4    1   27 1
     5    2    7 ar
     6    2    3 ar
     7    3    4 ar
     8    3   28 1
     9    4    5 ar
    10    4   29 1
    11    5    6 ar
    12    5   30 1
    13    6    7 ar
    14    6    9 1
    15    7    8 1
    16    8   31 1
    17    8   32 1
    18    8   33 1
    19    9   10 1
    20    9   34 1
    21   10   11 2
    22   10   12 1
    23   12   13 1
    24   12   35 1
    25   13   14 am
    26   13   36 1
    27   14   15 2
    28   14   16 1
    29   16   17 2
    30   16   37 1
    31   17   18 1
    32   17   38 1
    33   18   23 ar
    34   18   19 ar
    35   19   20 ar
    36   19   39 1
    37   20   21 ar
    38   20   40 1
    39   21   22 ar
    40   21   24 1
    41   22   23 ar
    42   22   41 1
    43   23   42 1
@<TRIPOS>MOLECULE
ZINC40366454
   40    41     0     0     0
SMALL
USER_CHARGES

@<TRIPOS>ATOM
      1 C1         -4.0031    0.0420   -4.1381 C.2       1 <0>         0.0092
      2 C2         -4.2694    0.0792   -5.4944 C.2       1 <0>        -0.1790
      3 C3         -3.2432    0.2713   -6.3605 C.2       1 <0>        -0.0949
      4 S1         -1.8478    0.4069   -5.2551 S.3       1 <0>         0.2781
      5 C4         -2.7254    0.1985   -3.7145 C.2       1 <0>        -0.7778
      6 S2         -2.0940    0.1968   -2.0695 S.o2      1 <0>         2.7165
      7 O1         -0.7935    0.7658   -2.1332 O.2       1 <0>        -0.9304
      8 O2         -3.1185    0.7285   -1.2407 O.2       1 <0>        -0.9445
      9 N1         -1.8970   -1.3855   -1.6224 N.pl3     1 <0>        -1.1067
     10 C5         -0.8721   -2.2080   -2.2709 C.3       1 <0>         0.2344
     11 C6         -0.5674   -3.4575   -1.4850 C.3       1 <0>        -0.1123
     12 C7         -1.5540   -4.6095   -1.5104 C.3       1 <0>        -0.1144
     13 C8         -2.9827   -4.1815   -1.1661 C.3       1 <0>        -0.1214
     14 C9         -3.8539   -4.3161   -2.4288 C.3       1 <0>        -0.1206
     15 C10        -3.5498   -3.1796   -3.4042 C.3       1 <0>        -0.1226
     16 C11        -2.2097   -3.4495   -4.0851 C.3       1 <0>        -0.1110
     17 C12        -1.1650   -2.4098   -3.7433 C.3       1 <0>        -0.1592
     18 C13         0.4062   -1.3528   -2.2168 C.2       1 <0>         0.2570
     19 S3          1.1965   -1.0101   -3.5639 S.2       1 <0>        -0.4198
     20 N2          0.8596   -0.8926   -1.0339 N.pl3     1 <0>        -0.7577
     21 Cl1        -3.2777    0.3619   -8.0937 Cl        1 <0>         0.0346
     22 H1         -4.8021   -0.1052   -3.4265 H         1 <0>         0.1519
     23 H2         -5.2788   -0.0432   -5.8586 H         1 <0>         0.1520
     24 H3         -2.4599   -1.7679   -0.9312 H         1 <0>         0.4231
     25 H4          0.4157   -3.8478   -1.8175 H         1 <0>         0.0842
     26 H5         -0.4074   -3.1734   -0.4254 H         1 <0>         0.0679
     27 H6         -1.5288   -5.1405   -2.4543 H         1 <0>         0.0813
     28 H7         -1.2409   -5.3423   -0.7404 H         1 <0>         0.0628
     29 H8         -3.3782   -4.8735   -0.4109 H         1 <0>         0.0617
     30 H9         -3.0260   -3.1817   -0.7755 H         1 <0>         0.0641
     31 H10        -3.6435   -5.2738   -2.9028 H         1 <0>         0.0674
     32 H11        -4.9034   -4.2763   -2.1370 H         1 <0>         0.0593
     33 H12        -4.3328   -3.1770   -4.1795 H         1 <0>         0.0550
     34 H13        -3.5726   -2.2223   -2.9119 H         1 <0>         0.0633
     35 H14        -1.8626   -4.4543   -3.8753 H         1 <0>         0.0761
     36 H15        -2.3857   -3.4129   -5.1791 H         1 <0>         0.0589
     37 H16        -1.4744   -1.4424   -4.1760 H         1 <0>         0.0794
     38 H17        -0.2230   -2.6752   -4.2550 H         1 <0>         0.1196
     39 H18         0.4237   -1.1608   -0.2099 H         1 <0>         0.3920
     40 H19         1.6217   -0.2932   -1.0066 H         1 <0>         0.4226
@<TRIPOS>BOND
     1    1    5 2
     2    1    2 1
     3    1   22 1
     4    2    3 2
     5    2   23 1
     6    3    4 1
     7    3   21 1
     8    4    5 1
     9    5    6 1
    10    6    7 2
    11    6    8 2
    12    6    9 1
    13    9   10 1
    14    9   24 1
    15   10   17 1
    16   10   11 1
    17   10   18 1
    18   11   12 1
    19   11   25 1
    20   11   26 1
    21   12   13 1
    22   12   27 1
    23   12   28 1
    24   13   14 1
    25   13   29 1
    26   13   30 1
    27   14   15 1
    28   14   31 1
    29   14   32 1
    30   15   16 1
    31   15   33 1
    32   15   34 1
    33   16   17 1
    34   16   35 1
    35   16   36 1
    36   17   37 1
    37   17   38 1
    38   18   19 2
    39   18   20 1
    40   20   39 1
    41   20   40 1
@<TRIPOS>MOLECULE
ZINC50997046
   41    42     0     0     0
SMALL
NO_CHARGES

@<TRIPOS>ATOM
      1 C1         -0.0187    1.5258    0.0104 C.3       1 <0>        -0.1550
      2 C2          0.0021   -0.0041    0.0020 C.3       1 <0>        -0.1212
      3 C3          0.7182   -0.4975   -1.2568 C.3       1 <0>        -0.0205
      4 C4          0.7386   -2.0043   -1.2651 C.cat     1 <0>         0.0151
      5 N1          1.6836   -2.7010   -0.7401 N.pl3     1 <0>        -0.6676
      6 C5          1.3683   -4.1244   -0.9371 C.3       1 <0>         0.2830
      7 C6          0.0479   -4.1040   -1.6832 C.cat     1 <0>        -0.0143
      8 N2         -0.2478   -2.7653   -1.8260 N.pl3     1 <0>        -0.3382
      9 C7         -1.4436   -2.2356   -2.4861 C.3       1 <0>         0.1241
     10 C8         -1.4750   -2.7087   -3.9407 C.3       1 <0>        -0.1635
     11 C9         -2.6924   -2.7385   -1.7592 C.3       1 <0>        -0.1625
     12 N3         -0.6466   -5.1152   -2.0898 N.pl3     1 <0>        -0.8252
     13 C10         1.2151   -4.8209    0.3905 C.ar      1 <0>        -0.1213
     14 C11         0.8817   -4.0941    1.5180 C.ar      1 <0>        -0.0706
     15 C12         0.7406   -4.7322    2.7357 C.ar      1 <0>        -0.1011
     16 C13         0.9333   -6.0992    2.8278 C.ar      1 <0>        -0.0722
     17 C14         1.2673   -6.8278    1.7012 C.ar      1 <0>        -0.1278
     18 C15         1.4027   -6.1897    0.4799 C.ar      1 <0>         0.1076
     19 F1          1.7236   -6.9013   -0.6228 F         1 <0>        -0.1324
     20 Br1         0.7405   -6.9710    4.4947 Br        1 <0>        -0.0412
     21 H1          1.0039    1.9031    0.0027 H         1 <0>         0.0543
     22 H2         -0.5459    1.8868   -0.8726 H         1 <0>         0.0524
     23 H3         -0.5289    1.8773    0.9072 H         1 <0>         0.0533
     24 H4          0.5293   -0.3651    0.8851 H         1 <0>         0.0608
     25 H5         -1.0205   -0.3814    0.0098 H         1 <0>         0.0565
     26 H6          0.1910   -0.1364   -2.1398 H         1 <0>         0.0640
     27 H7          1.7408   -0.1202   -1.2645 H         1 <0>         0.0720
     28 H8         -1.4212   -1.1462   -2.4587 H         1 <0>         0.1004
     29 H9         -1.4973   -3.7982   -3.9681 H         1 <0>         0.0660
     30 H10        -2.3647   -2.3146   -4.4319 H         1 <0>         0.0742
     31 H11        -0.5853   -2.3505   -4.4586 H         1 <0>         0.0656
     32 H12        -2.6701   -2.4014   -0.7228 H         1 <0>         0.0643
     33 H13        -3.5821   -2.3444   -2.2503 H         1 <0>         0.0745
     34 H14        -2.7148   -3.8279   -1.7865 H         1 <0>         0.0652
     35 H15        -0.3319   -6.0177   -1.9244 H         1 <0>         0.4016
     36 H16         2.1407   -4.6082   -1.5349 H         1 <0>         0.0528
     37 H17         0.7318   -3.0268    1.4473 H         1 <0>         0.1397
     38 H18         0.4801   -4.1634    3.6161 H         1 <0>         0.1353
     39 H19         1.4185   -7.8948    1.7730 H         1 <0>         0.1423
     40 H20        -1.4826   -4.9717   -2.5603 H         1 <0>         0.3867
     41 H21         2.4686   -2.3489   -0.2921 H         1 <0>         0.4228
@<TRIPOS>BOND
     1    1    2 1
     2    1   21 1
     3    1   22 1
     4    1   23 1
     5    2    3 1
     6    2   24 1
     7    2   25 1
     8    3   26 1
     9    3   27 1
    10    3    4 1
    11    4    5 2
    12    4    8 1
    13    5    6 1
    14    5   41 1
    15    6   13 1
    16    6   36 1
    17    6    7 1
    18    7    8 1
    19    7   12 2
    20    8    9 1
    21    9   10 1
    22    9   11 1
    23    9   28 1
    24   10   29 1
    25   10   30 1
    26   10   31 1
    27   11   32 1
    28   11   33 1
    29   11   34 1
    30   12   35 1
    31   12   40 1
    32   13   18 ar
    33   13   14 ar
    34   14   15 ar
    35   14   37 1
    36   15   16 ar
    37   15   38 1
    38   16   17 ar
    39   16   20 1
    40   17   18 ar
    41   17   39 1
    42   18   19 1
@<TRIPOS>MOLECULE
ZINC19793766
   34    35     0     0     0
SMALL
USER_CHARGES
(3R)-3-(cyclopentylamino)-6-methyl-3-methylsulfanyl-2,4-dihydro-1,2,4-triazin-5-one
@<TRIPOS>ATOM
      1 C1         -0.8976   -3.8518    1.7107 C.3       1 <0>        -0.0861
      2 C2         -0.6948   -2.4270    1.2637 C.2       1 <0>         0.0470
      3 N1         -1.5683   -1.8553    0.4809 N.2       1 <0>        -0.1753
      4 N2         -1.3703   -0.5147    0.1078 N.pl3     1 <0>        -0.6658
      5 C3          0.0021   -0.0041    0.0020 C.3       1 <0>         0.5681
      6 N3          0.7814   -0.4908    1.1454 N.am      1 <0>        -0.7255
      7 C4          0.4820   -1.6787    1.7061 C.2       1 <0>         0.5310
      8 O1          1.1933   -2.1311    2.5840 O.2       1 <0>        -0.5136
      9 N4         -0.0178    1.4648    0.0101 N.3       1 <0>        -0.6450
     10 C5         -0.8017    1.9868   -1.1173 C.3       1 <0>         0.0712
     11 C6          0.0993    2.1441   -2.3595 C.3       1 <0>        -0.1178
     12 C7         -0.4135    3.4379   -3.0394 C.3       1 <0>        -0.1243
     13 C8         -0.7427    4.3509   -1.8323 C.3       1 <0>        -0.1156
     14 C9         -1.3371    3.3900   -0.7821 C.3       1 <0>        -0.1197
     15 S1          0.7516   -0.5926   -1.5415 S.3       1 <0>        -0.1926
     16 C10         0.7000   -2.3998   -1.3932 C.3       1 <0>        -0.1450
     17 H1         -1.8305   -4.2425    1.2782 H         1 <0>         0.0864
     18 H2         -0.9596   -3.8864    2.8084 H         1 <0>         0.0935
     19 H3         -0.0507   -4.4665    1.3717 H         1 <0>         0.0849
     20 H4         -2.1273    0.0632   -0.0763 H         1 <0>         0.4284
     21 H5          1.6092    0.1139    1.5442 H         1 <0>         0.4455
     22 H6         -0.4692    1.8202    0.9482 H         1 <0>         0.3604
     23 H7         -1.6098    1.2567   -1.2722 H         1 <0>         0.0575
     24 H8          1.1489    2.2326   -2.0423 H         1 <0>         0.0823
     25 H9         -0.0145    1.2636   -3.0089 H         1 <0>         0.0786
     26 H10         0.3770    3.8523   -3.6824 H         1 <0>         0.0698
     27 H11        -1.2984    3.2053   -3.6500 H         1 <0>         0.0670
     28 H12         0.1791    4.8334   -1.4754 H         1 <0>         0.0704
     29 H13        -1.4639    5.1217   -2.1415 H         1 <0>         0.0679
     30 H14        -2.4359    3.3849   -0.8326 H         1 <0>         0.0717
     31 H15        -1.0180    3.6716    0.2322 H         1 <0>         0.0745
     32 H16         1.1386   -2.8543   -2.2938 H         1 <0>         0.1109
     33 H17        -0.3441   -2.7293   -1.2875 H         1 <0>         0.0848
     34 H18         1.2743   -2.7116   -0.5084 H         1 <0>         0.0746
@<TRIPOS>BOND
     1    1    2 1
     2    1   17 1
     3    1   18 1
     4    1   19 1
     5    2    7 1
     6    2    3 2
     7    3    4 1
     8    4    5 1
     9    4   20 1
    10    5    6 1
    11    5    9 1
    12    5   15 1
    13    6    7 am
    14    6   21 1
    15    7    8 2
    16    9   10 1
    17    9   22 1
    18   10   14 1
    19   10   11 1
    20   10   23 1
    21   11   12 1
    22   11   24 1
    23   11   25 1
    24   12   13 1
    25   12   26 1
    26   12   27 1
    27   13   14 1
    28   13   28 1
    29   13   29 1
    30   14   30 1
    31   14   31 1
    32   15   16 1
    33   16   32 1
    34   16   33 1
    35   16   34 1
@<TRIPOS>MOLECULE
ZINC37759103
   33    34     0     0     0
SMALL
USER_CHARGES

@<TRIPOS>ATOM
      1 C1         -0.0187    1.5258    0.0104 C.3       1 <0>        -0.1593
      2 C2          0.0021   -0.0041    0.0020 C.3       1 <0>         0.1457
      3 H1         -1.0205   -0.3814    0.0098 H         1 <0>         0.1011
      4 C3          0.7182   -0.4975   -1.2568 C.3       1 <0>         0.0690
      5 H2          0.2027   -0.1292   -2.1437 H         1 <0>         0.0965
      6 C4          0.7480   -2.0409   -1.2714 C.3       1 <0>        -0.1536
      7 C5          2.1663   -2.3380   -1.8301 C.3       1 <0>        -0.1567
      8 C6          2.9724   -1.1597   -1.2277 C.3       1 <0>         0.0464
      9 O1          2.0744   -0.0366   -1.2565 O.3       1 <0>        -0.3722
     10 N1          0.7106   -0.4894    1.1889 N.pl3     1 <0>        -0.7108
     11 C7          0.0321   -0.6376    2.3892 C.ar      1 <0>         0.4050
     12 C8          0.7183   -1.0981    3.5257 C.ar      1 <0>        -0.1103
     13 C9          0.0153   -1.2407    4.7272 C.ar      1 <0>        -0.0629
     14 C10        -1.3365   -0.9189    4.7417 C.ar      1 <0>         0.1076
     15 C11        -1.9422   -0.4700    3.5753 C.ar      1 <0>         0.1174
     16 N2         -1.2549   -0.3394    2.4568 N.ar      1 <0>        -0.4982
     17 N3         -2.0810   -1.0463    5.9212 N.pl3     1 <0>        -0.8762
     18 C12         2.1128   -1.4163    3.4555 C.1       1 <0>         0.2571
     19 N4          3.2190   -1.6687    3.3998 N.1       1 <0>        -0.4165
     20 H3          1.0039    1.9031    0.0027 H         1 <0>         0.0613
     21 H4         -0.5459    1.8868   -0.8726 H         1 <0>         0.0631
     22 H5         -0.5289    1.8773    0.9072 H         1 <0>         0.0613
     23 H6          0.6365   -2.4406   -0.2635 H         1 <0>         0.0811
     24 H7         -0.0209   -2.4375   -1.9344 H         1 <0>         0.0855
     25 H8          2.5392   -3.2955   -1.4665 H         1 <0>         0.0834
     26 H9          2.1746   -2.3033   -2.9195 H         1 <0>         0.0810
     27 H10         3.2637   -1.3858   -0.2020 H         1 <0>         0.0559
     28 H11         3.8535   -0.9542   -1.8355 H         1 <0>         0.0887
     29 H12         1.6544   -0.7070    1.1351 H         1 <0>         0.4059
     30 H13         0.5106   -1.5923    5.6202 H         1 <0>         0.1407
     31 H14        -2.9927   -0.2195    3.5851 H         1 <0>         0.1617
     32 H15        -1.6533   -1.3605    6.7331 H         1 <0>         0.3998
     33 H16        -3.0243   -0.8203    5.9261 H         1 <0>         0.4015
@<TRIPOS>BOND
     1    1    2 1
     2    1   20 1
     3    1   21 1
     4    1   22 1
     5    2    3 1
     6    2    4 1
     7    2   10 1
     8    4    5 1
     9    4    9 1
    10    4    6 1
    11    6    7 1
    12    6   23 1
    13    6   24 1
    14    7    8 1
    15    7   25 1
    16    7   26 1
    17    8    9 1
    18    8   27 1
    19    8   28 1
    20   10   11 1
    21   10   29 1
    22   11   16 ar
    23   11   12 ar
    24   12   13 ar
    25   12   18 1
    26   13   14 ar
    27   13   30 1
    28   14   15 ar
    29   14   17 1
    30   15   16 ar
    31   15   31 1
    32   17   32 1
    33   17   33 1
    34   18   19 3
@<TRIPOS>MOLECULE
ZINC45219045
   27    27     0     0     0
SMALL
USER_CHARGES

@<TRIPOS>ATOM
      1 C1         -0.0127    1.0858    0.0080 C.3       1 <0>        -0.1094
      2 C2         -0.7416    1.5850   -1.2129 C.2       1 <0>         0.1930
      3 C3         -2.0898    1.7936   -1.1636 C.2       1 <0>        -0.2999
      4 C4         -2.7482    2.2596   -2.3151 C.2       1 <0>         0.5299
      5 O1         -3.9522    2.4570   -2.3058 O.2       1 <0>        -0.5343
      6 N1         -2.0227    2.4849   -3.4313 N.am      1 <0>        -0.6153
      7 C5         -0.6797    2.2590   -3.4216 C.2       1 <0>         0.3589
      8 N2         -0.0690    1.8269   -2.3351 N.2       1 <0>        -0.5476
      9 H1         -2.4565    2.8063   -4.2372 H         1 <0>         0.4212
     10 S1          0.2591    2.5558   -4.8829 S.3       1 <0>         0.0618
     11 C6          1.9566    2.1271   -4.4085 C.3       1 <0>        -0.0986
     12 C7          2.8894    2.3420   -5.6021 C.3       1 <0>         0.2363
     13 C8          2.8355    3.8088   -6.0338 C.3       1 <0>        -0.1494
     14 C9          4.2669    1.9941   -5.2172 C.1       1 <0>         0.1671
     15 N3          5.3300    1.7256   -4.9201 N.1       1 <0>        -0.3987
     16 N4          2.4620    1.4872   -6.7177 N.3       1 <0>        -0.8164
     17 H2          0.0021   -0.0041    0.0020 H         1 <0>         0.0879
     18 H3          1.0099    1.4631    0.0003 H         1 <0>         0.0821
     19 H4         -0.5229    1.4373    0.9048 H         1 <0>         0.0840
     20 H5         -2.6417    1.6033   -0.2550 H         1 <0>         0.1569
     21 H6          2.2738    2.7613   -3.5807 H         1 <0>         0.1168
     22 H7          1.9950    1.0821   -4.1010 H         1 <0>         0.1103
     23 H8          3.1527    4.4431   -5.2060 H         1 <0>         0.0794
     24 H9          3.5001    3.9619   -6.8842 H         1 <0>         0.0748
     25 H10         1.8155    4.0665   -6.3189 H         1 <0>         0.0931
     26 H11         3.0225    1.6577   -7.5392 H         1 <0>         0.3594
     27 H12         2.4889    0.5127   -6.4575 H         1 <0>         0.3565
@<TRIPOS>BOND
     1    1   17 1
     2    1   18 1
     3    1   19 1
     4    1    2 1
     5    2    3 2
     6    2    8 1
     7    3    4 1
     8    3   20 1
     9    4    6 am
    10    4    5 2
    11    6    7 1
    12    6    9 1
    13    7    8 2
    14    7   10 1
    15   10   11 1
    16   11   12 1
    17   11   21 1
    18   11   22 1
    19   12   13 1
    20   12   14 1
    21   12   16 1
    22   13   23 1
    23   13   24 1
    24   13   25 1
    25   14   15 3
    26   16   26 1
    27   16   27 1
@<TRIPOS>MOLECULE
ZINC50417211
   34    35     0     0     0
SMALL
USER_CHARGES

@<TRIPOS>ATOM
      1 C1         -0.0184    1.5028    0.0103 C.3       1 <0>        -0.1080
      2 C2          0.0021   -0.0041    0.0020 C.ar      1 <0>        -0.1150
      3 C3          0.0058   -0.6881   -1.1979 C.ar      1 <0>        -0.1420
      4 C4          0.0251   -2.0763   -1.2055 C.ar      1 <0>         0.1679
      5 C5          0.0407   -2.7771   -0.0066 C.ar      1 <0>        -0.1564
      6 C6          0.0365   -2.0934    1.1929 C.ar      1 <0>        -0.1474
      7 C7          0.0230   -0.7046    1.2005 C.ar      1 <0>         0.1650
      8 N1          0.0251   -0.0112    2.4167 N.pl3     1 <0>        -0.8860
      9 N2          0.0284   -2.7696   -2.4217 N.pl3     1 <0>        -0.7416
     10 C8          0.0488   -4.2345   -2.4298 C.3       1 <0>         0.2486
     11 H1         -0.5311   -4.6105   -1.5869 H         1 <0>         0.0899
     12 C9          1.4934   -4.7251   -2.3144 C.3       1 <0>        -0.1650
     13 C10        -0.5515   -4.7381   -3.7171 C.2       1 <0>         0.1646
     14 N3         -0.2990   -4.2888   -4.9162 N.2       1 <0>        -0.2818
     15 N4         -0.9858   -4.9494   -5.7796 N.2       1 <0>        -0.2938
     16 C11        -1.7077   -5.8503   -5.1705 C.2       1 <0>         0.1543
     17 N5         -1.4488   -5.7452   -3.8447 N.pl3     1 <0>        -0.4726
     18 C12        -2.0247   -6.5542   -2.7676 C.3       1 <0>         0.0674
     19 H2          1.0042    1.8801    0.0026 H         1 <0>         0.0671
     20 H3         -0.5455    1.8639   -0.8728 H         1 <0>         0.0666
     21 H4         -0.5286    1.8543    0.9071 H         1 <0>         0.0597
     22 H5         -0.0067   -0.1430   -2.1302 H         1 <0>         0.1206
     23 H6          0.0557   -3.8570   -0.0125 H         1 <0>         0.1175
     24 H7          0.0479   -2.6384    2.1252 H         1 <0>         0.1187
     25 H8          0.0119    0.9587    2.4221 H         1 <0>         0.3948
     26 H9          0.0397   -0.5007    3.2540 H         1 <0>         0.3944
     27 H10         0.0172   -2.2801   -3.2591 H         1 <0>         0.4069
     28 H11         1.9275   -4.3608   -1.3833 H         1 <0>         0.0750
     29 H12         1.5085   -5.8149   -2.3204 H         1 <0>         0.0618
     30 H13         2.0732   -4.3490   -3.1573 H         1 <0>         0.0715
     31 H14        -2.3831   -6.5520   -5.6372 H         1 <0>         0.2215
     32 H15        -2.9374   -6.0808   -2.4058 H         1 <0>         0.0863
     33 H16        -2.2569   -7.5499   -3.1454 H         1 <0>         0.0973
     34 H17        -1.3081   -6.6339   -1.9501 H         1 <0>         0.0924
@<TRIPOS>BOND
     1    1    2 1
     2    1   19 1
     3    1   20 1
     4    1   21 1
     5    2    7 ar
     6    2    3 ar
     7    3    4 ar
     8    3   22 1
     9    4    5 ar
    10    4    9 1
    11    5    6 ar
    12    5   23 1
    13    6    7 ar
    14    6   24 1
    15    7    8 1
    16    8   25 1
    17    8   26 1
    18    9   10 1
    19    9   27 1
    20   10   11 1
    21   10   12 1
    22   10   13 1
    23   12   28 1
    24   12   29 1
    25   12   30 1
    26   13   17 1
    27   13   14 2
    28   14   15 1
    29   15   16 2
    30   16   17 1
    31   16   31 1
    32   17   18 1
    33   18   32 1
    34   18   33 1
    35   18   34 1
@<TRIPOS>MOLECULE
ZINC62362721
   31    32     0     0     0
SMALL
USER_CHARGES

@<TRIPOS>ATOM
      1 C1         -0.0187    1.5258    0.0104 C.3       1 <0>        -0.1596
      2 C2          0.0021   -0.0041    0.0020 C.3       1 <0>         0.1470
      3 H1          0.5123   -0.3556   -0.8948 H         1 <0>         0.1018
      4 C3          0.7421   -0.5109    1.2415 C.3       1 <0>         0.0698
      5 H2          1.7621   -0.1267    1.2460 H         1 <0>         0.0982
      6 C4          0.7639   -2.0546    1.2438 C.3       1 <0>        -0.1541
      7 C5          0.5435   -2.3851    2.7452 C.3       1 <0>        -0.1571
      8 C6         -0.3993   -1.2296    3.1655 C.3       1 <0>         0.0464
      9 O1          0.0569   -0.0842    2.4248 O.3       1 <0>        -0.3718
     10 N1         -1.3723   -0.5112    0.0124 N.pl3     1 <0>        -0.7017
     11 C7         -2.0713   -0.6467   -1.1795 C.ar      1 <0>         0.4033
     12 C8         -3.3883   -1.1250   -1.1826 C.ar      1 <0>         0.0778
     13 C9         -4.0413   -1.2412   -2.4019 C.ar      1 <0>         0.1594
     14 N2         -3.4006   -0.8980   -3.5120 N.ar      1 <0>        -0.5162
     15 C10        -2.1621   -0.4520   -3.4710 C.ar      1 <0>         0.3034
     16 N3         -1.5045   -0.3198   -2.3358 N.ar      1 <0>        -0.5395
     17 Cl1        -5.6736   -1.8279   -2.4735 Cl        1 <0>        -0.0212
     18 N4         -4.0287   -1.4771    0.0132 N.pl3     1 <0>        -0.8628
     19 H3          1.0039    1.9031    0.0027 H         1 <0>         0.0653
     20 H4         -0.5459    1.8868   -0.8726 H         1 <0>         0.0610
     21 H5         -0.5289    1.8773    0.9072 H         1 <0>         0.0620
     22 H6         -0.0471   -2.4549    0.6354 H         1 <0>         0.0803
     23 H7          1.7285   -2.4294    0.9015 H         1 <0>         0.0861
     24 H8          0.0573   -3.3530    2.8671 H         1 <0>         0.0842
     25 H9          1.4823   -2.3469    3.2977 H         1 <0>         0.0817
     26 H10        -1.4296   -1.4665    2.9003 H         1 <0>         0.0551
     27 H11        -0.3164   -1.0442    4.2364 H         1 <0>         0.0897
     28 H12        -1.7940   -0.7522    0.8520 H         1 <0>         0.4044
     29 H13        -1.6717   -0.1823   -4.3947 H         1 <0>         0.2031
     30 H14        -3.5600   -1.3910    0.8581 H         1 <0>         0.3970
     31 H15        -4.9408   -1.8069   -0.0040 H         1 <0>         0.4069
@<TRIPOS>BOND
     1    1    2 1
     2    1   19 1
     3    1   20 1
     4    1   21 1
     5    2    3 1
     6    2    4 1
     7    2   10 1
     8    4    5 1
     9    4    9 1
    10    4    6 1
    11    6    7 1
    12    6   22 1
    13    6   23 1
    14    7    8 1
    15    7   24 1
    16    7   25 1
    17    8    9 1
    18    8   26 1
    19    8   27 1
    20   10   11 1
    21   10   28 1
    22   11   16 ar
    23   11   12 ar
    24   12   13 ar
    25   12   18 1
    26   13   14 ar
    27   13   17 1
    28   14   15 ar
    29   15   16 ar
    30   15   29 1
    31   18   30 1
    32   18   31 1
@<TRIPOS>MOLECULE
ZINC06659363
   32    34     0     0     0
SMALL
USER_CHARGES
2-isoxazol-3-yl-4-(methoxymethyl)-6-methyl-thieno[5,4-b]pyridin-3-amine
@<TRIPOS>ATOM
      1 C1          2.5290   -2.8059   -0.0382 C.3       1 <0>        -0.1068
      2 C2          1.2124   -2.0728   -0.0212 C.ar      1 <0>         0.1791
      3 C3          1.1962   -0.6860   -0.0130 C.ar      1 <0>        -0.1606
      4 C4          0.0021   -0.0041    0.0020 C.ar      1 <0>         0.0117
      5 C5         -1.2082   -0.7397    0.0155 C.ar      1 <0>        -0.1752
      6 C6         -2.5764   -0.2446    0.0383 C.2       1 <0>         0.2431
      7 C7         -3.5970   -1.1426    0.0485 C.2       1 <0>        -0.2126
      8 S1         -2.7647   -2.7182    0.0154 S.3       1 <0>         0.1369
      9 C8         -1.0831   -2.1479    0.0012 C.ar      1 <0>         0.1247
     10 N1          0.0831   -2.7543   -0.0137 N.ar      1 <0>        -0.4511
     11 C9         -5.0477   -0.8762    0.0706 C.2       1 <0>         0.1267
     12 C10        -6.0970   -1.8416    0.0809 C.2       1 <0>        -0.2275
     13 C11        -7.2239   -1.0970    0.1007 C.2       1 <0>        -0.0441
     14 O1         -6.8393    0.1879    0.1014 O.3       1 <0>         0.0989
     15 N2         -5.6353    0.2986    0.0905 N.2       1 <0>        -0.3780
     16 N3         -2.8365    1.1296    0.0499 N.pl3     1 <0>        -0.8536
     17 C12        -0.0184    1.5028    0.0103 C.3       1 <0>         0.0884
     18 O2          1.3223    1.9974    0.0002 O.3       1 <0>        -0.3810
     19 C13         1.4158    3.4233    0.0069 C.3       1 <0>         0.0276
     20 H1          2.8564   -2.9886    0.9853 H         1 <0>         0.0876
     21 H2          2.4084   -3.7573   -0.5563 H         1 <0>         0.0843
     22 H3          3.2744   -2.2022   -0.5558 H         1 <0>         0.0839
     23 H4          2.1270   -0.1384   -0.0190 H         1 <0>         0.1553
     24 H5         -6.0108   -2.9181    0.0750 H         1 <0>         0.1747
     25 H6         -8.2391   -1.4653    0.1131 H         1 <0>         0.2210
     26 H7         -2.1014    1.7624    0.0427 H         1 <0>         0.3942
     27 H8         -3.7520    1.4498    0.0651 H         1 <0>         0.4138
     28 H9         -0.5455    1.8639   -0.8728 H         1 <0>         0.0754
     29 H10        -0.5286    1.8543    0.9071 H         1 <0>         0.0753
     30 H11         2.4650    3.7187   -0.0015 H         1 <0>         0.0950
     31 H12         0.9183    3.8242   -0.8762 H         1 <0>         0.0465
     32 H13         0.9353    3.8147    0.9036 H         1 <0>         0.0465
@<TRIPOS>BOND
     1    1    2 1
     2    1   20 1
     3    1   21 1
     4    1   22 1
     5    2   10 ar
     6    2    3 ar
     7    3    4 ar
     8    3   23 1
     9    4    5 ar
    10    4   17 1
    11    5    9 ar
    12    5    6 1
    13    6    7 2
    14    6   16 1
    15    7    8 1
    16    7   11 1
    17    8    9 1
    18    9   10 ar
    19   11   15 2
    20   11   12 1
    21   12   13 2
    22   12   24 1
    23   13   14 1
    24   13   25 1
    25   14   15 1
    26   16   26 1
    27   16   27 1
    28   17   18 1
    29   17   28 1
    30   17   29 1
    31   18   19 1
    32   19   30 1
    33   19   31 1
    34   19   32 1
@<TRIPOS>MOLECULE
ZINC37550350
   37    38     0     0     0
SMALL
USER_CHARGES

@<TRIPOS>ATOM
      1 C1         -0.0100    1.4928    0.0039 C.3       1 <0>        -0.1210
      2 C2          0.0149   -0.0140    0.0019 C.ar      1 <0>        -0.0935
      3 C3          0.0269   -0.7013   -1.1974 C.ar      1 <0>        -0.0995
      4 C4          0.0502   -2.0811   -1.2071 C.ar      1 <0>        -0.1001
      5 C5          0.0616   -2.7875   -0.0031 C.ar      1 <0>         0.0290
      6 C6          0.0495   -2.0946    1.2065 C.ar      1 <0>        -0.0921
      7 C7          0.0314   -0.7080    1.2058 C.ar      1 <0>         0.1374
      8 N1          0.0251   -0.0082    2.4166 N.am      1 <0>        -0.6527
      9 C8         -0.6314   -0.5098    3.4815 C.2       1 <0>         0.5950
     10 O1         -1.1482   -1.6075    3.4148 O.2       1 <0>        -0.4864
     11 C9         -0.7231    0.2780    4.7345 C.2       1 <0>         0.0711
     12 C10        -1.3723   -0.1235    5.9267 C.2       1 <0>        -0.2481
     13 C11        -1.2333    0.8641    6.8296 C.2       1 <0>         0.0815
     14 O2         -0.5325    1.8570    6.2615 O.3       1 <0>        -0.0552
     15 N2         -0.2124    1.4684    4.9379 N.2       1 <0>        -0.2887
     16 C12        -1.7727    0.8566    8.2367 C.3       1 <0>        -0.0907
     17 C13         0.0853   -4.2192   -0.0106 C.1       1 <0>        -0.1356
     18 C14         0.1047   -5.3931   -0.0167 C.1       1 <0>        -0.1498
     19 C15         0.1290   -6.8648   -0.0244 C.3       1 <0>        -0.0075
     20 C16         0.1373   -7.3823    1.4155 C.3       1 <0>         0.0808
     21 O3          0.1609   -8.8111    1.4080 O.3       1 <0>        -0.5736
     22 H1          1.0115    1.8730    0.0000 H         1 <0>         0.0771
     23 H2         -0.5336    1.8486   -0.8834 H         1 <0>         0.0772
     24 H3         -0.5260    1.8464    0.8965 H         1 <0>         0.0655
     25 H4          0.0177   -0.1566   -2.1299 H         1 <0>         0.1360
     26 H5          0.0592   -2.6144   -2.1462 H         1 <0>         0.1306
     27 H6          0.0582   -2.6359    2.1410 H         1 <0>         0.1450
     28 H7          0.4931    0.8382    2.4900 H         1 <0>         0.4203
     29 H8         -1.8888   -1.0589    6.0838 H         1 <0>         0.1717
     30 H9         -1.0292    0.4278    8.9086 H         1 <0>         0.0996
     31 H10        -1.9956    1.8779    8.5458 H         1 <0>         0.0912
     32 H11        -2.6834    0.2589    8.2735 H         1 <0>         0.1004
     33 H12        -0.7548   -7.2401   -0.5402 H         1 <0>         0.0980
     34 H13         1.0249   -7.2107   -0.5399 H         1 <0>         0.0984
     35 H14         1.0211   -7.0070    1.9314 H         1 <0>         0.0514
     36 H15        -0.7587   -7.0364    1.9310 H         1 <0>         0.0513
     37 H16         0.1673   -9.2089    2.2894 H         1 <0>         0.3859
@<TRIPOS>BOND
     1    1    2 1
     2    1   22 1
     3    1   23 1
     4    1   24 1
     5    2    7 ar
     6    2    3 ar
     7    3    4 ar
     8    3   25 1
     9    4    5 ar
    10    4   26 1
    11    5    6 ar
    12    5   17 1
    13    6    7 ar
    14    6   27 1
    15    7    8 1
    16    8    9 am
    17    8   28 1
    18    9   10 2
    19    9   11 1
    20   11   15 2
    21   11   12 1
    22   12   13 2
    23   12   29 1
    24   13   14 1
    25   13   16 1
    26   14   15 1
    27   16   30 1
    28   16   31 1
    29   16   32 1
    30   17   18 3
    31   18   19 1
    32   19   20 1
    33   19   33 1
    34   19   34 1
    35   20   21 1
    36   20   35 1
    37   20   36 1
    38   21   37 1
@<TRIPOS>MOLECULE
ZINC48684959
   29    31     0     0     0
SMALL
USER_CHARGES

@<TRIPOS>ATOM
      1 C1          0.1546    1.3782    0.6409 C.ar      1 <0>        -0.1346
      2 C2          1.1536    2.0975    0.0529 C.ar      1 <0>        -0.0558
      3 C3          2.2127    1.4352   -0.5833 C.ar      1 <0>        -0.1604
      4 C4          3.3696    1.8792   -1.2686 C.2       1 <0>         0.0769
      5 N1          4.0375    0.8391   -1.6759 N.2       1 <0>        -0.2474
      6 N2          3.3723   -0.3311   -1.2900 N.pl3     1 <0>        -0.5067
      7 H1          3.6637   -1.2383   -1.4715 H         1 <0>         0.4391
      8 C5          2.2366    0.0294   -0.6101 C.ar      1 <0>         0.1064
      9 C6          1.2040   -0.6899   -0.0008 C.ar      1 <0>         0.1216
     10 C7          0.1712   -0.0101    0.6185 C.ar      1 <0>        -0.0812
     11 N3          1.2144   -2.0882   -0.0195 N.am      1 <0>        -0.6625
     12 C8          0.0583   -2.7722    0.0907 C.2       1 <0>         0.5493
     13 O1         -1.0029   -2.1757    0.1051 O.2       1 <0>        -0.5153
     14 C9          0.0787   -4.2305    0.1929 C.2       1 <0>        -0.1632
     15 C10        -1.0815   -4.9170    0.3034 C.2       1 <0>         0.0194
     16 C11        -1.0611   -6.3772    0.4058 C.2       1 <0>         0.0562
     17 N4         -0.0212   -7.2070    0.4149 N.2       1 <0>        -0.4632
     18 C12        -0.2506   -8.4911    0.5167 C.2       1 <0>         0.0088
     19 C13        -1.5293   -8.9442    0.6097 C.2       1 <0>        -0.2635
     20 S1         -2.4244   -7.5191    0.5594 S.3       1 <0>         0.1762
     21 H2         -0.6562    1.8944    1.1333 H         1 <0>         0.1329
     22 H3          1.1282    3.1770    0.0772 H         1 <0>         0.1319
     23 H4          3.6508    2.9098   -1.4273 H         1 <0>         0.1969
     24 H5         -0.6279   -0.5632    1.0895 H         1 <0>         0.1542
     25 H6          2.0536   -2.5658   -0.1117 H         1 <0>         0.4097
     26 H7          1.0201   -4.7596    0.1801 H         1 <0>         0.1434
     27 H8         -2.0230   -4.3879    0.3162 H         1 <0>         0.1601
     28 H9          0.5734   -9.1892    0.5265 H         1 <0>         0.1693
     29 H10        -1.8816   -9.9613    0.6979 H         1 <0>         0.2015
@<TRIPOS>BOND
     1    1   10 ar
     2    1    2 ar
     3    1   21 1
     4    2    3 ar
     5    2   22 1
     6    3    8 ar
     7    3    4 1
     8    4    5 2
     9    4   23 1
    10    5    6 1
    11    6    7 1
    12    6    8 1
    13    8    9 ar
    14    9   10 ar
    15    9   11 1
    16   10   24 1
    17   11   12 am
    18   11   25 1
    19   12   13 2
    20   12   14 1
    21   14   15 2
    22   14   26 1
    23   15   16 1
    24   15   27 1
    25   16   20 1
    26   16   17 2
    27   17   18 1
    28   18   19 2
    29   18   28 1
    30   19   20 1
    31   19   29 1
@<TRIPOS>MOLECULE
ZINC53073746
   42    44     0     0     0
SMALL
USER_CHARGES

@<TRIPOS>ATOM
      1 C1         -0.1420    1.5749    0.1400 C.ar      1 <0>        -0.0788
      2 C2          0.9899    2.3586    0.1916 C.ar      1 <0>        -0.1210
      3 C3          1.1623    3.2729    1.2238 C.ar      1 <0>         0.0775
      4 C4          0.1884    3.4017    2.2114 C.ar      1 <0>         0.0421
      5 C5         -0.9487    2.6168    2.1663 C.ar      1 <0>        -0.0520
      6 C6         -1.1211    1.6976    1.1284 C.ar      1 <0>        -0.1328
      7 C7         -2.3346    0.8589    1.0763 C.2       1 <0>         0.5707
      8 O1         -3.1858    0.9671    1.9377 O.2       1 <0>        -0.5356
      9 N1         -2.4991   -0.0269    0.0739 N.am      1 <0>        -0.7041
     10 C8         -3.6456   -0.9389    0.0831 C.3       1 <0>         0.1881
     11 C9         -3.5575   -1.8810   -1.1193 C.3       1 <0>        -0.1204
     12 C10        -3.5680   -1.0614   -2.4112 C.3       1 <0>        -0.1211
     13 C11        -4.8640   -0.2522   -2.4913 C.3       1 <0>        -0.1219
     14 C12        -4.9521    0.6899   -1.2889 C.3       1 <0>        -0.1146
     15 C13        -4.9416   -0.1297    0.0030 C.3       1 <0>        -0.1323
     16 C14        -3.6351   -1.7585    1.3750 C.3       1 <0>         0.0607
     17 O2         -2.3732   -2.4149    1.5124 O.3       1 <0>        -0.5680
     18 O3          0.3390    4.2983    3.2248 O.3       1 <0>        -0.3038
     19 C15         1.6600    4.8047    3.4449 C.3       1 <0>         0.0194
     20 C16         2.2557    5.1989    2.0866 C.3       1 <0>         0.0188
     21 O4          2.2891    4.0331    1.2563 O.3       1 <0>        -0.3034
     22 H1         -0.2742    0.8692   -0.6668 H         1 <0>         0.1346
     23 H2          1.7464    2.2617   -0.5731 H         1 <0>         0.1424
     24 H3         -1.7034    2.7144    2.9326 H         1 <0>         0.1484
     25 H4         -1.8584   -0.0606   -0.6535 H         1 <0>         0.3992
     26 H5         -2.6342   -2.4575   -1.0622 H         1 <0>         0.0778
     27 H6         -4.4105   -2.5595   -1.1125 H         1 <0>         0.0784
     28 H7         -2.7150   -0.3829   -2.4180 H         1 <0>         0.0599
     29 H8         -3.5052   -1.7326   -3.2678 H         1 <0>         0.0675
     30 H9         -4.8715    0.3317   -3.4117 H         1 <0>         0.0628
     31 H10        -5.7170   -0.9307   -2.4845 H         1 <0>         0.0634
     32 H11        -4.0991    1.3684   -1.2957 H         1 <0>         0.0616
     33 H12        -5.8754    1.2664   -1.3460 H         1 <0>         0.0640
     34 H13        -5.7946   -0.8082    0.0098 H         1 <0>         0.0712
     35 H14        -5.0044    0.5415    0.8596 H         1 <0>         0.0883
     36 H15        -3.7950   -1.0968    2.2263 H         1 <0>         0.0693
     37 H16        -4.4301   -2.5033    1.3393 H         1 <0>         0.0512
     38 H17        -2.2952   -2.9540    2.3114 H         1 <0>         0.3790
     39 H18         1.6151    5.6790    4.0943 H         1 <0>         0.1260
     40 H19         2.2768    4.0340    3.9071 H         1 <0>         0.0801
     41 H20         1.6347    5.9641    1.6210 H         1 <0>         0.0814
     42 H21         3.2673    5.5801    2.2257 H         1 <0>         0.1262
@<TRIPOS>BOND
     1    1    6 ar
     2    1    2 ar
     3    1   22 1
     4    2    3 ar
     5    2   23 1
     6    3   21 1
     7    3    4 ar
     8    4    5 ar
     9    4   18 1
    10    5    6 ar
    11    5   24 1
    12    6    7 1
    13    7    8 2
    14    7    9 am
    15    9   10 1
    16    9   25 1
    17   10   15 1
    18   10   11 1
    19   10   16 1
    20   11   12 1
    21   11   26 1
    22   11   27 1
    23   12   13 1
    24   12   28 1
    25   12   29 1
    26   13   14 1
    27   13   30 1
    28   13   31 1
    29   14   15 1
    30   14   32 1
    31   14   33 1
    32   15   34 1
    33   15   35 1
    34   16   17 1
    35   16   36 1
    36   16   37 1
    37   17   38 1
    38   18   19 1
    39   19   20 1
    40   19   39 1
    41   19   40 1
    42   20   21 1
    43   20   41 1
    44   20   42 1
@<TRIPOS>MOLECULE
ZINC61767055
   34    36     0     0     0
SMALL
USER_CHARGES

@<TRIPOS>ATOM
      1 C1         -2.4592   -0.7885   -1.3204 C.3       1 <0>        -0.1064
      2 C2         -1.1539   -1.1010   -0.6351 C.ar      1 <0>        -0.1343
      3 C3          0.0383   -0.6902   -1.2025 C.ar      1 <0>        -0.0603
      4 C4          1.2386   -0.9742   -0.5789 C.ar      1 <0>        -0.1867
      5 C5          1.2490   -1.6727    0.6197 C.ar      1 <0>         0.2233
      6 C6          0.0471   -2.0860    1.1912 C.ar      1 <0>         0.0086
      7 C7         -1.1521   -1.7926    0.5620 C.ar      1 <0>        -0.0606
      8 O1          0.0508   -2.7710    2.3657 O.3       1 <0>        -0.2149
      9 C8          0.1514   -2.0607    3.5167 C.2       1 <0>         0.2521
     10 C9          0.2882   -2.7481    4.8039 C.2       1 <0>         0.5070
     11 O2          0.3142   -3.9660    4.8613 O.2       1 <0>        -0.5026
     12 N1          0.3854   -2.0004    5.9258 N.am      1 <0>        -0.4522
     13 C10         0.3530   -0.6423    5.8224 C.2       1 <0>         0.0362
     14 C11         0.2257   -0.0424    4.6190 C.2       1 <0>        -0.0022
     15 N2          0.1329   -0.7464    3.4920 N.2       1 <0>        -0.4567
     16 C12         0.5231   -2.6420    7.2357 C.3       1 <0>         0.0464
     17 C13         0.4248   -1.7485    8.4738 C.3       1 <0>        -0.1722
     18 C14         1.7783   -2.3226    8.0502 C.3       1 <0>        -0.1744
     19 N3          2.4628   -1.9619    1.2527 N.pl3     1 <0>        -0.8689
     20 H1         -2.8307    0.1752   -0.9723 H         1 <0>         0.0669
     21 H2         -2.3034   -0.7500   -2.3985 H         1 <0>         0.0652
     22 H3         -3.1875   -1.5649   -1.0861 H         1 <0>         0.0636
     23 H4          0.0315   -0.1463   -2.1356 H         1 <0>         0.1272
     24 H5          2.1683   -0.6527   -1.0248 H         1 <0>         0.1277
     25 H6         -2.0853   -2.1078    1.0048 H         1 <0>         0.1277
     26 H7          0.4296   -0.0378    6.7141 H         1 <0>         0.1704
     27 H8          0.2028    1.0362    4.5688 H         1 <0>         0.1757
     28 H9          0.1185   -3.6514    7.3096 H         1 <0>         0.1519
     29 H10         0.2575   -0.6834    8.3138 H         1 <0>         0.1072
     30 H11        -0.0448   -2.1700    9.3626 H         1 <0>         0.1176
     31 H12         2.1992   -3.1217    8.6604 H         1 <0>         0.1150
     32 H13         2.5015   -1.6351    7.6116 H         1 <0>         0.1038
     33 H14         3.2986   -1.6738    0.8536 H         1 <0>         0.4014
     34 H15         2.4685   -2.4504    2.0907 H         1 <0>         0.3972
@<TRIPOS>BOND
     1    1    2 1
     2    1   20 1
     3    1   21 1
     4    1   22 1
     5    2    7 ar
     6    2    3 ar
     7    3    4 ar
     8    3   23 1
     9    4    5 ar
    10    4   24 1
    11    5    6 ar
    12    5   19 1
    13    6    7 ar
    14    6    8 1
    15    7   25 1
    16    8    9 1
    17    9   15 2
    18    9   10 1
    19   10   11 2
    20   10   12 am
    21   12   13 1
    22   12   16 1
    23   13   14 2
    24   13   26 1
    25   14   15 1
    26   14   27 1
    27   16   18 1
    28   16   17 1
    29   16   28 1
    30   17   18 1
    31   17   29 1
    32   17   30 1
    33   18   31 1
    34   18   32 1
    35   19   33 1
    36   19   34 1
@<TRIPOS>MOLECULE
ZINC03677083
   26    27     0     0     0
SMALL
USER_CHARGES
2-amino-2-benzo[1,3]dioxol-5-yl-propanoic acid
@<TRIPOS>ATOM
      1 C1          4.7452    1.3760   -0.7574 C.3       1 <0>        -0.1604
      2 C2          3.6760    2.1855   -0.0210 C.3       1 <0>         0.0629
      3 C3          2.3803    1.4160   -0.0127 C.ar      1 <0>        -0.0811
      4 C4          2.3990    0.0336   -0.0208 C.ar      1 <0>        -0.0683
      5 C5          1.2132   -0.6768   -0.0133 C.ar      1 <0>        -0.0893
      6 C6          0.0021   -0.0041    0.0020 C.ar      1 <0>         0.0445
      7 C7         -0.0168    1.3885    0.0097 C.ar      1 <0>         0.0445
      8 C8          1.1756    2.0938    0.0021 C.ar      1 <0>        -0.1112
      9 O1         -1.3160    1.8071    0.0188 O.3       1 <0>        -0.3056
     10 C9         -2.0922    0.6660   -0.3865 C.3       1 <0>         0.2128
     11 O2         -1.2852   -0.4579    0.0120 O.3       1 <0>        -0.3037
     12 C10         4.1218    2.4339    1.3970 C.2       1 <0>         0.4586
     13 O3          3.7607    1.6948    2.2820 O.co2     1 <0>        -0.5636
     14 H1          4.4228    1.1964   -1.7830 H         1 <0>         0.0780
     15 H2          5.6824    1.9326   -0.7634 H         1 <0>         0.0878
     16 H3          4.8923    0.4224   -0.2504 H         1 <0>         0.1028
     17 H4          3.3422   -0.4925   -0.0327 H         1 <0>         0.1478
     18 H5          1.2308   -1.7566   -0.0189 H         1 <0>         0.1454
     19 H6          1.1640    3.1737    0.0080 H         1 <0>         0.1272
     20 H7         -2.2366    0.6700   -1.4669 H         1 <0>         0.0879
     21 H8         -3.0534    0.6487    0.1272 H         1 <0>         0.1367
     22 H9          3.2410    3.3314   -1.6751 H         1 <0>         0.4198
     23 H10         2.7757    4.0244   -0.2366 H         1 <0>         0.4293
     24 O4          4.9200    3.4761    1.6767 O.co2     1 <0>        -0.7277
     25 N1          3.5009    3.4807   -0.7015 N.4       1 <0>        -0.6212
     26 H11         4.3847    4.0023   -0.6670 H         1 <0>         0.4462
@<TRIPOS>BOND
     1    1    2 1
     2    1   14 1
     3    1   15 1
     4    1   16 1
     5    2    3 1
     6    2   12 1
     7    2   25 1
     8    3    8 ar
     9    3    4 ar
    10    4    5 ar
    11    4   17 1
    12    5    6 ar
    13    5   18 1
    14    6   11 1
    15    6    7 ar
    16    7    8 ar
    17    7    9 1
    18    8   19 1
    19    9   10 1
    20   10   11 1
    21   10   20 1
    22   10   21 1
    23   12   13 2
    24   12   24 1
    25   22   25 1
    26   23   25 1
    27   25   26 1
@<TRIPOS>MOLECULE
ZINC37255934
   33    34     0     0     0
SMALL
USER_CHARGES

@<TRIPOS>ATOM
      1 C1          0.0133    1.3964   -0.1677 C.3       1 <0>        -0.1483
      2 C2         -0.0290   -0.1306   -0.0825 C.3       1 <0>        -0.0848
      3 H1          0.4260   -0.5571   -0.9765 H         1 <0>         0.0702
      4 C3         -1.4830   -0.5956    0.0211 C.3       1 <0>        -0.1196
      5 C4         -1.5253   -2.1226    0.1063 C.3       1 <0>        -0.1136
      6 C5         -0.7523   -2.5861    1.3426 C.3       1 <0>        -0.1391
      7 C6          0.7017   -2.1211    1.2390 C.3       1 <0>         0.1453
      8 H2          1.1567   -2.5476    0.3450 H         1 <0>         0.0951
      9 C7          0.7440   -0.5941    1.1538 C.3       1 <0>        -0.1348
     10 N1          1.4419   -2.5649    2.4228 N.am      1 <0>        -0.5430
     11 C8          2.5389   -3.3787    2.2770 C.2       1 <0>         0.4820
     12 C9          3.2236   -3.7880    3.3874 C.2       1 <0>        -0.4064
     13 C10         2.7866   -3.3646    4.6523 C.2       1 <0>         0.5637
     14 O1          3.3818   -3.7167    5.6564 O.2       1 <0>        -0.5327
     15 N2          1.7053   -2.5662    4.7501 N.am      1 <0>        -0.6654
     16 H3          1.4020   -2.2724    5.6233 H         1 <0>         0.4294
     17 C11         1.0465   -2.1684    3.6465 C.2       1 <0>         0.7127
     18 O2          0.0765   -1.4437    3.7568 O.2       1 <0>        -0.5319
     19 N3          2.9435   -3.7775    1.0288 N.pl3     1 <0>        -0.8395
     20 H4          1.0491    1.7277   -0.2415 H         1 <0>         0.0550
     21 H5         -0.5374    1.7266   -1.0485 H         1 <0>         0.0586
     22 H6         -0.4417    1.8229    0.7263 H         1 <0>         0.0578
     23 H7         -1.9380   -0.1691    0.9151 H         1 <0>         0.0689
     24 H8         -2.0337   -0.2654   -0.8597 H         1 <0>         0.0672
     25 H9         -2.5611   -2.4538    0.1801 H         1 <0>         0.0721
     26 H10        -1.0703   -2.5491   -0.7877 H         1 <0>         0.0628
     27 H11        -1.2072   -2.1596    2.2366 H         1 <0>         0.0960
     28 H12        -0.7824   -3.6739    1.4033 H         1 <0>         0.0659
     29 H13         1.7798   -0.2628    1.0800 H         1 <0>         0.0660
     30 H14         0.2890   -0.1676    2.0478 H         1 <0>         0.0955
     31 H15         4.0882   -4.4282    3.2926 H         1 <0>         0.1635
     32 H16         2.5229   -3.4018    0.2396 H         1 <0>         0.4050
     33 H17         3.6502   -4.4353    0.9351 H         1 <0>         0.4263
@<TRIPOS>BOND
     1    1    2 1
     2    1   20 1
     3    1   21 1
     4    1   22 1
     5    2    3 1
     6    2    9 1
     7    2    4 1
     8    4    5 1
     9    4   23 1
    10    4   24 1
    11    5    6 1
    12    5   25 1
    13    5   26 1
    14    6    7 1
    15    6   27 1
    16    6   28 1
    17    7    8 1
    18    7    9 1
    19    7   10 1
    20    9   29 1
    21    9   30 1
    22   10   17 am
    23   10   11 1
    24   11   12 2
    25   11   19 1
    26   12   13 1
    27   12   31 1
    28   13   14 2
    29   13   15 am
    30   15   16 1
    31   15   17 am
    32   17   18 2
    33   19   32 1
    34   19   33 1
@<TRIPOS>MOLECULE
ZINC42872208
   33    34     0     0     0
SMALL
USER_CHARGES

@<TRIPOS>ATOM
      1 C1          1.6400    0.5490    1.2450 C.3       1 <0>        -0.0615
      2 C2          0.7257   -0.4197    0.5401 C.2       1 <0>         0.1925
      3 N1          1.1055   -1.3767   -0.2630 N.2       1 <0>        -0.4650
      4 C3          0.0266   -2.0412   -0.7083 C.2       1 <0>         0.1739
      5 C4         -1.0753   -1.4716   -0.1569 C.2       1 <0>         0.2688
      6 N2         -0.6309   -0.4450    0.6404 N.pl3     1 <0>        -0.5885
      7 N3         -2.4073   -1.8589   -0.3580 N.pl3     1 <0>        -0.8577
      8 N4          0.0368   -3.1391   -1.5946 N.pl3     1 <0>        -0.6234
      9 C5          0.1660   -4.5164   -1.0930 C.3       1 <0>         0.1210
     10 C6         -0.9505   -5.3638   -1.7137 C.3       1 <0>         0.0739
     11 H1         -1.9146   -5.0382   -1.3232 H         1 <0>         0.0546
     12 O1         -0.9309   -5.2009   -3.1339 O.3       1 <0>        -0.3748
     13 C7         -1.1865   -3.8648   -3.5733 C.3       1 <0>         0.0548
     14 C8         -0.0878   -2.9410   -3.0474 C.3       1 <0>         0.1398
     15 H2         -0.3511   -1.9039   -3.2552 H         1 <0>         0.0798
     16 C9          1.2382   -3.2834   -3.7297 C.3       1 <0>        -0.1591
     17 C10        -0.7286   -6.8367   -1.3641 C.3       1 <0>        -0.1454
     18 H3          1.9312    0.1365    2.2110 H         1 <0>         0.0772
     19 H4          2.5298    0.7161    0.6381 H         1 <0>         0.0893
     20 H5          1.1201    1.4951    1.3958 H         1 <0>         0.0710
     21 H6         -2.6082   -2.6551   -0.8744 H         1 <0>         0.4134
     22 H7         -3.1282   -1.3308    0.0191 H         1 <0>         0.3947
     23 H8          1.1366   -4.9217   -1.3789 H         1 <0>         0.0566
     24 H9          0.0707   -4.5221   -0.0072 H         1 <0>         0.0729
     25 H10        -1.1978   -3.8357   -4.6629 H         1 <0>         0.0996
     26 H11        -2.1515   -3.5337   -3.1896 H         1 <0>         0.0472
     27 H12         1.4929   -4.3237   -3.5273 H         1 <0>         0.0602
     28 H13         1.1421   -3.1355   -4.8053 H         1 <0>         0.0572
     29 H14         2.0241   -2.6350   -3.3425 H         1 <0>         0.0581
     30 H15        -0.7398   -6.9588   -0.2810 H         1 <0>         0.0712
     31 H16        -1.5228   -7.4386   -1.8057 H         1 <0>         0.0653
     32 H17         0.2348   -7.1622   -1.7564 H         1 <0>         0.0657
     33 H18        -1.1808    0.1510    1.1727 H         1 <0>         0.4171
@<TRIPOS>BOND
     1    1    2 1
     2    1   18 1
     3    1   19 1
     4    1   20 1
     5    2    6 1
     6    2    3 2
     7    3    4 1
     8    4    5 2
     9    4    8 1
    10    5    6 1
    11    5    7 1
    12    6   33 1
    13    7   21 1
    14    7   22 1
    15    8   14 1
    16    8    9 1
    17    9   10 1
    18    9   23 1
    19    9   24 1
    20   10   11 1
    21   10   12 1
    22   10   17 1
    23   12   13 1
    24   13   14 1
    25   13   25 1
    26   13   26 1
    27   14   15 1
    28   14   16 1
    29   16   27 1
    30   16   28 1
    31   16   29 1
    32   17   30 1
    33   17   31 1
    34   17   32 1
@<TRIPOS>MOLECULE
ZINC50987851
   31    32     0     0     0
SMALL
NO_CHARGES

@<TRIPOS>ATOM
      1 C1         -0.0127    1.0858    0.0080 C.3       1 <0>        -0.0521
      2 C2         -0.7416    1.5850   -1.2129 C.cat     1 <0>         0.0117
      3 N1         -1.2520    0.8053   -2.0991 N.pl3     1 <0>        -0.6677
      4 C3         -1.8784    1.6383   -3.1373 C.3       1 <0>         0.3214
      5 C4         -1.6239    3.0576   -2.6668 C.cat     1 <0>        -0.0211
      6 N2         -0.9304    2.9107   -1.4846 N.pl3     1 <0>        -0.3492
      7 C5         -0.4612    4.0149   -0.6439 C.3       1 <0>         0.2204
      8 C6          0.8923    4.4115   -1.0654 C.1       1 <0>        -0.2174
      9 C7          1.9717    4.7279   -1.4015 C.1       1 <0>        -0.1601
     10 N3         -1.9811    4.1580   -3.2427 N.pl3     1 <0>        -0.8213
     11 C8         -1.2245    1.3987   -4.4737 C.2       1 <0>        -0.2538
     12 C9          0.1404    1.1889   -4.6962 C.2       1 <0>         0.0720
     13 N4          0.3237    1.0184   -5.9804 N.2       1 <0>        -0.3047
     14 N5         -0.9207    1.1144   -6.6166 N.pl3     1 <0>        -0.3794
     15 C10        -1.8548    1.3426   -5.6698 C.2       1 <0>         0.0521
     16 C11        -1.1655    0.9843   -8.0552 C.3       1 <0>         0.1016
     17 H1          0.0021   -0.0041    0.0020 H         1 <0>         0.0685
     18 H2          1.0099    1.4631    0.0003 H         1 <0>         0.0510
     19 H3         -0.5229    1.4373    0.9048 H         1 <0>         0.0532
     20 H4         -1.1374    4.8634   -0.7479 H         1 <0>         0.1063
     21 H5         -0.4381    3.6942    0.3976 H         1 <0>         0.1120
     22 H6          2.9372    5.0108   -1.7021 H         1 <0>         0.2201
     23 H7         -2.4732    4.1305   -4.0782 H         1 <0>         0.4026
     24 H8         -2.9483    1.4379   -3.1946 H         1 <0>         0.0433
     25 H9          0.9100    1.1708   -3.9388 H         1 <0>         0.1725
     26 H10        -2.9151    1.4619   -5.8370 H         1 <0>         0.1692
     27 H11        -1.3634   -0.0600   -8.2970 H         1 <0>         0.0726
     28 H12        -2.0269    1.5913   -8.3335 H         1 <0>         0.0854
     29 H13        -0.2882    1.3246   -8.6053 H         1 <0>         0.0866
     30 H14        -1.7571    5.0113   -2.8396 H         1 <0>         0.3834
     31 H15        -1.2278   -0.1643   -2.0855 H         1 <0>         0.4208
@<TRIPOS>BOND
     1    1   17 1
     2    1   18 1
     3    1   19 1
     4    1    2 1
     5    2    3 2
     6    2    6 1
     7    3    4 1
     8    3   31 1
     9    4   11 1
    10    4   24 1
    11    4    5 1
    12    5    6 1
    13    5   10 2
    14    6    7 1
    15    7    8 1
    16    7   20 1
    17    7   21 1
    18    8    9 3
    19    9   22 1
    20   10   23 1
    21   10   30 1
    22   11   15 2
    23   11   12 1
    24   12   13 2
    25   12   25 1
    26   13   14 1
    27   14   15 1
    28   14   16 1
    29   15   26 1
    30   16   27 1
    31   16   28 1
    32   16   29 1
@<TRIPOS>MOLECULE
ZINC40397055
   22    23     0     0     0
SMALL
USER_CHARGES

@<TRIPOS>ATOM
      1 C1         -0.0167    1.3779    0.0096 C.ar      1 <0>        -0.0504
      2 C2          1.1701    2.0862    0.0021 C.ar      1 <0>        -0.1586
      3 C3          2.3794    1.4118   -0.0135 C.ar      1 <0>         0.1590
      4 C4          2.3994    0.0278   -0.0211 C.ar      1 <0>        -0.1520
      5 C5          1.2102   -0.6806   -0.0131 C.ar      1 <0>         0.1422
      6 C6          0.0021   -0.0041    0.0020 C.ar      1 <0>        -0.1609
      7 F1          1.2282   -2.0314   -0.0204 F         1 <0>        -0.1300
      8 C7          3.7149   -0.7073   -0.0385 C.3       1 <0>         0.2252
      9 H1          4.5135   -0.0166   -0.3091 H         1 <0>         0.1400
     10 C8          3.9881   -1.2806    1.3281 C.2       1 <0>         0.1519
     11 N1          4.0180   -0.6225    2.4612 N.2       1 <0>        -0.2803
     12 N2          4.2827   -1.4619    3.4021 N.2       1 <0>        -0.0618
     13 N3          4.4226   -2.6385    2.8986 N.2       1 <0>        -0.0770
     14 N4          4.2431   -2.5690    1.6228 N.pl3     1 <0>        -0.4034
     15 N5          3.6545   -1.7958   -1.0231 N.3       1 <0>        -0.8333
     16 F2          3.5393    2.1044   -0.0217 F         1 <0>        -0.1206
     17 H2         -0.9594    1.9046    0.0259 H         1 <0>         0.1497
     18 H3          1.1543    3.1660    0.0080 H         1 <0>         0.1504
     19 H4         -0.9259   -0.5565    0.0082 H         1 <0>         0.1472
     20 H5          4.5453   -2.2634   -1.1003 H         1 <0>         0.3545
     21 H6          2.9213   -2.4501   -0.7943 H         1 <0>         0.3551
     22 H7          4.2861   -3.3062    0.9939 H         1 <0>         0.4532
@<TRIPOS>BOND
     1    1    6 ar
     2    1    2 ar
     3    1   17 1
     4    2    3 ar
     5    2   18 1
     6    3    4 ar
     7    3   16 1
     8    4    5 ar
     9    4    8 1
    10    5    6 ar
    11    5    7 1
    12    6   19 1
    13    8    9 1
    14    8   15 1
    15    8   10 1
    16   10   11 2
    17   10   14 1
    18   11   12 1
    19   12   13 2
    20   13   14 1
    21   14   22 1
    22   15   20 1
    23   15   21 1
@<TRIPOS>MOLECULE
ZINC04684441
   39    41     0     0     0
SMALL
USER_CHARGES
1-[4-[(4-chlorophenyl)methylamino]-3-nitro-phenyl]pyrrolidine-2,5-dione
@<TRIPOS>ATOM
      1 C1         -5.2646    4.8914    1.0655 C.ar      1 <0>        -0.0802
      2 C2         -6.2596    5.8495    1.0150 C.ar      1 <0>        -0.1108
      3 C3         -6.7515    6.2717   -0.2072 C.ar      1 <0>        -0.0222
      4 C4         -6.2431    5.7387   -1.3784 C.ar      1 <0>        -0.1121
      5 C5         -5.2442    4.7849   -1.3267 C.ar      1 <0>        -0.0853
      6 C6         -4.7531    4.3633   -0.1052 C.ar      1 <0>        -0.1140
      7 C7         -3.6640    3.3233   -0.0495 C.3       1 <0>         0.1584
      8 N1         -2.3565    3.9837   -0.0711 N.pl3     1 <0>        -0.7195
      9 C8         -1.1863    3.2194   -0.0276 C.ar      1 <0>         0.2897
     10 C9         -1.2595    1.8331   -0.0809 C.ar      1 <0>        -0.1834
     11 C10        -0.1044    1.0789   -0.0332 C.ar      1 <0>        -0.0026
     12 C11         1.1310    1.7059    0.0575 C.ar      1 <0>         0.0542
     13 C12         1.2049    3.0911    0.1055 C.ar      1 <0>         0.0067
     14 C13         0.0497    3.8462    0.0631 C.ar      1 <0>        -0.1084
     15 N2          0.1286    5.3234    0.1138 N.pl3     1 <0>         0.0364
     16 O1          1.0302    5.9052   -0.4626 O.2       1 <0>        -0.1434
     17 O2         -0.7080    5.9571    0.7319 O.3       1 <0>        -0.1721
     18 N3          2.3058    0.9387    0.1002 N.am      1 <0>        -0.5266
     19 C14         2.6111    0.1379    1.1287 C.2       1 <0>         0.5251
     20 O3          1.9330   -0.0200    2.1211 O.2       1 <0>        -0.4673
     21 C15         3.9351   -0.5415    0.8546 C.3       1 <0>        -0.1537
     22 C16         4.3511    0.0189   -0.5207 C.3       1 <0>        -0.1536
     23 C17         3.2157    0.9518   -0.8817 C.2       1 <0>         0.5228
     24 O4          3.1420    1.6075   -1.8987 O.2       1 <0>        -0.4637
     25 Cl1        -8.0057    7.4702   -0.2713 Cl        1 <0>        -0.0617
     26 H1         -4.8837    4.5585    2.0197 H         1 <0>         0.1366
     27 H2         -6.6561    6.2651    1.9296 H         1 <0>         0.1389
     28 H3         -6.6264    6.0682   -2.3328 H         1 <0>         0.1380
     29 H4         -4.8470    4.3690   -2.2409 H         1 <0>         0.1342
     30 H5         -3.7504    2.6603   -0.9104 H         1 <0>         0.0821
     31 H6         -3.7626    2.7426    0.8676 H         1 <0>         0.0848
     32 H7         -2.3025    4.9512   -0.1155 H         1 <0>         0.4152
     33 H8         -2.2202    1.3455   -0.1556 H         1 <0>         0.1554
     34 H9         -0.1615    0.0011   -0.0709 H         1 <0>         0.1460
     35 H10         2.1661    3.5784    0.1764 H         1 <0>         0.1498
     36 H11         3.8122   -1.6235    0.8066 H         1 <0>         0.1270
     37 H12         4.6677   -0.2732    1.6157 H         1 <0>         0.1262
     38 H13         4.4352   -0.7842   -1.2528 H         1 <0>         0.1267
     39 H14         5.2897    0.5680   -0.4459 H         1 <0>         0.1267
@<TRIPOS>BOND
     1    1    6 ar
     2    1    2 ar
     3    1   26 1
     4    2    3 ar
     5    2   27 1
     6    3    4 ar
     7    3   25 1
     8    4    5 ar
     9    4   28 1
    10    5    6 ar
    11    5   29 1
    12    6    7 1
    13    7    8 1
    14    7   30 1
    15    7   31 1
    16    8    9 1
    17    8   32 1
    18    9   14 ar
    19    9   10 ar
    20   10   11 ar
    21   10   33 1
    22   11   12 ar
    23   11   34 1
    24   12   13 ar
    25   12   18 1
    26   13   14 ar
    27   13   35 1
    28   14   15 1
    29   15   16 2
    30   15   17 1
    31   18   23 am
    32   18   19 am
    33   19   20 2
    34   19   21 1
    35   21   22 1
    36   21   36 1
    37   21   37 1
    38   22   23 1
    39   22   38 1
    40   22   39 1
    41   23   24 2
@<TRIPOS>MOLECULE
ZINC19911037
   38    40     0     0     0
SMALL
USER_CHARGES
1-[4-(difluoromethoxy)phenyl]-5-methyl-N-(3-pyridyl)triazole-4-carboxamide
@<TRIPOS>ATOM
      1 C1          0.1204    1.6674    0.1036 C.3       1 <0>        -0.1190
      2 C2          0.0692    0.1616    0.0710 C.2       1 <0>         0.1400
      3 C3          0.1561   -0.6801    1.1440 C.2       1 <0>        -0.1080
      4 N1          0.0691   -1.9458    0.7002 N.2       1 <0>        -0.1968
      5 N2         -0.0664   -1.9457   -0.5801 N.2       1 <0>        -0.0484
      6 N3         -0.0772   -0.6157   -1.0237 N.pl3     1 <0>        -0.3109
      7 C4         -0.2114   -0.1769   -2.3497 C.ar      1 <0>         0.0965
      8 C5         -1.1334   -0.7835   -3.1919 C.ar      1 <0>        -0.0524
      9 C6         -1.2691   -0.3476   -4.4948 C.ar      1 <0>        -0.1744
     10 C7         -0.4765    0.6893   -4.9658 C.ar      1 <0>         0.1248
     11 C8          0.4495    1.2917   -4.1262 C.ar      1 <0>        -0.1147
     12 C9          0.5819    0.8602   -2.8215 C.ar      1 <0>        -0.0761
     13 O1         -0.6068    1.1147   -6.2502 O.3       1 <0>        -0.3136
     14 C10        -1.5796    0.4495   -7.0584 C.3       1 <0>         0.4082
     15 F1         -1.2641   -0.9108   -7.1432 F         1 <0>        -0.1959
     16 F2         -2.8457    0.5995   -6.4824 F         1 <0>        -0.1963
     17 C11         0.3181   -0.2692    2.5511 C.2       1 <0>         0.6166
     18 O2          0.3856    0.9111    2.8359 O.2       1 <0>        -0.5196
     19 N4          0.3912   -1.2018    3.5214 N.am      1 <0>        -0.6673
     20 C12         0.4453   -0.8118    4.8637 C.ar      1 <0>         0.0996
     21 C13         1.1214    0.3476    5.2362 C.ar      1 <0>        -0.0807
     22 C14         1.1431    0.6946    6.5769 C.ar      1 <0>        -0.1522
     23 C15         0.5067   -0.1195    7.4956 C.ar      1 <0>         0.0808
     24 N5         -0.1207   -1.2137    7.1111 N.ar      1 <0>        -0.4660
     25 C16        -0.1695   -1.5779    5.8452 C.ar      1 <0>         0.0803
     26 H1          0.2467    2.0076    1.1420 H         1 <0>         0.1268
     27 H2         -0.8163    2.0750   -0.3044 H         1 <0>         0.0910
     28 H3          0.9681    2.0187   -0.5030 H         1 <0>         0.0888
     29 H4         -1.7473   -1.5935   -2.8267 H         1 <0>         0.1447
     30 H5         -1.9898   -0.8162   -5.1487 H         1 <0>         0.1483
     31 H6          1.0665    2.0985   -4.4934 H         1 <0>         0.1526
     32 H7          1.3026    1.3292   -2.1681 H         1 <0>         0.1469
     33 H8         -1.5969    0.8750   -8.0726 H         1 <0>         0.1914
     34 H9          0.4083   -2.2696    3.2578 H         1 <0>         0.4490
     35 H10         1.6132    0.9629    4.4973 H         1 <0>         0.1497
     36 H11         1.6545    1.5888    6.9014 H         1 <0>         0.1393
     37 H12         0.5241    0.1442    8.5427 H         1 <0>         0.1584
     38 H13        -0.6932   -2.4811    5.5687 H         1 <0>         0.1586
@<TRIPOS>BOND
     1    1    2 1
     2    1   26 1
     3    1   27 1
     4    1   28 1
     5    2    6 1
     6    2    3 2
     7    3    4 1
     8    3   17 1
     9    4    5 2
    10    5    6 1
    11    6    7 1
    12    7   12 ar
    13    7    8 ar
    14    8    9 ar
    15    8   29 1
    16    9   10 ar
    17    9   30 1
    18   10   11 ar
    19   10   13 1
    20   11   12 ar
    21   11   31 1
    22   12   32 1
    23   13   14 1
    24   14   15 1
    25   14   16 1
    26   14   33 1
    27   17   18 2
    28   17   19 am
    29   19   20 1
    30   19   34 1
    31   20   25 ar
    32   20   21 ar
    33   21   22 ar
    34   21   35 1
    35   22   23 ar
    36   22   36 1
    37   23   24 ar
    38   23   37 1
    39   24   25 ar
    40   25   38 1
@<TRIPOS>MOLECULE
ZINC36365084
   42    45     0     0     0
SMALL
USER_CHARGES

@<TRIPOS>ATOM
      1 C1         -0.0173    1.4248    0.0099 C.3       1 <0>         0.0269
      2 O1          0.0021   -0.0041    0.0020 O.3       1 <0>        -0.3039
      3 C2          0.6058   -0.6071   -1.0557 C.ar      1 <0>         0.1466
      4 C3          1.1731    0.1608   -2.0626 C.ar      1 <0>        -0.2125
      5 C4          1.7865   -0.4545   -3.1363 C.ar      1 <0>        -0.0695
      6 C5          1.8356   -1.8347   -3.2084 C.ar      1 <0>        -0.1604
      7 C6          1.2707   -2.6020   -2.2067 C.ar      1 <0>        -0.0611
      8 C7          0.6609   -1.9913   -1.1277 C.ar      1 <0>        -0.1461
      9 C8          0.0508   -2.8283   -0.0330 C.3       1 <0>         0.1746
     10 N1         -1.3981   -2.9124   -0.2326 N.am      1 <0>        -0.7061
     11 C9         -2.1576   -3.6150    0.6311 C.2       1 <0>         0.5827
     12 O2         -1.6399   -4.1794    1.5766 O.2       1 <0>        -0.5199
     13 C10        -3.6100   -3.6993    0.4310 C.2       1 <0>        -0.1277
     14 C11        -4.2059   -4.7697   -0.3639 C.2       1 <0>        -0.0991
     15 C12        -5.5480   -4.7051   -0.4525 C.2       1 <0>        -0.1842
     16 S1         -5.9892   -3.2701    0.4939 S.3       1 <0>         0.2762
     17 C13        -4.4667   -2.7731    0.9918 C.2       1 <0>        -0.0015
     18 N2         -4.1412   -1.6765    1.7862 N.pl3     1 <0>        -0.2966
     19 C14        -4.9905   -0.7787    2.3346 C.2       1 <0>         0.2271
     20 N3         -4.2670    0.0824    3.0010 N.2       1 <0>        -0.3180
     21 N4         -3.0195   -0.2090    2.9119 N.2       1 <0>        -0.0288
     22 N5         -2.8592   -1.2688    2.1952 N.2       1 <0>        -0.0405
     23 C15        -6.1091   -5.8262   -1.2844 C.3       1 <0>        -0.0356
     24 C16        -4.8973   -6.3732   -2.0710 C.3       1 <0>        -0.1146
     25 C17        -3.7226   -5.9866   -1.1497 C.3       1 <0>        -0.0605
     26 H1          1.0053    1.8021    0.0021 H         1 <0>         0.0574
     27 H2         -0.5445    1.7859   -0.8732 H         1 <0>         0.0534
     28 H3         -0.5275    1.7763    0.9067 H         1 <0>         0.1022
     29 H4          1.1347    1.2387   -2.0069 H         1 <0>         0.1298
     30 H5          2.2279    0.1427   -3.9204 H         1 <0>         0.1266
     31 H6          2.3157   -2.3139   -4.0487 H         1 <0>         0.1269
     32 H7          1.3100   -3.6796   -2.2654 H         1 <0>         0.1314
     33 H8          0.4800   -3.8299   -0.0595 H         1 <0>         0.0765
     34 H9          0.2584   -2.3694    0.9337 H         1 <0>         0.0833
     35 H10        -1.8108   -2.4624   -0.9863 H         1 <0>         0.3987
     36 H11        -6.0663   -0.7736    2.2394 H         1 <0>         0.2419
     37 H12        -6.5278   -6.6022   -0.6435 H         1 <0>         0.0947
     38 H13        -6.8676   -5.4479   -1.9697 H         1 <0>         0.0880
     39 H14        -4.9631   -7.4551   -2.1859 H         1 <0>         0.0909
     40 H15        -4.8092   -5.8841   -3.0412 H         1 <0>         0.0814
     41 H16        -2.8461   -5.7283   -1.7440 H         1 <0>         0.0799
     42 H17        -3.4903   -6.8066   -0.4701 H         1 <0>         0.0895
@<TRIPOS>BOND
     1    1    2 1
     2    1   26 1
     3    1   27 1
     4    1   28 1
     5    2    3 1
     6    3    8 ar
     7    3    4 ar
     8    4    5 ar
     9    4   29 1
    10    5    6 ar
    11    5   30 1
    12    6    7 ar
    13    6   31 1
    14    7    8 ar
    15    7   32 1
    16    8    9 1
    17    9   10 1
    18    9   33 1
    19    9   34 1
    20   10   11 am
    21   10   35 1
    22   11   12 2
    23   11   13 1
    24   13   17 2
    25   13   14 1
    26   14   25 1
    27   14   15 2
    28   15   16 1
    29   15   23 1
    30   16   17 1
    31   17   18 1
    32   18   22 1
    33   18   19 1
    34   19   20 2
    35   19   36 1
    36   20   21 1
    37   21   22 2
    38   23   24 1
    39   23   37 1
    40   23   38 1
    41   24   25 1
    42   24   39 1
    43   24   40 1
    44   25   41 1
    45   25   42 1
@<TRIPOS>MOLECULE
ZINC42378447
   38    40     0     0     0
SMALL
USER_CHARGES

@<TRIPOS>ATOM
      1 C1          0.0055    1.4247   -0.0038 C.3       1 <0>         0.0339
      2 O1          0.0270   -0.0041   -0.0129 O.3       1 <0>        -0.3489
      3 C2          0.6360   -0.6131    1.0229 C.2       1 <0>         0.5073
      4 O2          1.1352    0.0504    1.9094 O.2       1 <0>        -0.4947
      5 C3          0.6968   -2.0881    1.0805 C.ar      1 <0>        -0.1320
      6 C4          0.1281   -2.8531    0.0585 C.ar      1 <0>        -0.0305
      7 C5          0.1837   -4.2314    0.1112 C.ar      1 <0>        -0.1349
      8 C6          0.8012   -4.8638    1.1724 C.ar      1 <0>        -0.0464
      9 C7          1.3742   -4.1115    2.2004 C.ar      1 <0>        -0.1490
     10 C8          1.3264   -2.7198    2.1512 C.ar      1 <0>         0.0088
     11 C9          2.0347   -4.7903    3.3355 C.2       1 <0>         0.5610
     12 O3          2.5329   -4.1343    4.2295 O.2       1 <0>        -0.5070
     13 N1          2.0845   -6.1365    3.3792 N.am      1 <0>        -0.6567
     14 C10         2.8077   -6.7772    4.3908 C.ar      1 <0>         0.1779
     15 C11         3.8615   -6.1237    5.0136 C.ar      1 <0>        -0.1078
     16 C12         4.5747   -6.7592    6.0131 C.ar      1 <0>        -0.0120
     17 C13         4.2403   -8.0472    6.3953 C.ar      1 <0>        -0.1034
     18 C14         3.1926   -8.7047    5.7797 C.ar      1 <0>        -0.0952
     19 C15         2.4679   -8.0723    4.7803 C.ar      1 <0>         0.1124
     20 N2          1.3999   -8.7362    4.1587 N.pl3     1 <0>        -0.3241
     21 C16         0.8941   -9.9396    4.4905 C.2       1 <0>         0.2727
     22 N3         -0.0919  -10.2046    3.6717 N.2       1 <0>        -0.5310
     23 C17        -0.2450   -9.2012    2.8085 C.2       1 <0>         0.2269
     24 N4          0.6411   -8.2757    3.0702 N.2       1 <0>        -0.3462
     25 Cl1         5.8932   -5.9403    6.7907 Cl        1 <0>        -0.0472
     26 H1          1.0275    1.8035   -0.0012 H         1 <0>         0.0636
     27 H2         -0.5136    1.7859   -0.8917 H         1 <0>         0.1063
     28 H3         -0.5140    1.7747    0.8883 H         1 <0>         0.0635
     29 H4         -0.3563   -2.3649   -0.7742 H         1 <0>         0.1481
     30 H5         -0.2580   -4.8179   -0.6808 H         1 <0>         0.1445
     31 H6          0.8409   -5.9425    1.2076 H         1 <0>         0.1353
     32 H7          1.7715   -2.1335    2.9414 H         1 <0>         0.1547
     33 H8          1.6189   -6.6610    2.7091 H         1 <0>         0.4265
     34 H9          4.1248   -5.1191    4.7173 H         1 <0>         0.1687
     35 H10         4.8003   -8.5395    7.1765 H         1 <0>         0.1509
     36 H11         2.9350   -9.7096    6.0798 H         1 <0>         0.1489
     37 H12         1.2413  -10.5746    5.2921 H         1 <0>         0.2273
     38 H13        -0.9848   -9.1570    2.0229 H         1 <0>         0.2278
@<TRIPOS>BOND
     1    1    2 1
     2    1   26 1
     3    1   27 1
     4    1   28 1
     5    2    3 1
     6    3    4 2
     7    3    5 1
     8    5   10 ar
     9    5    6 ar
    10    6    7 ar
    11    6   29 1
    12    7    8 ar
    13    7   30 1
    14    8    9 ar
    15    8   31 1
    16    9   10 ar
    17    9   11 1
    18   10   32 1
    19   11   12 2
    20   11   13 am
    21   13   14 1
    22   13   33 1
    23   14   19 ar
    24   14   15 ar
    25   15   16 ar
    26   15   34 1
    27   16   17 ar
    28   16   25 1
    29   17   18 ar
    30   17   35 1
    31   18   19 ar
    32   18   36 1
    33   19   20 1
    34   20   24 1
    35   20   21 1
    36   21   22 2
    37   21   37 1
    38   22   23 1
    39   23   24 2
    40   23   38 1
@<TRIPOS>MOLECULE
ZINC65836923
   42    44     0     0     0
SMALL
USER_CHARGES

@<TRIPOS>ATOM
      1 C1         -0.0031    1.5258    0.0192 C.3       1 <0>        -0.1613
      2 C2          0.0021   -0.0041    0.0020 C.3       1 <0>         0.1893
      3 C3          0.7075   -0.4901   -1.2379 C.ar      1 <0>        -0.1245
      4 C4          2.0893   -0.5240   -1.2770 C.ar      1 <0>        -0.0850
      5 C5          2.7388   -0.9689   -2.4118 C.ar      1 <0>        -0.1513
      6 C6          2.0025   -1.3828   -3.5141 C.ar      1 <0>         0.1711
      7 C7          0.6149   -1.3479   -3.4715 C.ar      1 <0>        -0.1529
      8 C8         -0.0286   -0.9065   -2.3319 C.ar      1 <0>        -0.0742
      9 N1          2.6575   -1.8336   -4.6655 N.am      1 <0>        -0.5616
     10 C9          1.9778   -2.3975   -5.8377 C.3       1 <0>         0.0931
     11 C10         3.0136   -2.3392   -6.9823 C.3       1 <0>        -0.1321
     12 C11         4.3480   -2.3603   -6.2014 C.3       1 <0>        -0.1542
     13 C12         3.9896   -1.8006   -4.8424 C.2       1 <0>         0.5158
     14 O1          4.7882   -1.3850   -4.0297 O.2       1 <0>        -0.5067
     15 N2          0.7009   -0.5034    1.1888 N.am      1 <0>        -0.7147
     16 C13         0.0354   -0.6475    2.3519 C.2       1 <0>         0.6036
     17 O2         -1.1461   -0.3628    2.4163 O.2       1 <0>        -0.5036
     18 C14         0.7346   -1.1471    3.5394 C.2       1 <0>        -0.1998
     19 C15         0.2399   -1.3714    4.8152 C.2       1 <0>        -0.0838
     20 C16         1.1461   -1.8488    5.7314 C.2       1 <0>        -0.0840
     21 C17         2.4268   -2.0636    5.3414 C.2       1 <0>        -0.2100
     22 S1          2.4407   -1.6322    3.7178 S.3       1 <0>         0.3423
     23 N3          3.5536   -2.5683    6.1579 N.pl3     1 <0>         0.0734
     24 O3          3.3810   -2.8423    7.3227 O.2       1 <0>        -0.1240
     25 O4          4.6466   -2.7066    5.6599 O.3       1 <0>        -0.1385
     26 H1          1.0233    1.8927    0.0177 H         1 <0>         0.0620
     27 H2         -0.5231    1.8973   -0.8638 H         1 <0>         0.0740
     28 H3         -0.5133    1.8774    0.9160 H         1 <0>         0.0672
     29 H4         -1.0243   -0.3709    0.0035 H         1 <0>         0.1038
     30 H5          2.6613   -0.2020   -0.4193 H         1 <0>         0.1237
     31 H6          3.8180   -0.9945   -2.4420 H         1 <0>         0.1580
     32 H7          0.0395   -1.6688   -4.3273 H         1 <0>         0.1296
     33 H8         -1.1078   -0.8829   -2.2967 H         1 <0>         0.1318
     34 H9          1.6868   -3.4300   -5.6446 H         1 <0>         0.0839
     35 H10         1.1025   -1.7990   -6.0903 H         1 <0>         0.0887
     36 H11         2.9275   -3.2109   -7.6311 H         1 <0>         0.0988
     37 H12         2.9111   -1.4172   -7.5546 H         1 <0>         0.0874
     38 H13         4.7214   -3.3804   -6.1117 H         1 <0>         0.1119
     39 H14         5.0862   -1.7245   -6.6902 H         1 <0>         0.1095
     40 H15         1.6426   -0.7303    1.1376 H         1 <0>         0.4001
     41 H16        -0.7919   -1.1825    5.0726 H         1 <0>         0.1752
     42 H17         0.8424   -2.0499    6.7482 H         1 <0>         0.1681
@<TRIPOS>BOND
     1    1    2 1
     2    1   26 1
     3    1   27 1
     4    1   28 1
     5    2    3 1
     6    2   15 1
     7    2   29 1
     8    3    8 ar
     9    3    4 ar
    10    4    5 ar
    11    4   30 1
    12    5    6 ar
    13    5   31 1
    14    6    7 ar
    15    6    9 1
    16    7    8 ar
    17    7   32 1
    18    8   33 1
    19    9   13 am
    20    9   10 1
    21   10   11 1
    22   10   34 1
    23   10   35 1
    24   11   12 1
    25   11   36 1
    26   11   37 1
    27   12   13 1
    28   12   38 1
    29   12   39 1
    30   13   14 2
    31   15   16 am
    32   15   40 1
    33   16   17 2
    34   16   18 1
    35   18   22 1
    36   18   19 2
    37   19   20 1
    38   19   41 1
    39   20   21 2
    40   20   42 1
    41   21   22 1
    42   21   23 1
    43   23   24 2
    44   23   25 1
@<TRIPOS>MOLECULE
ZINC13521826
   23    24     0     0     0
SMALL
USER_CHARGES
3-amino-N-thiazol-2-yl-pyridine-2-carboxamide
@<TRIPOS>ATOM
      1 C1          1.0517    6.2801    0.0154 C.ar      1 <0>        -0.0850
      2 C2          2.2830    5.6581    0.1069 C.ar      1 <0>        -0.1674
      3 C3          2.3241    4.2634    0.1088 C.ar      1 <0>         0.2439
      4 C4          1.1205    3.5508    0.0183 C.ar      1 <0>        -0.0302
      5 N1         -0.0374    4.1961   -0.0732 N.ar      1 <0>        -0.4183
      6 C5         -0.0986    5.5084   -0.0712 C.ar      1 <0>         0.0391
      7 C6          1.1399    2.0742    0.0185 C.2       1 <0>         0.5883
      8 O1          2.2004    1.4802   -0.0058 O.2       1 <0>        -0.4821
      9 N2         -0.0180    1.3851    0.0456 N.am      1 <0>        -0.6018
     10 C7          0.0002   -0.0036    0.0458 C.2       1 <0>         0.3033
     11 N3          1.0367   -0.8188    0.0163 N.2       1 <0>        -0.5161
     12 C8          0.8769   -2.1276    0.0265 C.2       1 <0>         0.0567
     13 C9         -0.3840   -2.6243    0.0559 C.2       1 <0>        -0.2307
     14 S1         -1.3360   -1.1123    0.0772 S.3       1 <0>         0.0602
     15 N4          3.5367    3.5928    0.1993 N.pl3     1 <0>        -0.8431
     16 H1          0.9854    7.3581    0.0110 H         1 <0>         0.1436
     17 H2          3.1916    6.2380    0.1749 H         1 <0>         0.1431
     18 H3         -1.0601    5.9951   -0.1430 H         1 <0>         0.1640
     19 H4         -0.8642    1.8590    0.0609 H         1 <0>         0.4378
     20 H5          1.7307   -2.7887    0.0066 H         1 <0>         0.1741
     21 H6         -0.7204   -3.6506    0.0638 H         1 <0>         0.2009
     22 H7          3.5633    2.6262    0.1219 H         1 <0>         0.4205
     23 H8          4.3571    4.0909    0.3398 H         1 <0>         0.3991
@<TRIPOS>BOND
     1    1    6 ar
     2    1    2 ar
     3    1   16 1
     4    2    3 ar
     5    2   17 1
     6    3    4 ar
     7    3   15 1
     8    4    5 ar
     9    4    7 1
    10    5    6 ar
    11    6   18 1
    12    7    8 2
    13    7    9 am
    14    9   10 1
    15    9   19 1
    16   10   14 1
    17   10   11 2
    18   11   12 1
    19   12   13 2
    20   12   20 1
    21   13   14 1
    22   13   21 1
    23   15   22 1
    24   15   23 1
@<TRIPOS>MOLECULE
ZINC36264378
   34    35     0     0     0
SMALL
USER_CHARGES

@<TRIPOS>ATOM
      1 C1         -0.0187    1.5258    0.0104 C.3       1 <0>        -0.1478
      2 C2          0.0021   -0.0041    0.0020 C.3       1 <0>        -0.0888
      3 C3         -1.4338   -0.5335    0.0112 C.3       1 <0>        -0.1298
      4 C4         -1.4095   -2.0646   -0.0322 C.3       1 <0>         0.1305
      5 N1         -0.5782   -2.5560    1.0751 N.pl3     1 <0>        -0.9908
      6 C5          0.7913   -2.0416    1.2125 C.3       1 <0>         0.1307
      7 C6          0.7423   -0.5108    1.2420 C.3       1 <0>        -0.1298
      8 S1         -1.1734   -3.6680    2.1481 S.o2      1 <0>         2.7308
      9 O1         -0.4206   -3.5214    3.3444 O.2       1 <0>        -1.0544
     10 O2         -2.5887   -3.5437    2.1185 O.2       1 <0>        -1.0595
     11 N2         -0.8174   -5.1689    1.5458 N.2       1 <0>        -1.1972
     12 C7         -1.2218   -6.3687    2.2828 C.3       1 <0>         0.1696
     13 H1         -2.1660   -6.2933    2.8220 H         1 <0>         0.0818
     14 C8         -0.1153   -7.2182    2.9112 C.3       1 <0>        -0.2037
     15 C9         -0.8618   -7.7259    1.6750 C.3       1 <0>        -0.0895
     16 H2         -1.5691   -8.5435    1.8148 H         1 <0>         0.1563
     17 N3         -0.1372   -7.7262    0.3972 N.4       1 <0>        -0.5853
     18 H3          1.0039    1.9031    0.0027 H         1 <0>         0.0536
     19 H4         -0.5459    1.8868   -0.8726 H         1 <0>         0.0536
     20 H5         -0.5289    1.8773    0.9072 H         1 <0>         0.0537
     21 H6          0.5127   -0.3554   -0.8946 H         1 <0>         0.0686
     22 H7         -1.9375   -0.2032    0.9196 H         1 <0>         0.0646
     23 H8         -1.9673   -0.1533   -0.8600 H         1 <0>         0.0691
     24 H9         -2.4239   -2.4493    0.0738 H         1 <0>         0.0864
     25 H10        -0.9879   -2.3966   -0.9810 H         1 <0>         0.0558
     26 H11         1.2290   -2.4111    2.1398 H         1 <0>         0.0864
     27 H12         1.3923   -2.3717    0.3653 H         1 <0>         0.0557
     28 H13         1.7577   -0.1143    1.2468 H         1 <0>         0.0690
     29 H14         0.2181   -0.1807    2.1388 H         1 <0>         0.0646
     30 H15         0.9135   -6.8844    2.7763 H         1 <0>         0.1080
     31 H16        -0.3317   -7.7020    3.8637 H         1 <0>         0.1065
     32 H17         0.7413   -7.2425    0.5086 H         1 <0>         0.4320
     33 H18         0.0367   -8.6775    0.1093 H         1 <0>         0.4150
     34 H19        -0.6919   -7.2587   -0.3041 H         1 <0>         0.4342
@<TRIPOS>BOND
     1    1    2 1
     2    1   18 1
     3    1   19 1
     4    1   20 1
     5    2    7 1
     6    2    3 1
     7    2   21 1
     8    3    4 1
     9    3   22 1
    10    3   23 1
    11    4    5 1
    12    4   24 1
    13    4   25 1
    14    5    6 1
    15    5    8 1
    16    6    7 1
    17    6   26 1
    18    6   27 1
    19    7   28 1
    20    7   29 1
    21    8    9 2
    22    8   10 2
    23    8   11 1
    24   11   12 1
    25   12   13 1
    26   12   15 1
    27   12   14 1
    28   14   15 1
    29   14   30 1
    30   14   31 1
    31   15   16 1
    32   15   17 1
    33   17   32 1
    34   17   33 1
    35   17   34 1
@<TRIPOS>MOLECULE
ZINC43643818
   35    37     0     0     0
SMALL
USER_CHARGES

@<TRIPOS>ATOM
      1 C1         -0.0170    1.4048    0.0098 C.2       1 <0>        -0.0049
      2 C2          1.1526    2.1000    0.0023 C.2       1 <0>        -0.2473
      3 C3          2.3660    1.3909   -0.0150 C.2       1 <0>         0.5196
      4 O1          3.4275    1.9934   -0.0264 O.2       1 <0>        -0.5542
      5 N1          2.3533    0.0482   -0.0185 N.am      1 <0>        -0.6120
      6 H1          3.1952   -0.4334   -0.0303 H         1 <0>         0.4125
      7 C4          1.1823   -0.6554   -0.0055 C.2       1 <0>         0.1747
      8 C5          0.0021   -0.0041    0.0020 C.2       1 <0>        -0.2017
      9 C6         -1.3260   -0.7148   -0.0069 C.3       1 <0>         0.2246
     10 H2         -1.7452   -0.6795   -1.0125 H         1 <0>         0.1030
     11 C7         -1.1621   -2.1722    0.4187 C.3       1 <0>        -0.1301
     12 C8         -0.0382   -2.7933   -0.4199 C.3       1 <0>        -0.1112
     13 C9          1.2835   -2.1593    0.0072 C.3       1 <0>        -0.0951
     14 N2         -2.2394   -0.0422    0.9202 N.am      1 <0>        -0.7392
     15 C10        -2.9510    1.0260    0.5091 C.2       1 <0>         0.7069
     16 O2         -2.8349    1.4314   -0.6313 O.2       1 <0>        -0.5816
     17 N3         -3.7912    1.6448    1.3620 N.am      1 <0>        -0.7165
     18 C11        -4.5648    2.8059    0.9151 C.3       1 <0>         0.0972
     19 C12        -4.6518    4.0040    1.8627 C.3       1 <0>        -0.1946
     20 C13        -5.8732    3.1078    1.6484 C.3       1 <0>        -0.1897
     21 H3         -0.9592    1.9325    0.0261 H         1 <0>         0.1438
     22 H4          1.1487    3.1800    0.0093 H         1 <0>         0.1479
     23 H5         -0.9010   -2.2193    1.4759 H         1 <0>         0.0756
     24 H6         -2.0924   -2.7129    0.2447 H         1 <0>         0.0830
     25 H7         -0.0026   -3.8690   -0.2475 H         1 <0>         0.0861
     26 H8         -0.2161   -2.5957   -1.4770 H         1 <0>         0.0777
     27 H9          2.0701   -2.4720   -0.6796 H         1 <0>         0.0903
     28 H10         1.5333   -2.4937    1.0141 H         1 <0>         0.0956
     29 H11        -2.3320   -0.3656    1.8300 H         1 <0>         0.3985
     30 H12        -3.8838    1.3214    2.2718 H         1 <0>         0.3982
     31 H13        -4.5283    3.0116   -0.1547 H         1 <0>         0.1407
     32 H14        -4.1336    3.9283    2.8186 H         1 <0>         0.0966
     33 H15        -4.6725    4.9982    1.4164 H         1 <0>         0.1039
     34 H16        -6.6975    3.5124    1.0611 H         1 <0>         0.1050
     35 H17        -6.1585    2.4425    2.4633 H         1 <0>         0.0969
@<TRIPOS>BOND
     1    1    8 1
     2    1    2 2
     3    1   21 1
     4    2    3 1
     5    2   22 1
     6    3    4 2
     7    3    5 am
     8    5    6 1
     9    5    7 1
    10    7   13 1
    11    7    8 2
    12    8    9 1
    13    9   10 1
    14    9   11 1
    15    9   14 1
    16   11   12 1
    17   11   23 1
    18   11   24 1
    19   12   13 1
    20   12   25 1
    21   12   26 1
    22   13   27 1
    23   13   28 1
    24   14   15 am
    25   14   29 1
    26   15   16 2
    27   15   17 am
    28   17   18 1
    29   17   30 1
    30   18   20 1
    31   18   19 1
    32   18   31 1
    33   19   20 1
    34   19   32 1
    35   19   33 1
    36   20   34 1
    37   20   35 1
@<TRIPOS>MOLECULE
ZINC51146499
   35    36     0     0     0
SMALL
USER_CHARGES

@<TRIPOS>ATOM
      1 C1         -0.9081    1.2107    0.3521 C.3       1 <0>        -0.0792
      2 C2         -0.5649   -0.2506    0.2188 C.2       1 <0>         0.0975
      3 C3         -0.1645   -0.8933   -0.9561 C.2       1 <0>        -0.2857
      4 C4          0.0508   -2.2051   -0.6607 C.2       1 <0>         0.3860
      5 N1         -0.2071   -2.3744    0.6561 N.pl3     1 <0>        -0.3791
      6 N2         -0.5853   -1.1335    1.1842 N.2       1 <0>        -0.3000
      7 C5         -0.1043   -3.6324    1.3998 C.3       1 <0>         0.1136
      8 N3          0.4611   -3.1924   -1.5521 N.pl3     1 <0>        -0.5884
      9 N4          1.2941   -4.1897   -1.1308 N.3       1 <0>        -0.6056
     10 C6         -0.0003   -0.2494   -2.3086 C.3       1 <0>         0.1521
     11 N5          1.3762    0.2431   -2.4527 N.3       1 <0>        -0.5475
     12 C7          1.6605    1.2991   -1.4784 C.3       1 <0>         0.0497
     13 C8          3.1763    1.4722   -1.3269 C.3       1 <0>        -0.0717
     14 S1          3.8601    1.9666   -2.9392 S.3       1 <0>        -0.2763
     15 C9          3.1555    0.7276   -4.0706 C.3       1 <0>        -0.0724
     16 C10         1.6427    0.6606   -3.8310 C.3       1 <0>         0.0541
     17 H1         -0.0082    1.7743    0.5986 H         1 <0>         0.0778
     18 H2         -1.3182    1.5750   -0.5898 H         1 <0>         0.0755
     19 H3         -1.6460    1.3399    1.1438 H         1 <0>         0.0755
     20 H4          0.9251   -3.7777    1.7275 H         1 <0>         0.0681
     21 H5         -0.7605   -3.5952    2.2693 H         1 <0>         0.0822
     22 H6         -0.4009   -4.4604    0.7560 H         1 <0>         0.0911
     23 H7          0.1554   -3.1722   -2.4725 H         1 <0>         0.4120
     24 H8          1.4369   -4.8733   -1.8591 H         1 <0>         0.3604
     25 H9          2.1738   -3.8144   -0.8096 H         1 <0>         0.3320
     26 H10        -0.2072   -0.9830   -3.0878 H         1 <0>         0.0706
     27 H11        -0.6961    0.5846   -2.4008 H         1 <0>         0.0434
     28 H12         1.2213    2.2360   -1.8211 H         1 <0>         0.0474
     29 H13         1.2286    1.0289   -0.5148 H         1 <0>         0.0981
     30 H14         3.3856    2.2446   -0.5868 H         1 <0>         0.1059
     31 H15         3.6239    0.5297   -1.0116 H         1 <0>         0.0868
     32 H16         3.3514    1.0190   -5.1025 H         1 <0>         0.1064
     33 H17         3.6022   -0.2467   -3.8725 H         1 <0>         0.0876
     34 H18         1.1983   -0.0580   -4.5197 H         1 <0>         0.0826
     35 H19         1.2048    1.6439   -4.0028 H         1 <0>         0.0495
@<TRIPOS>BOND
     1    1    2 1
     2    1   17 1
     3    1   18 1
     4    1   19 1
     5    2    6 2
     6    2    3 1
     7    3    4 2
     8    3   10 1
     9    4    5 1
    10    4    8 1
    11    5    6 1
    12    5    7 1
    13    7   20 1
    14    7   21 1
    15    7   22 1
    16    8    9 1
    17    8   23 1
    18    9   24 1
    19    9   25 1
    20   10   11 1
    21   10   26 1
    22   10   27 1
    23   11   16 1
    24   11   12 1
    25   12   13 1
    26   12   28 1
    27   12   29 1
    28   13   14 1
    29   13   30 1
    30   13   31 1
    31   14   15 1
    32   15   16 1
    33   15   32 1
    34   15   33 1
    35   16   34 1
    36   16   35 1
@<TRIPOS>MOLECULE
ZINC42472196
   40    41     0     0     0
SMALL
USER_CHARGES

@<TRIPOS>ATOM
      1 C1         -2.5277    1.6050   -0.1226 C.3       1 <0>        -0.0799
      2 C2         -1.2802    0.7832    0.0760 C.2       1 <0>         0.1458
      3 C3         -0.3880    0.3701   -0.9414 C.2       1 <0>        -0.3574
      4 C4          0.6220   -0.3635   -0.3231 C.2       1 <0>         0.4081
      5 N1          0.3450   -0.3859    0.9964 N.pl3     1 <0>        -0.4943
      6 H1          0.8759   -0.8247    1.6795 H         1 <0>         0.4389
      7 N2         -0.8337    0.3352    1.2150 N.2       1 <0>        -0.3010
      8 N3          1.7028   -0.9558   -0.9442 N.pl3     1 <0>        -0.8436
      9 C5         -0.5048    0.6590   -2.3757 C.2       1 <0>         0.6052
     10 O1          0.0066    1.6618   -2.8379 O.2       1 <0>        -0.5329
     11 N4         -1.1784   -0.1863   -3.1808 N.am      1 <0>        -0.6011
     12 C6         -1.7941   -1.3936   -2.6243 C.3       1 <0>         0.0778
     13 C7         -1.2949    0.1021   -4.6124 C.3       1 <0>         0.1519
     14 C8         -1.9889    1.4519   -4.8059 C.3       1 <0>        -0.1388
     15 C9         -3.3843    1.4021   -4.1804 C.3       1 <0>        -0.1097
     16 C10        -4.2075    0.3039   -4.8566 C.3       1 <0>        -0.0908
     17 C11        -3.5135   -1.0459   -4.6631 C.3       1 <0>        -0.1424
     18 C12        -2.1180   -0.9961   -5.2885 C.3       1 <0>        -0.1265
     19 C13        -5.6029    0.2542   -4.2311 C.3       1 <0>        -0.1476
     20 H2         -2.2812    2.6640   -0.0460 H         1 <0>         0.0832
     21 H3         -2.9450    1.3995   -1.1084 H         1 <0>         0.0755
     22 H4         -3.2592    1.3458    0.6428 H         1 <0>         0.0790
     23 H5          1.8113   -0.8803   -1.9052 H         1 <0>         0.4194
     24 H6          2.3539   -1.4476   -0.4198 H         1 <0>         0.4055
     25 H7         -2.7736   -1.1463   -2.2152 H         1 <0>         0.0604
     26 H8         -1.9066   -2.1396   -3.4109 H         1 <0>         0.0813
     27 H9         -1.1600   -1.7930   -1.8328 H         1 <0>         0.0617
     28 H10        -0.3008    0.1375   -5.0580 H         1 <0>         0.0731
     29 H11        -1.4025    2.2343   -4.3242 H         1 <0>         0.0864
     30 H12        -2.0756    1.6664   -5.8710 H         1 <0>         0.0684
     31 H13        -3.2976    1.1876   -3.1153 H         1 <0>         0.0611
     32 H14        -3.8788    2.3637   -4.3182 H         1 <0>         0.0601
     33 H15        -4.2942    0.5185   -5.9217 H         1 <0>         0.0669
     34 H16        -3.4268   -1.2605   -3.5979 H         1 <0>         0.0871
     35 H17        -4.0999   -1.8283   -5.1448 H         1 <0>         0.0620
     36 H18        -2.2047   -0.7816   -6.3537 H         1 <0>         0.0782
     37 H19        -1.6236   -1.9577   -5.1507 H         1 <0>         0.0687
     38 H20        -6.0973    1.2157   -4.3689 H         1 <0>         0.0539
     39 H21        -6.1893   -0.5283   -4.7128 H         1 <0>         0.0531
     40 H22        -5.5162    0.0396   -3.1659 H         1 <0>         0.0532
@<TRIPOS>BOND
     1    1    2 1
     2    1   20 1
     3    1   21 1
     4    1   22 1
     5    2    7 2
     6    2    3 1
     7    3    4 2
     8    3    9 1
     9    4    5 1
    10    4    8 1
    11    5    6 1
    12    5    7 1
    13    8   23 1
    14    8   24 1
    15    9   10 2
    16    9   11 am
    17   11   12 1
    18   11   13 1
    19   12   25 1
    20   12   26 1
    21   12   27 1
    22   13   18 1
    23   13   14 1
    24   13   28 1
    25   14   15 1
    26   14   29 1
    27   14   30 1
    28   15   16 1
    29   15   31 1
    30   15   32 1
    31   16   17 1
    32   16   19 1
    33   16   33 1
    34   17   18 1
    35   17   34 1
    36   17   35 1
    37   18   36 1
    38   18   37 1
    39   19   38 1
    40   19   39 1
    41   19   40 1
@<TRIPOS>MOLECULE
ZINC04028010
   35    37     0     0     0
SMALL
USER_CHARGES
2-(methyl-oxo-BLAHyl)oxyacetamide
@<TRIPOS>ATOM
      1 C1         -1.2910   -0.7779    0.0119 C.3       1 <0>        -0.1048
      2 C2          0.0021   -0.0041    0.0020 C.ar      1 <0>        -0.1265
      3 C3          1.2140   -0.6755   -0.0143 C.ar      1 <0>         0.1784
      4 C4          2.4148    0.0311   -0.0229 C.ar      1 <0>        -0.2225
      5 C5          2.4141    1.3961   -0.0153 C.ar      1 <0>        -0.0194
      6 C6          1.1993    2.0904    0.0018 C.ar      1 <0>        -0.1660
      7 C7         -0.0167    1.3820    0.0096 C.ar      1 <0>         0.1815
      8 O1         -1.1855    2.0578    0.0188 O.3       1 <0>        -0.2607
      9 C8         -1.2197    3.3985    0.0297 C.2       1 <0>         0.5243
     10 O2         -2.2990    3.9629    0.0409 O.2       1 <0>        -0.4584
     11 C9         -0.0387    4.1747    0.0245 C.2       1 <0>        -0.2394
     12 C10         1.1680    3.5550    0.0113 C.2       1 <0>         0.0143
     13 C11         2.2830    4.5748    0.0098 C.3       1 <0>        -0.0896
     14 C12         1.6186    5.8953    0.4571 C.3       1 <0>        -0.1199
     15 C13         0.1505    5.6764    0.0312 C.3       1 <0>        -0.0594
     16 O3          1.2316   -2.0328   -0.0215 O.3       1 <0>        -0.2760
     17 C14         2.5131   -2.6650   -0.0383 C.3       1 <0>         0.0357
     18 C15         2.3351   -4.1614   -0.0442 C.2       1 <0>         0.5192
     19 O4          1.2205   -4.6395   -0.0348 O.2       1 <0>        -0.5138
     20 N1          3.4144   -4.9684   -0.0598 N.am      1 <0>        -0.8490
     21 H1         -1.6140   -0.9590   -1.0133 H         1 <0>         0.0752
     22 H2         -1.1403   -1.7309    0.5191 H         1 <0>         0.0801
     23 H3         -2.0541   -0.2036    0.5372 H         1 <0>         0.0737
     24 H4          3.3524   -0.5047   -0.0360 H         1 <0>         0.1416
     25 H5          3.3481    1.9384   -0.0218 H         1 <0>         0.1433
     26 H6          3.0622    4.2851    0.7148 H         1 <0>         0.0888
     27 H7          2.6983    4.6804   -0.9925 H         1 <0>         0.0978
     28 H8          1.6956    6.0236    1.5368 H         1 <0>         0.0792
     29 H9          2.0530    6.7467   -0.0667 H         1 <0>         0.0873
     30 H10        -0.5252    6.1397    0.7502 H         1 <0>         0.0829
     31 H11        -0.0195    6.0852   -0.9648 H         1 <0>         0.0855
     32 H12         3.0568   -2.3603   -0.9326 H         1 <0>         0.1004
     33 H13         3.0757   -2.3695    0.8473 H         1 <0>         0.1003
     34 H14         4.3058   -4.5860   -0.0673 H         1 <0>         0.4040
     35 H15         3.2998   -5.9316   -0.0635 H         1 <0>         0.4117
@<TRIPOS>BOND
     1    1    2 1
     2    1   21 1
     3    1   22 1
     4    1   23 1
     5    2    7 ar
     6    2    3 ar
     7    3    4 ar
     8    3   16 1
     9    4    5 ar
    10    4   24 1
    11    5    6 ar
    12    5   25 1
    13    6   12 1
    14    6    7 ar
    15    7    8 1
    16    8    9 1
    17    9   10 2
    18    9   11 1
    19   11   15 1
    20   11   12 2
    21   12   13 1
    22   13   14 1
    23   13   26 1
    24   13   27 1
    25   14   15 1
    26   14   28 1
    27   14   29 1
    28   15   30 1
    29   15   31 1
    30   16   17 1
    31   17   18 1
    32   17   32 1
    33   17   33 1
    34   18   19 2
    35   18   20 am
    36   20   34 1
    37   20   35 1
@<TRIPOS>MOLECULE
ZINC35721554
   44    46     0     0     0
SMALL
USER_CHARGES

@<TRIPOS>ATOM
      1 C1         -0.0187    1.5258    0.0104 C.3       1 <0>        -0.1158
      2 C2          1.4167    2.0553   -0.0004 C.3       1 <0>        -0.1252
      3 C3          2.1567    1.5485    1.2391 C.3       1 <0>        -0.1029
      4 C4          2.1775    0.0187    1.2307 C.3       1 <0>        -0.1400
      5 H1          2.6876   -0.3328    0.3339 H         1 <0>         0.0672
      6 C5          0.7421   -0.5109    1.2415 C.3       1 <0>        -0.0806
      7 H2          0.7568   -1.6008    1.2356 H         1 <0>         0.0967
      8 C6          0.0021   -0.0041    0.0020 C.3       1 <0>        -0.1094
      9 C7          0.0367   -0.0249    2.4814 C.2       1 <0>         0.5185
     10 O1          0.6242    0.6760    3.2780 O.2       1 <0>        -0.4782
     11 N1         -1.2470   -0.3692    2.7051 N.am      1 <0>        -0.7441
     12 C8         -1.9327    0.1033    3.9104 C.3       1 <0>         0.1396
     13 H3         -1.5852    1.1060    4.1591 H         1 <0>         0.1208
     14 C9         -1.6365   -0.8454    5.0741 C.3       1 <0>        -0.0258
     15 N2         -2.8836   -1.4247    5.5789 N.4       1 <0>        -0.3737
     16 C10        -3.7723   -0.3754    6.0837 C.3       1 <0>        -0.0077
     17 C11        -4.1394    0.5890    4.9536 C.3       1 <0>        -0.1336
     18 C12        -3.4468    0.1305    3.6634 C.3       1 <0>        -0.1080
     19 C13        -3.9116   -1.2978    3.3496 C.3       1 <0>        -0.1374
     20 C14        -3.5493   -2.2061    4.5339 C.3       1 <0>        -0.0070
     21 C15         2.9063   -0.4805    2.4516 C.2       1 <0>         0.5013
     22 O2          3.3665    0.3137    3.2540 O.co2     1 <0>        -0.6765
     23 O3          3.0358   -1.6786    2.6369 O.co2     1 <0>        -0.7164
     24 H4         -0.5289    1.8773    0.9072 H         1 <0>         0.0530
     25 H5         -0.5459    1.8868   -0.8726 H         1 <0>         0.0581
     26 H6          1.9269    1.7038   -0.8972 H         1 <0>         0.0561
     27 H7          1.4019    3.1452    0.0056 H         1 <0>         0.0547
     28 H8          3.1793    1.9258    1.2314 H         1 <0>         0.0577
     29 H9          1.6465    1.9000    2.1359 H         1 <0>         0.0841
     30 H10        -1.0205   -0.3814    0.0098 H         1 <0>         0.0548
     31 H11         0.5123   -0.3556   -0.8948 H         1 <0>         0.0749
     32 H12        -1.7169   -0.9298    2.0681 H         1 <0>         0.3987
     33 H13        -0.9793   -1.6445    4.7310 H         1 <0>         0.1373
     34 H14        -1.1442   -0.2932    5.8746 H         1 <0>         0.1379
     35 H15        -4.6801   -0.8301    6.4802 H         1 <0>         0.1283
     36 H16        -3.2681    0.1741    6.8786 H         1 <0>         0.1303
     37 H17        -5.2198    0.5875    4.8086 H         1 <0>         0.1026
     38 H18        -3.8044    1.5945    5.2082 H         1 <0>         0.1023
     39 H19        -3.6836    0.8088    2.8437 H         1 <0>         0.1225
     40 H20        -4.9908   -1.3055    3.1969 H         1 <0>         0.1029
     41 H21        -3.4108   -1.6556    2.4500 H         1 <0>         0.0977
     42 H22        -2.8816   -2.9975    4.1934 H         1 <0>         0.1298
     43 H23        -4.4582   -2.6512    4.9388 H         1 <0>         0.1287
     44 H24        -2.6617   -2.0413    6.3461 H         1 <0>         0.4255
@<TRIPOS>BOND
     1    1    8 1
     2    1    2 1
     3    1   24 1
     4    1   25 1
     5    2    3 1
     6    2   26 1
     7    2   27 1
     8    3    4 1
     9    3   28 1
    10    3   29 1
    11    4    5 1
    12    4    6 1
    13    4   21 1
    14    6    7 1
    15    6    8 1
    16    6    9 1
    17    8   30 1
    18    8   31 1
    19    9   10 2
    20    9   11 am
    21   11   12 1
    22   11   32 1
    23   12   13 1
    24   12   18 1
    25   12   14 1
    26   14   15 1
    27   14   33 1
    28   14   34 1
    29   15   20 1
    30   15   16 1
    31   15   44 1
    32   16   17 1
    33   16   35 1
    34   16   36 1
    35   17   18 1
    36   17   37 1
    37   17   38 1
    38   18   19 1
    39   18   39 1
    40   19   20 1
    41   19   40 1
    42   19   41 1
    43   20   42 1
    44   20   43 1
    45   21   22 2
    46   21   23 1
@<TRIPOS>MOLECULE
ZINC45661439
   45    46     0     0     0
SMALL
USER_CHARGES

@<TRIPOS>ATOM
      1 C1          5.3914   -9.7132    7.2313 C.3       1 <0>        -0.1535
      2 C2          4.7524   -9.2599    5.9171 C.3       1 <0>         0.0567
      3 O1          3.8421   -8.1889    6.1746 O.3       1 <0>        -0.3172
      4 C3          3.1858   -7.6671    5.1062 C.ar      1 <0>         0.0805
      5 C4          3.4105   -8.1812    3.8369 C.ar      1 <0>        -0.1694
      6 C5          2.7474   -7.6551    2.7491 C.ar      1 <0>        -0.1089
      7 C6          1.8462   -6.6017    2.9218 C.ar      1 <0>        -0.1193
      8 C7          1.6184   -6.0832    4.1991 C.ar      1 <0>        -0.1141
      9 C8          2.2825   -6.6190    5.2876 C.ar      1 <0>         0.1917
     10 N1          2.0529   -6.1064    6.5699 N.pl3     1 <0>        -0.8715
     11 C9          1.1365   -6.0372    1.7571 C.2       1 <0>         0.5676
     12 O2          0.9497   -4.8382    1.6817 O.2       1 <0>        -0.5331
     13 N2          0.6955   -6.8509    0.7774 N.am      1 <0>        -0.6100
     14 C10         0.1046   -6.3029   -0.4538 C.3       1 <0>         0.0825
     15 C11        -1.2356   -7.0050   -0.7009 C.3       1 <0>         0.0719
     16 H1         -1.9457   -6.7174    0.0744 H         1 <0>         0.0675
     17 O3         -1.0386   -8.4206   -0.6667 O.3       1 <0>        -0.3671
     18 C12        -0.5822   -8.9177    0.5936 C.3       1 <0>         0.0997
     19 C13         0.7965   -8.3135    0.9046 C.3       1 <0>         0.0759
     20 C14        -0.4677  -10.4421    0.5305 C.3       1 <0>        -0.1381
     21 C15        -1.5757   -8.5237    1.6885 C.3       1 <0>        -0.1772
     22 C16        -1.7814   -6.5969   -2.0707 C.3       1 <0>        -0.1440
     23 H2          4.6138  -10.0537    7.9150 H         1 <0>         0.0664
     24 H3          6.0857  -10.5302    7.0349 H         1 <0>         0.0799
     25 H4          5.9300   -8.8787    7.6802 H         1 <0>         0.0664
     26 H5          5.5300   -8.9195    5.2334 H         1 <0>         0.0629
     27 H6          4.2138  -10.0945    5.4682 H         1 <0>         0.0629
     28 H7          4.1070   -8.9953    3.7010 H         1 <0>         0.1348
     29 H8          2.9249   -8.0572    1.7626 H         1 <0>         0.1304
     30 H9          0.9225   -5.2689    4.3366 H         1 <0>         0.1363
     31 H10         2.5218   -6.4797    7.3326 H         1 <0>         0.4049
     32 H11         1.4250   -5.3778    6.6957 H         1 <0>         0.4006
     33 H12        -0.0583   -5.2315   -0.3375 H         1 <0>         0.1026
     34 H13         0.7743   -6.4838   -1.2945 H         1 <0>         0.0775
     35 H14         1.5347   -8.6933    0.1983 H         1 <0>         0.0792
     36 H15         1.0920   -8.5740    1.9209 H         1 <0>         0.1072
     37 H16         0.2420  -10.7213   -0.2483 H         1 <0>         0.0670
     38 H17        -0.1197  -10.8204    1.4917 H         1 <0>         0.0744
     39 H18        -1.4438  -10.8707    0.3032 H         1 <0>         0.0696
     40 H19        -2.5532   -8.9499    1.4627 H         1 <0>         0.0674
     41 H20        -1.2271   -8.9031    2.6491 H         1 <0>         0.0685
     42 H21        -1.6546   -7.4375    1.7338 H         1 <0>         0.0607
     43 H22        -1.0716   -6.8865   -2.8456 H         1 <0>         0.0664
     44 H23        -2.7342   -7.0965   -2.2457 H         1 <0>         0.0684
     45 H24        -1.9272   -5.5170   -2.0967 H         1 <0>         0.0749
@<TRIPOS>BOND
     1    1    2 1
     2    1   23 1
     3    1   24 1
     4    1   25 1
     5    2    3 1
     6    2   26 1
     7    2   27 1
     8    3    4 1
     9    4    9 ar
    10    4    5 ar
    11    5    6 ar
    12    5   28 1
    13    6    7 ar
    14    6   29 1
    15    7    8 ar
    16    7   11 1
    17    8    9 ar
    18    8   30 1
    19    9   10 1
    20   10   31 1
    21   10   32 1
    22   11   12 2
    23   11   13 am
    24   13   19 1
    25   13   14 1
    26   14   15 1
    27   14   33 1
    28   14   34 1
    29   15   16 1
    30   15   17 1
    31   15   22 1
    32   17   18 1
    33   18   19 1
    34   18   20 1
    35   18   21 1
    36   19   35 1
    37   19   36 1
    38   20   37 1
    39   20   38 1
    40   20   39 1
    41   21   40 1
    42   21   41 1
    43   21   42 1
    44   22   43 1
    45   22   44 1
    46   22   45 1
@<TRIPOS>MOLECULE
ZINC52852386
   39    41     0     0     0
SMALL
USER_CHARGES

@<TRIPOS>ATOM
      1 C1         -0.0187    1.5258    0.0104 C.3       1 <0>        -0.1533
      2 C2          0.0021   -0.0041    0.0020 C.3       1 <0>        -0.1201
      3 C3          0.7182   -0.4975   -1.2568 C.3       1 <0>        -0.0482
      4 C4          0.7386   -2.0043   -1.2651 C.2       1 <0>         0.2954
      5 N1          1.6747   -2.7399   -0.7397 N.2       1 <0>        -0.4946
      6 C5          1.3817   -4.0530   -0.9240 C.ar      1 <0>         0.1004
      7 C6          2.0268   -5.2413   -0.5707 C.ar      1 <0>        -0.1590
      8 C7          1.4603   -6.4552   -0.9101 C.ar      1 <0>         0.2112
      9 C8          0.2512   -6.4997   -1.6020 C.ar      1 <0>        -0.1596
     10 C9         -0.3929   -5.3344   -1.9551 C.ar      1 <0>        -0.0738
     11 C10         0.1633   -4.1070   -1.6209 C.ar      1 <0>        -0.0018
     12 N2         -0.2213   -2.7933   -1.8175 N.pl3     1 <0>        -0.4802
     13 C11        -1.4357   -2.3364   -2.4977 C.3       1 <0>         0.1445
     14 H1         -1.4556   -1.2466   -2.5094 H         1 <0>         0.1253
     15 C12        -1.4403   -2.8626   -3.9426 C.3       1 <0>        -0.1470
     16 C13        -2.8603   -2.6366   -4.5359 C.3       1 <0>        -0.5705
     17 S1         -3.9065   -3.0935   -3.0897 S.o2      1 <0>         2.3747
     18 O1         -4.9398   -2.1291   -2.9436 O.2       1 <0>        -0.9263
     19 O2         -4.2434   -4.4710   -3.1797 O.2       1 <0>        -0.9232
     20 C14        -2.6782   -2.8649   -1.7411 C.3       1 <0>        -0.6069
     21 N3          2.1044   -7.6464   -0.5574 N.pl3     1 <0>        -0.8783
     22 H2          1.0039    1.9031    0.0027 H         1 <0>         0.0599
     23 H3         -0.5459    1.8868   -0.8726 H         1 <0>         0.0563
     24 H4         -0.5289    1.8773    0.9072 H         1 <0>         0.0603
     25 H5          0.5293   -0.3651    0.8851 H         1 <0>         0.0738
     26 H6         -1.0205   -0.3814    0.0098 H         1 <0>         0.0616
     27 H7          0.1910   -0.1364   -2.1398 H         1 <0>         0.0837
     28 H8          1.7408   -0.1202   -1.2645 H         1 <0>         0.1043
     29 H9          2.9642   -5.2110   -0.0351 H         1 <0>         0.1271
     30 H10        -0.1830   -7.4535   -1.8633 H         1 <0>         0.1315
     31 H11        -1.3293   -5.3755   -2.4915 H         1 <0>         0.1233
     32 H12        -0.7033   -2.3196   -4.5344 H         1 <0>         0.1116
     33 H13        -1.2043   -3.9267   -3.9476 H         1 <0>         0.0995
     34 H14        -3.0090   -1.5938   -4.8162 H         1 <0>         0.1465
     35 H15        -3.0445   -3.2999   -5.3810 H         1 <0>         0.1505
     36 H16        -2.4586   -3.8144   -1.2531 H         1 <0>         0.1498
     37 H17        -3.0318   -2.1300   -1.0179 H         1 <0>         0.1528
     38 H18         2.9461   -7.6186   -0.0761 H         1 <0>         0.3994
     39 H19         1.7091   -8.5000   -0.7943 H         1 <0>         0.3993
@<TRIPOS>BOND
     1    1    2 1
     2    1   22 1
     3    1   23 1
     4    1   24 1
     5    2    3 1
     6    2   25 1
     7    2   26 1
     8    3    4 1
     9    3   27 1
    10    3   28 1
    11    4   12 1
    12    4    5 2
    13    5    6 1
    14    6   11 ar
    15    6    7 ar
    16    7    8 ar
    17    7   29 1
    18    8    9 ar
    19    8   21 1
    20    9   10 ar
    21    9   30 1
    22   10   11 ar
    23   10   31 1
    24   11   12 1
    25   12   13 1
    26   13   14 1
    27   13   20 1
    28   13   15 1
    29   15   16 1
    30   15   32 1
    31   15   33 1
    32   16   17 1
    33   16   34 1
    34   16   35 1
    35   17   18 2
    36   17   19 2
    37   17   20 1
    38   20   36 1
    39   20   37 1
    40   21   38 1
    41   21   39 1
@<TRIPOS>MOLECULE
ZINC42316818
   34    35     0     0     0
SMALL
USER_CHARGES

@<TRIPOS>ATOM
      1 C1         -0.0140    1.5024    0.0314 C.3       1 <0>        -0.1316
      2 C2          0.0042   -0.0043    0.0121 C.ar      1 <0>         0.0663
      3 C3         -0.1008   -0.6990   -1.1789 C.ar      1 <0>        -0.1629
      4 C4         -0.0806   -2.0828   -1.1657 C.ar      1 <0>         0.1449
      5 N1          0.0367   -2.7546   -0.0372 N.ar      1 <0>        -0.5054
      6 C5          0.1406   -2.1417    1.1320 C.ar      1 <0>         0.4560
      7 C6          0.1339   -0.7361    1.2002 C.ar      1 <0>        -0.1781
      8 C7          0.2547   -0.0484    2.4942 C.2       1 <0>         0.5252
      9 O1         -0.7403    0.1446    3.1797 O.co2     1 <0>        -0.6510
     10 O2          1.3502    0.3309    2.8855 O.co2     1 <0>        -0.6480
     11 N2          0.2616   -2.8854    2.2896 N.pl3     1 <0>        -0.6908
     12 C8          0.3902   -4.3428    2.2138 C.3       1 <0>         0.1935
     13 C9          0.5060   -4.9099    3.6052 C.2       1 <0>        -0.0039
     14 N3         -0.4521   -5.3135    4.4017 N.2       1 <0>        -0.4830
     15 C10        -0.1908   -5.7904    5.6024 C.2       1 <0>         0.0587
     16 C11         1.1143   -5.8431    5.9728 C.2       1 <0>        -0.2087
     17 S1          1.8985   -5.1850    4.5098 S.3       1 <0>         0.1569
     18 C12        -1.2903   -6.2555    6.5220 C.3       1 <0>        -0.0826
     19 C13        -0.1952   -2.8362   -2.4658 C.3       1 <0>        -0.1283
     20 H1          1.0091    1.8782    0.0274 H         1 <0>         0.1004
     21 H2         -0.5398    1.8707   -0.8495 H         1 <0>         0.0843
     22 H3         -0.5246    1.8481    0.9303 H         1 <0>         0.0948
     23 H4         -0.1982   -0.1655   -2.1129 H         1 <0>         0.1724
     24 H5          0.2614   -2.4428    3.1527 H         1 <0>         0.4449
     25 H6         -0.4892   -4.7602    1.7234 H         1 <0>         0.1060
     26 H7          1.2816   -4.5996    1.6415 H         1 <0>         0.1034
     27 H8          1.5560   -6.1903    6.8952 H         1 <0>         0.2042
     28 H9         -1.4824   -7.3149    6.3520 H         1 <0>         0.0776
     29 H10        -0.9866   -6.1029    7.5577 H         1 <0>         0.0794
     30 H11        -2.1972   -5.6851    6.3215 H         1 <0>         0.0780
     31 H12         0.8000   -3.0038   -2.8776 H         1 <0>         0.1036
     32 H13        -0.6813   -3.7955   -2.2882 H         1 <0>         0.0863
     33 H14        -0.7873   -2.2541   -3.1720 H         1 <0>         0.1094
     34 H15         0.0467   -3.7242   -0.0641 H         1 <0>         0.4278
@<TRIPOS>BOND
     1    1    2 1
     2    1   20 1
     3    1   21 1
     4    1   22 1
     5    2    7 ar
     6    2    3 ar
     7    3    4 ar
     8    3   23 1
     9    4    5 ar
    10    4   19 1
    11    5    6 ar
    12    5   34 1
    13    6    7 ar
    14    6   11 1
    15    7    8 1
    16    8    9 2
    17    8   10 1
    18   11   12 1
    19   11   24 1
    20   12   13 1
    21   12   25 1
    22   12   26 1
    23   13   17 1
    24   13   14 2
    25   14   15 1
    26   15   16 2
    27   15   18 1
    28   16   17 1
    29   16   27 1
    30   18   28 1
    31   18   29 1
    32   18   30 1
    33   19   31 1
    34   19   32 1
    35   19   33 1
@<TRIPOS>MOLECULE
ZINC20722552
   34    36     0     0     0
SMALL
USER_CHARGES

@<TRIPOS>ATOM
      1 C1          0.0180   -1.1779   -0.0044 C.1       1 <0>        -0.1483
      2 C2          0.0021   -0.0041    0.0020 C.1       1 <0>        -0.2094
      3 C3         -0.0179    1.4678    0.0101 C.3       1 <0>         0.1752
      4 O1          1.3227    1.9624   -0.0000 O.3       1 <0>        -0.3092
      5 C4          1.4825    3.3120    0.0057 C.ar      1 <0>         0.1321
      6 C5          0.3717    4.1432    0.0266 C.ar      1 <0>        -0.2007
      7 C6          0.5368    5.5145    0.0328 C.ar      1 <0>        -0.0758
      8 C7          1.8077    6.0592    0.0183 C.ar      1 <0>        -0.1303
      9 C8          2.9161    5.2332   -0.0030 C.ar      1 <0>        -0.0311
     10 C9          2.7564    3.8608   -0.0035 C.ar      1 <0>        -0.1308
     11 C10         4.2997    5.8302   -0.0192 C.3       1 <0>         0.0501
     12 H1          5.0294    5.0206   -0.0349 H         1 <0>         0.1034
     13 C11         4.4575    6.6435   -1.2652 C.2       1 <0>        -0.2459
     14 C12         3.7257    6.3962   -2.3909 C.2       1 <0>         0.1069
     15 N1          4.0884    7.2859   -3.3307 N.pl3     1 <0>        -0.4422
     16 H2          3.7305    7.3446   -4.2303 H         1 <0>         0.4507
     17 N2          5.0706    8.1102   -2.7819 N.2       1 <0>        -0.3201
     18 C13         5.2983    7.7242   -1.5304 C.2       1 <0>         0.3209
     19 N3          6.2340    8.3692   -0.7439 N.am      1 <0>        -0.6117
     20 C14         6.6289    8.2435    0.4878 C.2       1 <0>         0.5395
     21 O2          7.4234    9.0839    0.8532 O.2       1 <0>        -0.5338
     22 C15         6.2694    7.2466    1.5156 C.3       1 <0>        -0.1252
     23 S1          4.5324    6.7869    1.4812 S.3       1 <0>        -0.1703
     24 H3          0.0322   -2.2278   -0.0102 H         1 <0>         0.2259
     25 H4         -0.5451    1.8289   -0.8729 H         1 <0>         0.0882
     26 H5         -0.5281    1.8193    0.9069 H         1 <0>         0.0888
     27 H6         -0.6211    3.7182    0.0375 H         1 <0>         0.1313
     28 H7         -0.3276    6.1619    0.0487 H         1 <0>         0.1301
     29 H8          1.9347    7.1317    0.0232 H         1 <0>         0.1297
     30 H9          3.6226    3.2159   -0.0156 H         1 <0>         0.1350
     31 H10         2.9839    5.6197   -2.5064 H         1 <0>         0.1852
     32 H11         6.7016    9.0744   -1.2182 H         1 <0>         0.4126
     33 H12         6.8725    6.3519    1.3610 H         1 <0>         0.1236
     34 H13         6.5033    7.6573    2.4978 H         1 <0>         0.1555
@<TRIPOS>BOND
     1    1    2 3
     2    1   24 1
     3    2    3 1
     4    3    4 1
     5    3   25 1
     6    3   26 1
     7    4    5 1
     8    5   10 ar
     9    5    6 ar
    10    6    7 ar
    11    6   27 1
    12    7    8 ar
    13    7   28 1
    14    8    9 ar
    15    8   29 1
    16    9   10 ar
    17    9   11 1
    18   10   30 1
    19   11   12 1
    20   11   23 1
    21   11   13 1
    22   13   18 1
    23   13   14 2
    24   14   15 1
    25   14   31 1
    26   15   16 1
    27   15   17 1
    28   17   18 2
    29   18   19 1
    30   19   20 am
    31   19   32 1
    32   20   21 2
    33   20   22 1
    34   22   23 1
    35   22   33 1
    36   22   34 1
@<TRIPOS>MOLECULE
ZINC06681579
   34    35     0     0     0
SMALL
USER_CHARGES
4-(cyclopentylsulfamoyl)-N-methyl-thiophene-2-carboxamide
@<TRIPOS>ATOM
      1 C1          0.2792   -2.1500    7.4227 C.3       1 <0>         0.0869
      2 N1          0.8449   -1.8437    6.1065 N.am      1 <0>        -0.7290
      3 C2          0.0369   -1.4592    5.0986 C.2       1 <0>         0.6027
      4 O1         -1.1626   -1.3665    5.2819 O.2       1 <0>        -0.5160
      5 C3          0.6030   -1.1527    3.7817 C.2       1 <0>        -0.2451
      6 C4         -0.0444   -0.7455    2.6257 C.2       1 <0>        -0.0034
      7 C5          0.7350   -0.5235    1.5178 C.2       1 <0>        -0.7218
      8 C6          2.0777   -0.7144    1.6022 C.2       1 <0>        -0.0796
      9 S1          2.3049   -1.2056    3.2492 S.3       1 <0>         0.2088
     10 S2          0.0021   -0.0041    0.0020 S.o2      1 <0>         2.7053
     11 O2         -1.3534   -0.4288    0.0398 O.2       1 <0>        -0.9511
     12 O3          0.8935   -0.3924   -1.0342 O.2       1 <0>        -0.9520
     13 N2         -0.0204    1.6518    0.0111 N.pl3     1 <0>        -1.1075
     14 C7          1.2382    2.4014    0.0031 C.3       1 <0>         0.1419
     15 C8          1.6049    2.8339    1.4378 C.3       1 <0>        -0.1461
     16 C9          2.2261    4.2419    1.2631 C.3       1 <0>        -0.1240
     17 C10         1.3516    4.8652    0.1470 C.3       1 <0>        -0.1260
     18 C11         1.0772    3.6930   -0.8176 C.3       1 <0>        -0.1286
     19 H1          1.0794   -2.4404    8.1035 H         1 <0>         0.0813
     20 H2         -0.2287   -1.2684    7.8140 H         1 <0>         0.0655
     21 H3         -0.4341   -2.9690    7.3299 H         1 <0>         0.0657
     22 H4          1.8010   -1.9176    5.9604 H         1 <0>         0.4012
     23 H5         -1.1153   -0.6085    2.5980 H         1 <0>         0.1634
     24 H6          2.8229   -0.5889    0.8307 H         1 <0>         0.2102
     25 H7         -0.8669    2.1253    0.0177 H         1 <0>         0.4213
     26 H8          2.0350    1.7883   -0.4180 H         1 <0>         0.0961
     27 H9          0.7118    2.8855    2.0607 H         1 <0>         0.0782
     28 H10         2.3327    2.1466    1.8692 H         1 <0>         0.0679
     29 H11         3.2657    4.1685    0.9438 H         1 <0>         0.0710
     30 H12         2.1438    4.8175    2.1851 H         1 <0>         0.0703
     31 H13         1.8947    5.6604   -0.3638 H         1 <0>         0.0701
     32 H14         0.4177    5.2449    0.5613 H         1 <0>         0.0682
     33 H15         1.7965    3.7071   -1.6365 H         1 <0>         0.0776
     34 H16         0.0629    3.7616   -1.2107 H         1 <0>         0.0765
@<TRIPOS>BOND
     1    1    2 1
     2    1   19 1
     3    1   20 1
     4    1   21 1
     5    2    3 am
     6    2   22 1
     7    3    4 2
     8    3    5 1
     9    5    9 1
    10    5    6 2
    11    6    7 1
    12    6   23 1
    13    7    8 2
    14    7   10 1
    15    8    9 1
    16    8   24 1
    17   10   11 2
    18   10   12 2
    19   10   13 1
    20   13   14 1
    21   13   25 1
    22   14   18 1
    23   14   15 1
    24   14   26 1
    25   15   16 1
    26   15   27 1
    27   15   28 1
    28   16   17 1
    29   16   29 1
    30   16   30 1
    31   17   18 1
    32   17   31 1
    33   17   32 1
    34   18   33 1
    35   18   34 1
@<TRIPOS>MOLECULE
ZINC35765084
   39    40     0     0     0
SMALL
USER_CHARGES

@<TRIPOS>ATOM
      1 C1          0.7653    1.0016    0.5390 C.3       1 <0>        -0.1792
      2 C2          0.2670   -0.4447    0.5106 C.3       1 <0>         0.1175
      3 N1         -1.1753   -0.4594    0.2541 N.pl3     1 <0>        -0.9893
      4 C3         -1.6747   -0.4337   -1.1229 C.3       1 <0>         0.1334
      5 C4         -0.9749   -1.5249   -1.9592 C.3       1 <0>        -0.1371
      6 C5         -0.7849   -0.8731   -3.3514 C.3       1 <0>        -0.1226
      7 C6         -0.4358    0.5938   -2.9973 C.3       1 <0>        -0.1219
      8 C7         -1.3319    0.9134   -1.7829 C.3       1 <0>        -0.1452
      9 S1         -2.2411   -0.5051    1.5207 S.o2      1 <0>         2.6820
     10 O1         -1.6256    0.1927    2.5947 O.2       1 <0>        -0.9495
     11 O2         -3.5091   -0.1335    0.9980 O.2       1 <0>        -0.9501
     12 C8         -2.3780   -2.1875    2.0259 C.ar      1 <0>        -0.7010
     13 C9         -1.8857   -2.5817    3.2536 C.ar      1 <0>         0.0291
     14 C10        -1.9905   -3.9001    3.6547 C.ar      1 <0>        -0.1924
     15 C11        -2.5923   -4.8387    2.8241 C.ar      1 <0>         0.2692
     16 C12        -3.0901   -4.4534    1.5891 C.ar      1 <0>        -0.1678
     17 C13        -2.9898   -3.1209    1.1867 C.ar      1 <0>         0.1263
     18 C14        -3.5068   -2.7135   -0.0850 C.1       1 <0>         0.2158
     19 N2         -3.9170   -2.3904   -1.0939 N.1       1 <0>        -0.3549
     20 N3         -2.6949   -6.1703    3.2340 N.pl3     1 <0>        -0.8609
     21 H1          1.7839    1.0275    0.9262 H         1 <0>         0.0679
     22 H2          0.7500    1.4111   -0.4710 H         1 <0>         0.0662
     23 H3          0.1169    1.5967    1.1822 H         1 <0>         0.0658
     24 H4          0.7822   -0.9910   -0.2795 H         1 <0>         0.0861
     25 H5          0.4701   -0.9179    1.4713 H         1 <0>         0.0800
     26 H6         -2.7534   -0.5900   -1.1316 H         1 <0>         0.1073
     27 H7         -0.0093   -1.7799   -1.5224 H         1 <0>         0.0798
     28 H8         -1.6059   -2.4104   -2.0355 H         1 <0>         0.0666
     29 H9          0.0357   -1.3462   -3.8907 H         1 <0>         0.0692
     30 H10        -1.7075   -0.9217   -3.9298 H         1 <0>         0.0699
     31 H11         0.6169    0.6810   -2.7281 H         1 <0>         0.0670
     32 H12        -0.6733    1.2544   -3.8310 H         1 <0>         0.0675
     33 H13        -2.2441    1.4105   -2.1126 H         1 <0>         0.0718
     34 H14        -0.7939    1.5480   -1.0787 H         1 <0>         0.0849
     35 H15        -1.4165   -1.8573    3.9029 H         1 <0>         0.1536
     36 H16        -1.6033   -4.2023    4.6165 H         1 <0>         0.1402
     37 H17        -3.5576   -5.1810    0.9423 H         1 <0>         0.1410
     38 H18        -2.3462   -6.4400    4.0981 H         1 <0>         0.4077
     39 H19        -3.1147   -6.8252    2.6546 H         1 <0>         0.4062
@<TRIPOS>BOND
     1    1    2 1
     2    1   21 1
     3    1   22 1
     4    1   23 1
     5    2    3 1
     6    2   24 1
     7    2   25 1
     8    3    4 1
     9    3    9 1
    10    4    8 1
    11    4    5 1
    12    4   26 1
    13    5    6 1
    14    5   27 1
    15    5   28 1
    16    6    7 1
    17    6   29 1
    18    6   30 1
    19    7    8 1
    20    7   31 1
    21    7   32 1
    22    8   33 1
    23    8   34 1
    24    9   10 2
    25    9   11 2
    26    9   12 1
    27   12   17 ar
    28   12   13 ar
    29   13   14 ar
    30   13   35 1
    31   14   15 ar
    32   14   36 1
    33   15   16 ar
    34   15   20 1
    35   16   17 ar
    36   16   37 1
    37   17   18 1
    38   18   19 3
    39   20   38 1
    40   20   39 1
@<TRIPOS>MOLECULE
ZINC37859184
   36    37     0     0     0
SMALL
USER_CHARGES

@<TRIPOS>ATOM
      1 C1         -0.0184    1.5028    0.0103 C.3       1 <0>        -0.1296
      2 C2          0.0021   -0.0041    0.0020 C.2       1 <0>         0.2682
      3 C3         -1.1286   -0.7158    0.0039 C.2       1 <0>        -0.8167
      4 S1         -0.5085   -2.3876   -0.0083 S.3       1 <0>         0.1275
      5 C4          1.1381   -2.0479   -0.0148 C.2       1 <0>         0.4601
      6 O1          2.0718   -2.8304   -0.0240 O.2       1 <0>        -0.4487
      7 N1          1.1756   -0.6990   -0.0134 N.am      1 <0>        -0.6533
      8 H1          2.0248   -0.2304   -0.0197 H         1 <0>         0.4176
      9 S2         -2.7972   -0.1500    0.0162 S.o2      1 <0>         2.7347
     10 O2         -3.4920   -0.9551    0.9588 O.2       1 <0>        -0.9385
     11 O3         -2.7450    1.2665    0.1160 O.2       1 <0>        -0.9511
     12 N2         -3.4427   -0.4964   -1.4690 N.pl3     1 <0>        -1.1026
     13 C5         -3.6061   -1.8902   -1.8896 C.3       1 <0>         0.1589
     14 H2         -2.8898   -2.5166   -1.3580 H         1 <0>         0.0838
     15 C6         -5.0277   -2.3563   -1.5688 C.3       1 <0>        -0.1401
     16 C7         -6.0332   -1.4771   -2.3150 C.3       1 <0>        -0.1191
     17 C8         -5.7880   -1.5874   -3.8212 C.3       1 <0>        -0.1229
     18 C9         -4.3665   -1.1213   -4.1419 C.3       1 <0>        -0.1150
     19 C10        -3.3609   -2.0005   -3.3958 C.3       1 <0>        -0.0951
     20 H3         -3.4826   -3.0375   -3.7087 H         1 <0>         0.0868
     21 C11        -1.9394   -1.5344   -3.7165 C.3       1 <0>        -0.1522
     22 H4          1.0042    1.8801    0.0026 H         1 <0>         0.0849
     23 H5         -0.5455    1.8639   -0.8728 H         1 <0>         0.1136
     24 H6         -0.5286    1.8543    0.9071 H         1 <0>         0.1166
     25 H7         -3.7125    0.2235   -2.0604 H         1 <0>         0.4202
     26 H8         -5.1493   -3.3933   -1.8818 H         1 <0>         0.0767
     27 H9         -5.2024   -2.2777   -0.4958 H         1 <0>         0.0806
     28 H10        -7.0460   -1.8092   -2.0865 H         1 <0>         0.0649
     29 H11        -5.9116   -0.4401   -2.0020 H         1 <0>         0.0633
     30 H12        -5.9097   -2.6244   -4.1341 H         1 <0>         0.0640
     31 H13        -6.5044   -0.9610   -4.3527 H         1 <0>         0.0630
     32 H14        -4.1918   -1.1998   -5.2150 H         1 <0>         0.0665
     33 H15        -4.2449   -0.0843   -3.8290 H         1 <0>         0.0621
     34 H16        -1.2230   -2.1607   -3.1850 H         1 <0>         0.0566
     35 H17        -1.7647   -1.6129   -4.7896 H         1 <0>         0.0584
     36 H18        -1.8178   -0.4974   -3.4036 H         1 <0>         0.0559
@<TRIPOS>BOND
     1    1    2 1
     2    1   22 1
     3    1   23 1
     4    1   24 1
     5    2    7 1
     6    2    3 2
     7    3    4 1
     8    3    9 1
     9    4    5 1
    10    5    6 2
    11    5    7 am
    12    7    8 1
    13    9   10 2
    14    9   11 2
    15    9   12 1
    16   12   13 1
    17   12   25 1
    18   13   14 1
    19   13   19 1
    20   13   15 1
    21   15   16 1
    22   15   26 1
    23   15   27 1
    24   16   17 1
    25   16   28 1
    26   16   29 1
    27   17   18 1
    28   17   30 1
    29   17   31 1
    30   18   19 1
    31   18   32 1
    32   18   33 1
    33   19   20 1
    34   19   21 1
    35   21   34 1
    36   21   35 1
    37   21   36 1
@<TRIPOS>MOLECULE
ZINC48389516
   36    37     0     0     0
SMALL
USER_CHARGES

@<TRIPOS>ATOM
      1 C1         -0.0187    1.5258    0.0104 C.3       1 <0>        -0.1502
      2 C2          0.0021   -0.0041    0.0020 C.3       1 <0>        -0.0468
      3 C3         -1.4117   -0.5257    0.0127 C.2       1 <0>        -0.1730
      4 C4         -2.2016   -0.8134   -1.0512 C.2       1 <0>        -0.1916
      5 C5         -3.4740   -1.2836   -0.8308 C.2       1 <0>        -0.0467
      6 C6         -3.8423   -1.4240    0.4985 C.2       1 <0>        -0.2668
      7 S1         -2.3671   -0.8906    1.3455 S.3       1 <0>         0.2122
      8 C7         -5.1117   -1.8942    1.0609 C.2       1 <0>         0.6118
      9 O1         -6.0191   -2.2264    0.3210 O.2       1 <0>        -0.5257
     10 N1         -5.2740   -1.9587    2.3973 N.am      1 <0>        -0.5170
     11 N2         -6.4873   -2.4081    2.9347 N.am      1 <0>        -0.5130
     12 C8         -6.6496   -2.4725    4.2711 C.2       1 <0>         0.5982
     13 O2         -5.7428   -2.1405    5.0105 O.2       1 <0>        -0.5383
     14 C9         -7.9258   -2.9452    4.8365 C.2       1 <0>        -0.2449
     15 C10        -9.1159   -3.3887    4.0958 C.2       1 <0>        -0.1898
     16 C11       -10.0243   -3.7246    5.0244 C.2       1 <0>        -0.0028
     17 O3         -9.4998   -3.5277    6.2441 O.3       1 <0>        -0.1701
     18 C12        -8.2477   -3.0685    6.1564 C.2       1 <0>         0.0960
     19 C13        -7.3460   -2.7394    7.3181 C.3       1 <0>        -0.0870
     20 C14       -11.4122   -4.2399    4.7429 C.3       1 <0>        -0.0775
     21 H1          1.0039    1.9031    0.0027 H         1 <0>         0.0679
     22 H2         -0.5459    1.8868   -0.8726 H         1 <0>         0.0607
     23 H3         -0.5289    1.8773    0.9072 H         1 <0>         0.0592
     24 H4          0.5123   -0.3556   -0.8948 H         1 <0>         0.0901
     25 H5          0.5293   -0.3651    0.8851 H         1 <0>         0.0830
     26 H6         -1.8359   -0.6747   -2.0579 H         1 <0>         0.1411
     27 H7         -4.1445   -1.5278   -1.6415 H         1 <0>         0.1521
     28 H8         -4.5508   -1.6939    2.9870 H         1 <0>         0.4320
     29 H9         -7.2105   -2.6728    2.3450 H         1 <0>         0.4345
     30 H10        -9.2349   -3.4343    3.0234 H         1 <0>         0.1593
     31 H11        -7.4846   -1.6960    7.6014 H         1 <0>         0.0926
     32 H12        -7.5936   -3.3814    8.1635 H         1 <0>         0.0820
     33 H13        -6.3076   -2.9027    7.0298 H         1 <0>         0.1102
     34 H14       -11.3893   -5.3276    4.6762 H         1 <0>         0.0854
     35 H15       -12.0818   -3.9393    5.5488 H         1 <0>         0.0800
     36 H16       -11.7694   -3.8255    3.8002 H         1 <0>         0.0927
@<TRIPOS>BOND
     1    1    2 1
     2    1   21 1
     3    1   22 1
     4    1   23 1
     5    2    3 1
     6    2   24 1
     7    2   25 1
     8    3    7 1
     9    3    4 2
    10    4    5 1
    11    4   26 1
    12    5    6 2
    13    5   27 1
    14    6    7 1
    15    6    8 1
    16    8    9 2
    17    8   10 am
    18   10   11 1
    19   10   28 1
    20   11   12 am
    21   11   29 1
    22   12   13 2
    23   12   14 1
    24   14   18 2
    25   14   15 1
    26   15   16 2
    27   15   30 1
    28   16   17 1
    29   16   20 1
    30   17   18 1
    31   18   19 1
    32   19   31 1
    33   19   32 1
    34   19   33 1
    35   20   34 1
    36   20   35 1
    37   20   36 1
@<TRIPOS>MOLECULE
ZINC65487375
   39    40     0     0     0
SMALL
USER_CHARGES

@<TRIPOS>ATOM
      1 C1         -0.0184    1.5028    0.0103 C.3       1 <0>        -0.0758
      2 C2          0.0021   -0.0041    0.0020 C.2       1 <0>        -0.0089
      3 C3         -1.0783   -0.8055    0.0027 C.2       1 <0>        -0.2051
      4 C4         -0.6011   -2.1363   -0.0068 C.2       1 <0>        -0.1876
      5 C5          0.7423   -2.0686   -0.0126 C.2       1 <0>         0.0023
      6 O1          1.1020   -0.7746   -0.0131 O.3       1 <0>        -0.1708
      7 C6          1.6840   -3.2450   -0.0226 C.3       1 <0>        -0.0796
      8 C7         -1.4371   -3.3901   -0.0093 C.3       1 <0>         0.2358
      9 C8         -1.6088   -3.8915    1.4260 C.3       1 <0>        -0.1593
     10 N1         -2.7522   -3.0990   -0.5855 N.am      1 <0>        -0.7354
     11 C9         -3.4725   -4.0863   -1.1538 C.2       1 <0>         0.7112
     12 O2         -3.0308   -5.2186   -1.1882 O.2       1 <0>        -0.5846
     13 N2         -4.6823   -3.8185   -1.6839 N.am      1 <0>        -0.7426
     14 C10        -5.4652   -4.8917   -2.3015 C.3       1 <0>         0.2339
     15 C11        -6.7680   -4.3328   -2.8128 C.2       1 <0>         0.0251
     16 N3         -7.0321   -3.8365   -3.9956 N.2       1 <0>        -0.4954
     17 C12        -8.2323   -3.3820   -4.2964 C.2       1 <0>         0.0595
     18 C13        -9.1782   -3.4526   -3.3252 C.2       1 <0>        -0.2244
     19 S1         -8.2385   -4.2018   -2.0045 S.3       1 <0>         0.1281
     20 C14        -8.5401   -2.8096   -5.6561 C.3       1 <0>        -0.0818
     21 H1          1.0042    1.8801    0.0026 H         1 <0>         0.0765
     22 H2         -0.5455    1.8639   -0.8728 H         1 <0>         0.0857
     23 H3         -0.5286    1.8543    0.9071 H         1 <0>         0.0862
     24 H4         -2.1119   -0.4924    0.0097 H         1 <0>         0.1447
     25 H5          1.9064   -3.5237   -1.0527 H         1 <0>         0.0842
     26 H6          2.6082   -2.9750    0.4883 H         1 <0>         0.0791
     27 H7          1.2186   -4.0873    0.4893 H         1 <0>         0.0909
     28 H8         -0.9410   -4.1564   -0.6049 H         1 <0>         0.0969
     29 H9         -2.2135   -4.7984    1.4242 H         1 <0>         0.0668
     30 H10        -0.6304   -4.1080    1.8547 H         1 <0>         0.0670
     31 H11        -2.1050   -3.1252    2.0216 H         1 <0>         0.0581
     32 H12        -3.1046   -2.1957   -0.5580 H         1 <0>         0.3961
     33 H13        -5.0347   -2.9152   -1.6564 H         1 <0>         0.3985
     34 H14        -4.9031   -5.3202   -3.1314 H         1 <0>         0.1010
     35 H15        -5.6675   -5.6661   -1.5615 H         1 <0>         0.0963
     36 H16       -10.2131   -3.1446   -3.3466 H         1 <0>         0.1988
     37 H17        -8.8853   -3.6057   -6.3157 H         1 <0>         0.0767
     38 H18        -9.3179   -2.0516   -5.5636 H         1 <0>         0.0762
     39 H19        -7.6399   -2.3576   -6.0724 H         1 <0>         0.0757
@<TRIPOS>BOND
     1    1    2 1
     2    1   21 1
     3    1   22 1
     4    1   23 1
     5    2    6 1
     6    2    3 2
     7    3    4 1
     8    3   24 1
     9    4    5 2
    10    4    8 1
    11    5    6 1
    12    5    7 1
    13    7   25 1
    14    7   26 1
    15    7   27 1
    16    8    9 1
    17    8   10 1
    18    8   28 1
    19    9   29 1
    20    9   30 1
    21    9   31 1
    22   10   11 am
    23   10   32 1
    24   11   12 2
    25   11   13 am
    26   13   14 1
    27   13   33 1
    28   14   15 1
    29   14   34 1
    30   14   35 1
    31   15   19 1
    32   15   16 2
    33   16   17 1
    34   17   18 2
    35   17   20 1
    36   18   19 1
    37   18   36 1
    38   20   37 1
    39   20   38 1
    40   20   39 1
@<TRIPOS>MOLECULE
ZINC19760471
   43    45     0     0     0
SMALL
USER_CHARGES
4-[(2S)-2-ethyl-4-(methoxymethyl)-2,3-dihydro-1,4-benzoxazin-6-yl]-5-methyl-thiazol-2-amine
@<TRIPOS>ATOM
      1 C1          5.9775    3.5840   -0.7927 C.3       1 <0>        -0.1532
      2 C2          5.9524    2.2973    0.0348 C.3       1 <0>        -0.1164
      3 C3          4.7365    1.4583   -0.3635 C.3       1 <0>         0.0900
      4 H1          4.7165    1.3127   -1.4536 H         1 <0>         0.0838
      5 C4          4.7506    0.1271    0.3991 C.3       1 <0>         0.0241
      6 N1          3.6144   -0.6837   -0.0535 N.pl3     1 <0>        -0.5089
      7 C5          2.4122    0.0309   -0.0251 C.ar      1 <0>         0.0355
      8 C6          1.2186   -0.6803   -0.0152 C.ar      1 <0>        -0.0819
      9 C7          0.0021   -0.0041    0.0020 C.ar      1 <0>        -0.0310
     10 C8         -0.0168    1.3897    0.0097 C.ar      1 <0>        -0.0971
     11 C9          1.1695    2.0934    0.0021 C.ar      1 <0>        -0.1288
     12 C10         2.3848    1.4213   -0.0134 C.ar      1 <0>         0.0976
     13 O1          3.5342    2.1521   -0.0149 O.3       1 <0>        -0.3123
     14 C11        -1.2712   -0.7648    0.0117 C.2       1 <0>         0.1422
     15 C12        -2.3513   -0.2936    0.7020 C.2       1 <0>        -0.2048
     16 S1         -3.5495   -1.5767    0.3638 S.3       1 <0>        -0.0413
     17 C13        -2.4994   -2.6032   -0.6548 C.2       1 <0>         0.3940
     18 N2         -1.3748   -1.9112   -0.6568 N.2       1 <0>        -0.5700
     19 N3         -2.7900   -3.8045   -1.2809 N.pl3     1 <0>        -0.8224
     20 C14        -2.4938    0.9621    1.5231 C.3       1 <0>        -0.0588
     21 C15         3.5084   -1.9236    0.7271 C.3       1 <0>         0.2238
     22 O2          2.8638   -2.9278   -0.0591 O.3       1 <0>        -0.3736
     23 C16         3.7252   -3.5706   -1.0008 C.3       1 <0>         0.0297
     24 H2          6.8517    4.1871   -0.5063 H         1 <0>         0.0596
     25 H3          5.0583    4.1585   -0.6053 H         1 <0>         0.0640
     26 H4          6.0405    3.3314   -1.8615 H         1 <0>         0.0556
     27 H5          6.8716    1.7228   -0.1526 H         1 <0>         0.0852
     28 H6          5.8894    2.5498    1.1036 H         1 <0>         0.0756
     29 H7          5.6931   -0.4022    0.1954 H         1 <0>         0.1011
     30 H8          4.6654    0.3219    1.4784 H         1 <0>         0.0620
     31 H9          1.2347   -1.7602   -0.0206 H         1 <0>         0.1534
     32 H10        -0.9589    1.9177    0.0170 H         1 <0>         0.1362
     33 H11         1.1532    3.1733    0.0084 H         1 <0>         0.1344
     34 H12        -2.0197   -4.3135   -1.8789 H         1 <0>         0.4403
     35 H13        -3.7910   -4.2493   -1.1800 H         1 <0>         0.4432
     36 H14        -3.5120    1.0168    1.9356 H         1 <0>         0.0705
     37 H15        -2.3085    1.8396    0.8862 H         1 <0>         0.0808
     38 H16        -1.7648    0.9463    2.3467 H         1 <0>         0.0793
     39 H17         4.5149   -2.2675    1.0076 H         1 <0>         0.0755
     40 H18         2.9187   -1.7352    1.6364 H         1 <0>         0.0866
     41 H19         3.1558   -4.3256   -1.5627 H         1 <0>         0.0859
     42 H20         4.5534   -4.0588   -0.4663 H         1 <0>         0.0401
     43 H21         4.1295   -2.8222   -1.6982 H         1 <0>         0.0506
@<TRIPOS>BOND
     1    1    2 1
     2    1   24 1
     3    1   25 1
     4    1   26 1
     5    2    3 1
     6    2   27 1
     7    2   28 1
     8    3    4 1
     9    3   13 1
    10    3    5 1
    11    5    6 1
    12    5   29 1
    13    5   30 1
    14    6    7 1
    15    6   21 1
    16    7   12 ar
    17    7    8 ar
    18    8    9 ar
    19    8   31 1
    20    9   10 ar
    21    9   14 1
    22   10   11 ar
    23   10   32 1
    24   11   12 ar
    25   11   33 1
    26   12   13 1
    27   14   18 1
    28   14   15 2
    29   15   16 1
    30   15   20 1
    31   16   17 1
    32   17   18 2
    33   17   19 1
    34   19   34 1
    35   19   35 1
    36   20   36 1
    37   20   37 1
    38   20   38 1
    39   21   22 1
    40   21   39 1
    41   21   40 1
    42   22   23 1
    43   23   41 1
    44   23   42 1
    45   23   43 1
@<TRIPOS>MOLECULE
ZINC39323301
   37    39     0     0     0
SMALL
USER_CHARGES

@<TRIPOS>ATOM
      1 C1         -0.0187    1.5258    0.0104 C.3       1 <0>        -0.1520
      2 C2          0.0021   -0.0041    0.0020 C.3       1 <0>        -0.1178
      3 C3          0.7421   -0.5109    1.2415 C.3       1 <0>        -0.0724
      4 C4          0.7625   -2.0177    1.2333 C.2       1 <0>         0.0053
      5 C5          1.7455   -2.7512    0.7699 C.2       1 <0>        -0.1635
      6 C6          3.1269   -2.4342    0.2656 C.3       1 <0>         0.1113
      7 H1          3.1516   -2.4857   -0.8230 H         1 <0>         0.1188
      8 C7          4.0316   -3.4969    0.8616 C.2       1 <0>        -0.2907
      9 C8          3.5335   -4.5663    1.5166 C.2       1 <0>         0.4567
     10 O1          2.2362   -4.8301    1.7550 O.3       1 <0>        -0.2779
     11 C9          1.2677   -4.1964    0.9153 C.3       1 <0>         0.1680
     12 H2          1.1719   -4.6988   -0.0472 H         1 <0>         0.1678
     13 N1         -0.0231   -4.0238    1.5897 N.2       1 <0>        -0.1318
     14 N2         -0.2319   -2.8098    1.7098 N.2       1 <0>        -0.1091
     15 N3          4.4438   -5.4787    1.9874 N.pl3     1 <0>        -0.8315
     16 C10         5.4506   -3.3615    0.7249 C.1       1 <0>         0.2708
     17 N4          6.5763   -3.2540    0.6165 N.1       1 <0>        -0.4354
     18 C11         3.5500   -1.0649    0.7312 C.ar      1 <0>        -0.1277
     19 C12         3.6342   -0.7903    2.0833 C.ar      1 <0>        -0.0417
     20 C13         4.0225    0.4647    2.5118 C.ar      1 <0>        -0.1621
     21 C14         4.3273    1.4492    1.5866 C.ar      1 <0>         0.1396
     22 C15         4.2434    1.1755    0.2326 C.ar      1 <0>        -0.1903
     23 C16         3.8598   -0.0839   -0.1955 C.ar      1 <0>         0.1442
     24 F1          3.7829   -0.3542   -1.5169 F         1 <0>        -0.1235
     25 F2          4.7061    2.6765    2.0058 F         1 <0>        -0.1262
     26 H3          1.0039    1.9031    0.0027 H         1 <0>         0.0539
     27 H4         -0.5459    1.8868   -0.8726 H         1 <0>         0.0598
     28 H5         -0.5289    1.8773    0.9072 H         1 <0>         0.0587
     29 H6         -1.0205   -0.3814    0.0098 H         1 <0>         0.0699
     30 H7          0.5123   -0.3556   -0.8948 H         1 <0>         0.0626
     31 H8          1.7647   -0.1336    1.2338 H         1 <0>         0.0961
     32 H9          0.2319   -0.1594    2.1383 H         1 <0>         0.0898
     33 H10         5.3923   -5.3366    1.8422 H         1 <0>         0.4247
     34 H11         4.1389   -6.2657    2.4654 H         1 <0>         0.4126
     35 H12         3.3960   -1.5573    2.8055 H         1 <0>         0.1421
     36 H13         4.0879    0.6781    3.5685 H         1 <0>         0.1477
     37 H14         4.4810    1.9426   -0.4896 H         1 <0>         0.1533
@<TRIPOS>BOND
     1    1    2 1
     2    1   26 1
     3    1   27 1
     4    1   28 1
     5    2    3 1
     6    2   29 1
     7    2   30 1
     8    3    4 1
     9    3   31 1
    10    3   32 1
    11    4   14 1
    12    4    5 2
    13    5   11 1
    14    5    6 1
    15    6    7 1
    16    6    8 1
    17    6   18 1
    18    8    9 2
    19    8   16 1
    20    9   10 1
    21    9   15 1
    22   10   11 1
    23   11   12 1
    24   11   13 1
    25   13   14 2
    26   15   33 1
    27   15   34 1
    28   16   17 3
    29   18   23 ar
    30   18   19 ar
    31   19   20 ar
    32   19   35 1
    33   20   21 ar
    34   20   36 1
    35   21   22 ar
    36   21   25 1
    37   22   23 ar
    38   22   37 1
    39   23   24 1
@<TRIPOS>MOLECULE
ZINC45068131
   35    38     0     0     0
SMALL
USER_CHARGES

@<TRIPOS>ATOM
      1 C1         -0.0163    1.3542    0.0095 C.2       1 <0>        -0.1681
      2 C2          1.1740    2.0439    0.0018 C.2       1 <0>        -0.0915
      3 C3          2.3534    1.3199   -0.0133 C.2       1 <0>        -0.1367
      4 S1          1.7510   -0.3608   -0.0166 S.3       1 <0>         0.1118
      5 C4          0.0021   -0.0041    0.0020 C.2       1 <0>        -0.1498
      6 C5          3.7372    1.8064   -0.0239 C.2       1 <0>         0.2134
      7 N1          4.0907    3.0480   -0.0150 N.2       1 <0>        -0.2649
      8 N2          5.4699    3.2461   -0.0286 N.pl3     1 <0>        -0.4312
      9 C6          6.1391    1.9358   -0.0498 C.3       1 <0>         0.1740
     10 H1          6.7373    1.8253   -0.9542 H         1 <0>         0.1231
     11 C7          4.9700    0.9312   -0.0404 C.3       1 <0>        -0.1323
     12 C8          6.9972    1.7589    1.1764 C.ar      1 <0>        -0.0721
     13 C9          6.5534    2.2213    2.4014 C.ar      1 <0>        -0.0924
     14 C10         7.3367    2.0609    3.5291 C.ar      1 <0>        -0.0945
     15 C11         8.5696    1.4362    3.4338 C.ar      1 <0>         0.0403
     16 C12         9.0167    0.9705    2.1998 C.ar      1 <0>         0.0391
     17 C13         8.2238    1.1296    1.0748 C.ar      1 <0>        -0.0642
     18 O1         10.2456    0.4005    2.3678 O.3       1 <0>        -0.3070
     19 C14        10.7239    0.8850    3.6365 C.3       1 <0>         0.2135
     20 O2          9.5183    1.1579    4.3749 O.3       1 <0>        -0.3088
     21 C15         6.0899    4.4427   -0.0236 C.2       1 <0>         0.6042
     22 S2          7.8000    4.5209   -0.0427 S.2       1 <0>        -0.5939
     23 N3          5.3636    5.5779   -0.0035 N.pl3     1 <0>        -0.7893
     24 H2         -0.9556    1.8870    0.0258 H         1 <0>         0.1433
     25 H3          1.1878    3.1238    0.0071 H         1 <0>         0.1424
     26 H4         -0.8298   -0.6928    0.0066 H         1 <0>         0.1946
     27 H5          5.0072    0.3064    0.8520 H         1 <0>         0.1204
     28 H6          4.9901    0.3160   -0.9400 H         1 <0>         0.1211
     29 H7          5.5928    2.7091    2.4774 H         1 <0>         0.1228
     30 H8          6.9875    2.4230    4.4848 H         1 <0>         0.1349
     31 H9          8.5660    0.7654    0.1174 H         1 <0>         0.1388
     32 H10        11.3166    0.1209    4.1395 H         1 <0>         0.1331
     33 H11        11.3062    1.7968    3.5034 H         1 <0>         0.0864
     34 H12         4.3947    5.5336    0.0073 H         1 <0>         0.4063
     35 H13         5.8099    6.4392    0.0001 H         1 <0>         0.4332
@<TRIPOS>BOND
     1    1    5 2
     2    1    2 1
     3    1   24 1
     4    2    3 2
     5    2   25 1
     6    3    4 1
     7    3    6 1
     8    4    5 1
     9    5   26 1
    10    6   11 1
    11    6    7 2
    12    7    8 1
    13    8    9 1
    14    8   21 1
    15    9   10 1
    16    9   11 1
    17    9   12 1
    18   11   27 1
    19   11   28 1
    20   12   17 ar
    21   12   13 ar
    22   13   14 ar
    23   13   29 1
    24   14   15 ar
    25   14   30 1
    26   15   20 1
    27   15   16 ar
    28   16   17 ar
    29   16   18 1
    30   17   31 1
    31   18   19 1
    32   19   20 1
    33   19   32 1
    34   19   33 1
    35   21   22 2
    36   21   23 1
    37   23   34 1
    38   23   35 1
@<TRIPOS>MOLECULE
ZINC58949758
   48    50     0     0     0
SMALL
USER_CHARGES

@<TRIPOS>ATOM
      1 C1         -0.4438    1.5533    0.1322 C.3       1 <0>        -0.1192
      2 C2         -0.1992    0.0683    0.0538 C.ar      1 <0>        -0.0652
      3 C3         -0.3018   -0.5861   -1.1598 C.ar      1 <0>        -0.1206
      4 C4         -0.0775   -1.9480   -1.2317 C.ar      1 <0>        -0.1162
      5 C5          0.2499   -2.6559   -0.0901 C.ar      1 <0>        -0.1265
      6 C6          0.3534   -2.0015    1.1229 C.ar      1 <0>        -0.0999
      7 C7          0.1332   -0.6385    1.1941 C.ar      1 <0>        -0.0715
      8 C8          0.2511    0.0759    2.5158 C.3       1 <0>         0.0921
      9 H1          0.1351    1.1481    2.3581 H         1 <0>         0.1028
     10 C9          1.6105   -0.1974    3.1120 C.2       1 <0>        -0.2593
     11 C10         1.7555   -1.0900    4.1081 C.2       1 <0>         0.1672
     12 C11         3.1128   -1.3574    4.7143 C.3       1 <0>        -0.0720
     13 C12         4.1978   -1.1630    3.6532 C.3       1 <0>        -0.0539
     14 C13         4.1051    0.2712    3.1213 C.3       1 <0>        -0.1606
     15 C14         2.7157    0.5059    2.5941 C.2       1 <0>         0.4046
     16 O1          2.5438    1.3165    1.7058 O.2       1 <0>        -0.4482
     17 C15         3.9785   -2.1519    2.5065 C.3       1 <0>        -0.1563
     18 C16         5.5753   -1.3916    4.2785 C.3       1 <0>        -0.1411
     19 O2          0.6995   -1.7714    4.5937 O.3       1 <0>        -0.2436
     20 C17        -0.5464   -1.3006    4.4248 C.2       1 <0>         0.4177
     21 C18        -0.8277   -0.4104    3.4422 C.2       1 <0>        -0.3561
     22 C19        -2.1410    0.0608    3.2906 C.2       1 <0>         0.5401
     23 O3         -2.4472    1.1593    3.7186 O.2       1 <0>        -0.4990
     24 O4         -3.0653   -0.7039    2.6701 O.3       1 <0>        -0.3497
     25 C20        -4.3820   -0.1614    2.5509 C.3       1 <0>         0.0285
     26 N1         -1.5467   -1.7274    5.2566 N.pl3     1 <0>        -0.8319
     27 H2          0.5066    2.0823    0.0616 H         1 <0>         0.0807
     28 H3         -1.0915    1.8587   -0.6896 H         1 <0>         0.0638
     29 H4         -0.9234    1.7929    1.0812 H         1 <0>         0.0626
     30 H5         -0.5575   -0.0331   -2.0515 H         1 <0>         0.1206
     31 H6         -0.1583   -2.4592   -2.1796 H         1 <0>         0.1199
     32 H7          0.4245   -3.7202   -0.1462 H         1 <0>         0.1188
     33 H8          0.6088   -2.5546    2.0147 H         1 <0>         0.1108
     34 H9          3.2843   -0.6659    5.5393 H         1 <0>         0.1078
     35 H10         3.1486   -2.3812    5.0864 H         1 <0>         0.1026
     36 H11         4.3130    0.9740    3.9281 H         1 <0>         0.1053
     37 H12         4.8287    0.4102    2.3181 H         1 <0>         0.1030
     38 H13         2.9998   -1.9784    2.0592 H         1 <0>         0.0622
     39 H14         4.7527   -2.0111    1.7523 H         1 <0>         0.0652
     40 H15         4.0268   -3.1707    2.8910 H         1 <0>         0.0645
     41 H16         5.6318   -2.4064    4.6721 H         1 <0>         0.0644
     42 H17         6.3461   -1.2525    3.5204 H         1 <0>         0.0668
     43 H18         5.7295   -0.6786    5.0885 H         1 <0>         0.0624
     44 H19        -5.0237   -0.8752    2.0344 H         1 <0>         0.1013
     45 H20        -4.7847    0.0366    3.5443 H         1 <0>         0.0589
     46 H21        -4.3420    0.7682    1.9832 H         1 <0>         0.0610
     47 H22        -1.3385   -2.2994    6.0118 H         1 <0>         0.4114
     48 H23        -2.4635   -1.4577    5.0907 H         1 <0>         0.4237
@<TRIPOS>BOND
     1    1    2 1
     2    1   27 1
     3    1   28 1
     4    1   29 1
     5    2    7 ar
     6    2    3 ar
     7    3    4 ar
     8    3   30 1
     9    4    5 ar
    10    4   31 1
    11    5    6 ar
    12    5   32 1
    13    6    7 ar
    14    6   33 1
    15    7    8 1
    16    8    9 1
    17    8   21 1
    18    8   10 1
    19   10   15 1
    20   10   11 2
    21   11   12 1
    22   11   19 1
    23   12   13 1
    24   12   34 1
    25   12   35 1
    26   13   14 1
    27   13   17 1
    28   13   18 1
    29   14   15 1
    30   14   36 1
    31   14   37 1
    32   15   16 2
    33   17   38 1
    34   17   39 1
    35   17   40 1
    36   18   41 1
    37   18   42 1
    38   18   43 1
    39   19   20 1
    40   20   21 2
    41   20   26 1
    42   21   22 1
    43   22   23 2
    44   22   24 1
    45   24   25 1
    46   25   44 1
    47   25   45 1
    48   25   46 1
    49   26   47 1
    50   26   48 1
@<TRIPOS>MOLECULE
ZINC65587702
   49    53     0     0     0
SMALL
NO_CHARGES

@<TRIPOS>ATOM
      1 C1         -0.0164    1.3579    0.0095 C.2       1 <0>        -0.2709
      2 C2          1.1939    2.0663    0.0018 C.2       1 <0>        -0.1056
      3 C3          2.3701    1.4012   -0.0135 C.2       1 <0>        -0.0359
      4 N1          2.4006    0.0386   -0.0211 N.am      1 <0>        -0.4487
      5 C4          1.2371   -0.6797   -0.0129 C.2       1 <0>         0.2860
      6 C5          0.0021   -0.0041    0.0020 C.2       1 <0>        -0.1361
      7 N2          1.2548   -2.0102   -0.0194 N.2       1 <0>        -0.6284
      8 C6          2.4020   -2.6845   -0.0343 C.2       1 <0>         0.4575
      9 C7          3.6112   -1.9933   -0.0434 C.2       1 <0>        -0.5125
     10 C8          3.5896   -0.6004   -0.0363 C.2       1 <0>         0.5363
     11 O1          4.6332    0.0345   -0.0437 O.2       1 <0>        -0.6051
     12 N3          2.3936   -4.0671   -0.0402 N.pl3     1 <0>        -0.7164
     13 C9          1.1237   -4.7902   -0.0301 C.3       1 <0>         0.1729
     14 C10         0.6279   -4.9832    1.4050 C.3       1 <0>        -0.1212
     15 C11         1.6844   -5.7181    2.2215 C.3       1 <0>        -0.1234
     16 C12         2.0522   -7.0640    1.6128 C.3       1 <0>        -0.1290
     17 C13         2.3414   -6.9772    0.1221 C.3       1 <0>        -0.1277
     18 C14         1.2959   -6.1813   -0.6440 C.3       1 <0>        -0.1157
     19 C15        -0.0538   -6.8904   -0.6565 C.3       1 <0>         0.0055
     20 N4         -0.6502   -6.9956    0.6720 N.4       1 <0>        -0.3438
     21 C16        -0.6987   -5.7289    1.3941 C.3       1 <0>         0.0067
     22 C17        -2.0285   -7.4778    0.5116 C.3       1 <0>        -0.0870
     23 C18        -2.4565   -8.6850    1.3486 C.3       1 <0>        -0.1564
     24 C19        -2.2272   -8.8400   -0.1562 C.3       1 <0>        -0.1569
     25 H1         -0.9568    1.8887    0.0258 H         1 <0>         0.0985
     26 H2          1.1859    3.1462    0.0076 H         1 <0>         0.1121
     27 H3          3.2968    1.9558   -0.0201 H         1 <0>         0.1381
     28 H4         -0.9232   -0.5611    0.0082 H         1 <0>         0.1106
     29 H5          4.5494   -2.5281   -0.0555 H         1 <0>         0.1097
     30 H6          3.2306   -4.5572   -0.0511 H         1 <0>         0.4018
     31 H7          0.3794   -4.2301   -0.5999 H         1 <0>         0.1016
     32 H8          0.4700   -3.9890    1.8513 H         1 <0>         0.1257
     33 H9          2.5819   -5.0989    2.3095 H         1 <0>         0.0904
     34 H10         1.2974   -5.8818    3.2364 H         1 <0>         0.0688
     35 H11         2.9808   -7.4102    2.1113 H         1 <0>         0.0791
     36 H12         1.3041   -7.8158    1.8319 H         1 <0>         0.0453
     37 H13         3.3290   -6.5264   -0.0295 H         1 <0>         0.0870
     38 H14         2.3860   -7.9954   -0.2905 H         1 <0>         0.0733
     39 H15         1.6355   -6.0594   -1.6844 H         1 <0>         0.1191
     40 H16        -0.7392   -6.3440   -1.3148 H         1 <0>         0.1305
     41 H17         0.0748   -7.8967   -1.0718 H         1 <0>         0.1246
     42 H18        -1.0105   -5.9195    2.4291 H         1 <0>         0.1250
     43 H19        -1.4641   -5.0879    0.9369 H         1 <0>         0.1292
     44 H20        -2.7762   -6.7086    0.3181 H         1 <0>         0.1751
     45 H21        -1.7154   -9.1214    2.0182 H         1 <0>         0.1168
     46 H22        -3.4860   -8.7101    1.7060 H         1 <0>         0.1325
     47 H23        -3.1057   -8.9670   -0.7887 H         1 <0>         0.1322
     48 H24        -1.3352   -9.3783   -0.4765 H         1 <0>         0.1169
     49 H25        -0.1704   -7.6942    1.2162 H         1 <0>         0.4120
@<TRIPOS>BOND
     1    1    6 2
     2    1    2 1
     3    1   25 1
     4    2    3 2
     5    2   26 1
     6    3    4 1
     7    3   27 1
     8    4   10 am
     9    4    5 1
    10    5    6 1
    11    5    7 2
    12    6   28 1
    13    7    8 1
    14    8    9 2
    15    8   12 1
    16    9   10 1
    17    9   29 1
    18   10   11 2
    19   12   13 1
    20   12   30 1
    21   13   18 1
    22   13   14 1
    23   13   31 1
    24   14   21 1
    25   14   15 1
    26   14   32 1
    27   15   16 1
    28   15   33 1
    29   15   34 1
    30   16   17 1
    31   16   35 1
    32   16   36 1
    33   17   18 1
    34   17   37 1
    35   17   38 1
    36   18   19 1
    37   18   39 1
    38   19   20 1
    39   19   40 1
    40   19   41 1
    41   20   21 1
    42   20   22 1
    43   20   49 1
    44   21   42 1
    45   21   43 1
    46   22   24 1
    47   22   23 1
    48   22   44 1
    49   23   24 1
    50   23   45 1
    51   23   46 1
    52   24   47 1
    53   24   48 1
@<TRIPOS>MOLECULE
ZINC09250824
   35    37     0     0     0
SMALL
USER_CHARGES
N-[3-(methylcarbamoyl)-4,5,6,7-tetrahydrobenzothiophen-2-yl]thiadiazole-4-carboxamide
@<TRIPOS>ATOM
      1 C1          7.7667   -0.9184   -1.2669 C.3       1 <0>         0.0841
      2 N1          6.7043   -1.9271   -1.2549 N.am      1 <0>        -0.7276
      3 C2          6.2327   -2.3952   -0.0823 C.2       1 <0>         0.5773
      4 O1          6.6895   -1.9800    0.9667 O.2       1 <0>        -0.5269
      5 C3          5.1696   -3.4046   -0.0704 C.2       1 <0>        -0.2163
      6 C4          5.4785   -4.8244   -0.0751 C.2       1 <0>        -0.0654
      7 C5          4.4066   -5.6463   -0.0695 C.2       1 <0>        -0.2030
      8 S1          3.0061   -4.5634   -0.0503 S.3       1 <0>         0.2298
      9 C6          3.8306   -3.0396   -0.0500 C.2       1 <0>         0.0664
     10 N2          3.2856   -1.7657   -0.0384 N.am      1 <0>        -0.6020
     11 C7          1.9475   -1.6054   -0.0247 C.2       1 <0>         0.6056
     12 O2          1.2184   -2.5788   -0.0226 O.2       1 <0>        -0.4829
     13 C8          1.3676   -0.2503   -0.0123 C.2       1 <0>        -0.0335
     14 C9          0.0021   -0.0041    0.0020 C.2       1 <0>        -0.1911
     15 S2         -0.0214    1.7279    0.0115 S.3       1 <0>         0.4432
     16 N3          1.5312    2.0080   -0.0018 N.2       1 <0>        -0.2476
     17 N4          2.0992    0.8574   -0.0134 N.2       1 <0>        -0.2369
     18 C10         4.4166   -7.1438   -0.0787 C.3       1 <0>        -0.0364
     19 C11         5.8237   -7.6157   -0.4732 C.3       1 <0>        -0.1143
     20 C12         6.8535   -6.8452    0.3580 C.3       1 <0>        -0.1196
     21 C13         6.8958   -5.3835   -0.0912 C.3       1 <0>        -0.0609
     22 H1          7.4250   -0.0247   -0.7448 H         1 <0>         0.0620
     23 H2          8.6504   -1.3155   -0.7673 H         1 <0>         0.0623
     24 H3          8.0152   -0.6646   -2.2974 H         1 <0>         0.0778
     25 H4          6.3403   -2.2580   -2.0909 H         1 <0>         0.4036
     26 H5          3.8671   -0.9894   -0.0401 H         1 <0>         0.4294
     27 H6         -0.8219   -0.7023    0.0058 H         1 <0>         0.2230
     28 H7          4.1685   -7.5188    0.9143 H         1 <0>         0.0837
     29 H8          3.6891   -7.5115   -0.8023 H         1 <0>         0.0821
     30 H9          5.9197   -8.6834   -0.2756 H         1 <0>         0.0744
     31 H10         5.9895   -7.4240   -1.5333 H         1 <0>         0.0684
     32 H11         6.5773   -6.8924    1.4113 H         1 <0>         0.0679
     33 H12         7.8377   -7.2934    0.2213 H         1 <0>         0.0707
     34 H13         7.5228   -4.8095    0.5911 H         1 <0>         0.0756
     35 H14         7.3034   -5.3230   -1.1003 H         1 <0>         0.0771
@<TRIPOS>BOND
     1    1    2 1
     2    1   22 1
     3    1   23 1
     4    1   24 1
     5    2    3 am
     6    2   25 1
     7    3    4 2
     8    3    5 1
     9    5    9 2
    10    5    6 1
    11    6   21 1
    12    6    7 2
    13    7    8 1
    14    7   18 1
    15    8    9 1
    16    9   10 1
    17   10   11 am
    18   10   26 1
    19   11   12 2
    20   11   13 1
    21   13   17 1
    22   13   14 2
    23   14   15 1
    24   14   27 1
    25   15   16 1
    26   16   17 2
    27   18   19 1
    28   18   28 1
    29   18   29 1
    30   19   20 1
    31   19   30 1
    32   19   31 1
    33   20   21 1
    34   20   32 1
    35   20   33 1
    36   21   34 1
    37   21   35 1
@<TRIPOS>MOLECULE
ZINC28648081
   39    42     0     0     0
SMALL
USER_CHARGES
N-(2,3-dihydro-1,4-benzodioxin-6-yl)-4-(2-methylthiazol-4-yl)-1H-pyrrole-2-carboxamide
@<TRIPOS>ATOM
      1 C1          6.2905   -9.2993    0.6394 C.3       1 <0>        -0.0716
      2 C2          6.9466   -7.9445    0.5676 C.2       1 <0>         0.1033
      3 N1          6.3844   -6.7634    0.4734 N.2       1 <0>        -0.5043
      4 C3          7.1079   -5.6571    0.4153 C.2       1 <0>         0.1459
      5 C4          8.4693   -5.7778    0.4683 C.2       1 <0>        -0.2242
      6 S1          8.6376   -7.5521    0.5960 S.3       1 <0>         0.0333
      7 C5          6.4613   -4.3245    0.3023 C.2       1 <0>        -0.1234
      8 C6          5.0778   -4.0732    0.2397 C.2       1 <0>        -0.0633
      9 C7          4.9172   -2.7191    0.1406 C.2       1 <0>        -0.0664
     10 N2          6.1669   -2.1422    0.1355 N.pl3     1 <0>        -0.5481
     11 H1          6.2681   -1.0498    0.0548 H         1 <0>         0.4440
     12 C8          7.1005   -3.1196    0.2398 C.2       1 <0>         0.0691
     13 C9          3.6382   -2.0069    0.0494 C.2       1 <0>         0.5927
     14 O1          2.5927   -2.6300    0.0584 O.2       1 <0>        -0.5062
     15 N3          3.6207   -0.6625   -0.0443 N.am      1 <0>        -0.6830
     16 C10         2.4006    0.0242   -0.0339 C.ar      1 <0>         0.1537
     17 C11         2.3084    1.2678    0.5770 C.ar      1 <0>        -0.1392
     18 C12         1.1048    1.9453    0.5879 C.ar      1 <0>        -0.0939
     19 C13        -0.0150    1.3865   -0.0105 C.ar      1 <0>         0.0359
     20 C14         0.0746    0.1429   -0.6248 C.ar      1 <0>         0.0713
     21 C15         1.2826   -0.5375   -0.6345 C.ar      1 <0>        -0.1173
     22 O2         -1.0111   -0.4173   -1.2249 O.3       1 <0>        -0.3043
     23 C16        -2.2905    0.1199   -0.8726 C.3       1 <0>         0.0166
     24 C17        -2.1978    1.6511   -0.9174 C.3       1 <0>         0.0188
     25 O3         -1.1952    2.0659    0.0175 O.3       1 <0>        -0.3061
     26 H2          5.1978   -9.1803    0.5954 H         1 <0>         0.0972
     27 H3          6.5680   -9.7915    1.5832 H         1 <0>         0.0916
     28 H4          6.6267   -9.9149   -0.2079 H         1 <0>         0.0918
     29 H5          9.2312   -5.0129    0.4409 H         1 <0>         0.1946
     30 H6          4.2904   -4.8120    0.2647 H         1 <0>         0.1523
     31 H7          8.1698   -2.9706    0.2650 H         1 <0>         0.1768
     32 H8          4.5650   -0.1047   -0.1289 H         1 <0>         0.4249
     33 H9          3.1785    1.7058    1.0435 H         1 <0>         0.1357
     34 H10         1.0352    2.9123    1.0638 H         1 <0>         0.1401
     35 H11         1.3535   -1.5049   -1.1092 H         1 <0>         0.1518
     36 H12        -3.0466   -0.2338   -1.5891 H         1 <0>         0.1253
     37 H13        -2.5615   -0.2125    0.1404 H         1 <0>         0.0798
     38 H14        -1.9237    1.9723   -1.9331 H         1 <0>         0.0793
     39 H15        -3.1712    2.0855   -0.6456 H         1 <0>         0.1253
@<TRIPOS>BOND
     1    1    2 1
     2    1   26 1
     3    1   27 1
     4    1   28 1
     5    2    6 1
     6    2    3 2
     7    3    4 1
     8    4    5 2
     9    4    7 1
    10    5    6 1
    11    5   29 1
    12    7   12 2
    13    7    8 1
    14    8    9 2
    15    8   30 1
    16    9   10 1
    17    9   13 1
    18   10   11 1
    19   10   12 1
    20   12   31 1
    21   13   14 2
    22   13   15 am
    23   15   16 1
    24   15   32 1
    25   16   21 ar
    26   16   17 ar
    27   17   18 ar
    28   17   33 1
    29   18   19 ar
    30   18   34 1
    31   19   25 1
    32   19   20 ar
    33   20   21 ar
    34   20   22 1
    35   21   35 1
    36   22   23 1
    37   23   24 1
    38   23   36 1
    39   23   37 1
    40   24   25 1
    41   24   38 1
    42   24   39 1
@<TRIPOS>MOLECULE
ZINC41067736
   34    36     0     0     0
SMALL
USER_CHARGES

@<TRIPOS>ATOM
      1 C1         -0.0158    1.3173    0.0093 C.2       1 <0>         0.0811
      2 C2          1.1820    1.9496    0.0012 C.2       1 <0>        -0.2736
      3 S1          2.2957    0.5542   -0.0169 S.3       1 <0>         0.0692
      4 C3          1.1384   -0.6677   -0.0124 C.2       1 <0>         0.3229
      5 N1          0.0021   -0.0041    0.0020 N.2       1 <0>        -0.5945
      6 N2          1.3345   -2.0398   -0.0216 N.pl3     1 <0>        -0.5675
      7 C4          2.6927   -2.6012   -0.0314 C.3       1 <0>         0.1146
      8 C5          2.8348   -3.5612    1.1562 C.3       1 <0>         0.1010
      9 N3          1.6883   -4.4807    1.1565 N.pl3     1 <0>        -0.9945
     10 C6          0.3301   -3.9193    1.1663 C.3       1 <0>         0.1019
     11 C7          0.1881   -2.9593   -0.0156 C.3       1 <0>         0.1180
     12 S2          1.9226   -6.1200    1.1455 S.o2      1 <0>         2.7240
     13 O1          0.7444   -6.6950    0.5972 O.2       1 <0>        -0.9411
     14 O2          3.2100   -6.3425    0.5868 O.2       1 <0>        -0.9403
     15 C8          2.0049   -6.6458    2.8252 C.2       1 <0>        -0.7431
     16 C9          1.0023   -7.0547    3.6410 C.2       1 <0>        -0.0417
     17 C10         1.3044   -7.4266    4.9412 C.2       1 <0>         0.1441
     18 C11         2.5971   -7.3691    5.3562 C.2       1 <0>        -0.2392
     19 S3          3.4310   -6.7851    3.8898 S.3       1 <0>         0.1736
     20 N4          0.2895   -7.8561    5.8174 N.pl3     1 <0>        -0.8755
     21 H1         -0.9444    1.8685    0.0255 H         1 <0>         0.1701
     22 H2          1.4027    3.0068    0.0045 H         1 <0>         0.1922
     23 H3          2.8575   -3.1439   -0.9623 H         1 <0>         0.0884
     24 H4          3.4220   -1.7963    0.0596 H         1 <0>         0.0969
     25 H5          3.7596   -4.1298    1.0584 H         1 <0>         0.1135
     26 H6          2.8483   -2.9930    2.0863 H         1 <0>         0.0823
     27 H7         -0.3991   -4.7243    1.0753 H         1 <0>         0.1097
     28 H8          0.1653   -3.3766    2.0972 H         1 <0>         0.0791
     29 H9         -0.7363   -2.3908    0.0859 H         1 <0>         0.1097
     30 H10         0.1705   -3.5281   -0.9453 H         1 <0>         0.0786
     31 H11        -0.0161   -7.0896    3.2832 H         1 <0>         0.1472
     32 H12         3.0129   -7.6171    6.3216 H         1 <0>         0.1913
     33 H13        -0.6306   -7.8936    5.5125 H         1 <0>         0.3991
     34 H14         0.5103   -8.1145    6.7258 H         1 <0>         0.4026
@<TRIPOS>BOND
     1    1    5 1
     2    1    2 2
     3    1   21 1
     4    2    3 1
     5    2   22 1
     6    3    4 1
     7    4    5 2
     8    4    6 1
     9    6   11 1
    10    6    7 1
    11    7    8 1
    12    7   23 1
    13    7   24 1
    14    8    9 1
    15    8   25 1
    16    8   26 1
    17    9   10 1
    18    9   12 1
    19   10   11 1
    20   10   27 1
    21   10   28 1
    22   11   29 1
    23   11   30 1
    24   12   13 2
    25   12   14 2
    26   12   15 1
    27   15   19 1
    28   15   16 2
    29   16   17 1
    30   16   31 1
    31   17   18 2
    32   17   20 1
    33   18   19 1
    34   18   32 1
    35   20   33 1
    36   20   34 1
@<TRIPOS>MOLECULE
ZINC57866260
   37    40     0     0     0
SMALL
USER_CHARGES

@<TRIPOS>ATOM
      1 C1         -0.0167    1.3800    0.0096 C.ar      1 <0>        -0.0727
      2 C2          1.1935    2.0590    0.0017 C.ar      1 <0>        -0.1566
      3 C3          2.3753    1.3398   -0.0134 C.ar      1 <0>         0.1069
      4 N1          2.3659    0.0232   -0.0204 N.ar      1 <0>        -0.4738
      5 C4          1.2302   -0.6647   -0.0133 C.ar      1 <0>         0.1803
      6 C5          0.0021   -0.0041    0.0020 C.ar      1 <0>        -0.1177
      7 C6          1.2679   -2.1438   -0.0216 C.2       1 <0>         0.3282
      8 N2          0.2161   -2.9242   -0.0214 N.2       1 <0>        -0.4631
      9 C7          0.6100   -4.2204   -0.0309 C.ar      1 <0>         0.0632
     10 C8         -0.0866   -5.4349   -0.0341 C.ar      1 <0>        -0.0474
     11 C9          0.6082   -6.6252   -0.0435 C.ar      1 <0>         0.0318
     12 C10         2.0072   -6.6261   -0.0499 C.ar      1 <0>         0.0626
     13 C11         2.7044   -5.4332   -0.0468 C.ar      1 <0>        -0.0978
     14 C12         2.0161   -4.2276   -0.0374 C.ar      1 <0>         0.0656
     15 N3          2.4079   -2.9027   -0.0365 N.pl3     1 <0>        -0.4620
     16 C13         3.7851   -2.4031   -0.0464 C.3       1 <0>         0.1199
     17 C14         4.2781   -2.2381    1.3926 C.3       1 <0>        -0.1254
     18 C15         5.6947   -1.7242    1.3824 C.2       1 <0>         0.2905
     19 S1          6.4332   -1.4430   -0.0077 S.2       1 <0>        -0.4367
     20 N4          6.3392   -1.5016    2.5450 N.pl3     1 <0>        -0.7793
     21 O1          2.4401   -7.9214   -0.0583 O.3       1 <0>        -0.3034
     22 C16         1.3085   -8.7084    0.3571 C.3       1 <0>         0.2132
     23 O2          0.1738   -7.9206   -0.0481 O.3       1 <0>        -0.3033
     24 H1         -0.9522    1.9193    0.0259 H         1 <0>         0.1443
     25 H2          1.2126    3.1388    0.0070 H         1 <0>         0.1418
     26 H3          3.3186    1.8657   -0.0200 H         1 <0>         0.1639
     27 H4         -0.9212   -0.5644    0.0082 H         1 <0>         0.1515
     28 H5         -1.1666   -5.4390   -0.0290 H         1 <0>         0.1465
     29 H6          3.7844   -5.4386   -0.0519 H         1 <0>         0.1376
     30 H7          4.4252   -3.1126   -0.5707 H         1 <0>         0.1043
     31 H8          3.8183   -1.4394   -0.5546 H         1 <0>         0.1411
     32 H9          3.6379   -1.5286    1.9169 H         1 <0>         0.1054
     33 H10         4.2448   -3.2018    1.9008 H         1 <0>         0.0991
     34 H11         5.8911   -1.6722    3.3883 H         1 <0>         0.3983
     35 H12         7.2510   -1.1708    2.5385 H         1 <0>         0.4204
     36 H13         1.3059   -9.6727   -0.1510 H         1 <0>         0.1352
     37 H14         1.3133   -8.8445    1.4385 H         1 <0>         0.0874
@<TRIPOS>BOND
     1    1    6 ar
     2    1    2 ar
     3    1   24 1
     4    2    3 ar
     5    2   25 1
     6    3    4 ar
     7    3   26 1
     8    4    5 ar
     9    5    6 ar
    10    5    7 1
    11    6   27 1
    12    7   15 1
    13    7    8 2
    14    8    9 1
    15    9   14 ar
    16    9   10 ar
    17   10   11 ar
    18   10   28 1
    19   11   23 1
    20   11   12 ar
    21   12   13 ar
    22   12   21 1
    23   13   14 ar
    24   13   29 1
    25   14   15 1
    26   15   16 1
    27   16   17 1
    28   16   30 1
    29   16   31 1
    30   17   18 1
    31   17   32 1
    32   17   33 1
    33   18   19 2
    34   18   20 1
    35   20   34 1
    36   20   35 1
    37   21   22 1
    38   22   23 1
    39   22   36 1
    40   22   37 1
@<TRIPOS>MOLECULE
ZINC63654377
   38    40     0     0     0
SMALL
USER_CHARGES

@<TRIPOS>ATOM
      1 C1         -0.0167    1.3798    0.0096 C.2       1 <0>        -0.0889
      2 C2          1.1829    2.0502    0.0018 C.2       1 <0>        -0.1427
      3 C3          2.3428    1.3383   -0.0131 C.2       1 <0>        -0.1083
      4 S1          1.7542   -0.3469   -0.0166 S.3       1 <0>         0.1569
      5 C4          0.0021   -0.0041    0.0020 C.2       1 <0>        -0.1243
      6 C5         -1.1236   -0.9438    0.0081 C.2       1 <0>         0.1600
      7 N1         -2.3790   -0.6249    0.0166 N.2       1 <0>        -0.2538
      8 O1         -3.2305   -1.7536    0.0280 O.3       1 <0>        -0.1538
      9 C6         -2.4505   -2.8930   -0.3874 C.3       1 <0>         0.0277
     10 C7         -1.0190   -2.4570   -0.0010 C.3       1 <0>        -0.1401
     11 C8         -2.5595   -3.1074   -1.8751 C.2       1 <0>         0.4991
     12 O2         -3.1882   -2.3252   -2.5561 O.2       1 <0>        -0.5045
     13 N2         -1.9583   -4.1685   -2.4488 N.am      1 <0>        -0.6096
     14 C9         -1.1982   -5.1281   -1.6363 C.3       1 <0>         0.0970
     15 C10        -1.7286   -6.5382   -1.9139 C.3       1 <0>        -0.1350
     16 C11        -1.6785   -6.8106   -3.4190 C.3       1 <0>        -0.1124
     17 C12        -2.5712   -5.8060   -4.1510 C.3       1 <0>        -0.1247
     18 C13        -2.0555   -4.3909   -3.8979 C.3       1 <0>         0.1307
     19 C14        -2.5466   -6.0953   -5.6297 C.2       1 <0>         0.5254
     20 O3         -2.1545   -5.2504   -6.4065 O.2       1 <0>        -0.5366
     21 N3         -2.9602   -7.2930   -6.0891 N.am      1 <0>        -0.8532
     22 Cl1         3.9781    1.9208   -0.0261 Cl        1 <0>         0.0302
     23 H1         -0.9518    1.9200    0.0259 H         1 <0>         0.1538
     24 H2          1.2050    3.1299    0.0070 H         1 <0>         0.1527
     25 H3         -2.7486   -3.7890    0.1571 H         1 <0>         0.1466
     26 H4         -0.2973   -2.7904   -0.7468 H         1 <0>         0.1111
     27 H5         -0.7565   -2.8327    0.9880 H         1 <0>         0.1249
     28 H6         -0.1423   -5.0760   -1.9017 H         1 <0>         0.0795
     29 H7         -1.3236   -4.8920   -0.5795 H         1 <0>         0.0866
     30 H8         -1.1111   -7.2686   -1.3912 H         1 <0>         0.0871
     31 H9         -2.7582   -6.6150   -1.5644 H         1 <0>         0.0738
     32 H10        -0.6523   -6.7094   -3.7724 H         1 <0>         0.0750
     33 H11        -2.0323   -7.8224   -3.6169 H         1 <0>         0.0751
     34 H12        -3.5929   -5.8896   -3.7804 H         1 <0>         0.1046
     35 H13        -2.7463   -3.6686   -4.3329 H         1 <0>         0.1017
     36 H14        -1.0711   -4.2774   -4.3519 H         1 <0>         0.0818
     37 H15        -3.2738   -7.9687   -5.4678 H         1 <0>         0.4019
     38 H16        -2.9444   -7.4792   -7.0409 H         1 <0>         0.4045
@<TRIPOS>BOND
     1    1    5 2
     2    1    2 1
     3    1   23 1
     4    2    3 2
     5    2   24 1
     6    3    4 1
     7    3   22 1
     8    4    5 1
     9    5    6 1
    10    6   10 1
    11    6    7 2
    12    7    8 1
    13    8    9 1
    14    9   10 1
    15    9   11 1
    16    9   25 1
    17   10   26 1
    18   10   27 1
    19   11   12 2
    20   11   13 am
    21   13   18 1
    22   13   14 1
    23   14   15 1
    24   14   28 1
    25   14   29 1
    26   15   16 1
    27   15   30 1
    28   15   31 1
    29   16   17 1
    30   16   32 1
    31   16   33 1
    32   17   18 1
    33   17   19 1
    34   17   34 1
    35   18   35 1
    36   18   36 1
    37   19   20 2
    38   19   21 am
    39   21   37 1
    40   21   38 1
@<TRIPOS>MOLECULE
ZINC08984465
   42    45     0     0     0
SMALL
USER_CHARGES
3-(benzothiazol-2-ylmethylsulfanyl)-5-cyclohexyl-1,2,4-triazol-4-amine
@<TRIPOS>ATOM
      1 C1          1.1764    1.7921    0.0005 C.ar      1 <0>        -0.1118
      2 C2         -0.0126    1.0758    0.0080 C.ar      1 <0>        -0.0864
      3 C3         -1.2154    1.7566    0.0173 C.ar      1 <0>        -0.0688
      4 C4         -1.2121    3.1303    0.0299 C.ar      1 <0>        -0.1464
      5 C5         -0.0173    3.8857    0.0226 C.ar      1 <0>         0.0724
      6 C6          1.1900    3.1525    0.0072 C.ar      1 <0>        -0.0524
      7 N1         -0.2005    5.2225    0.0315 N.2       1 <0>        -0.4832
      8 C7         -1.3846    5.7667    0.0457 C.2       1 <0>         0.1322
      9 S1         -2.4538    4.3987    0.0486 S.3       1 <0>         0.0560
     10 C8         -1.7403    7.2311    0.0565 C.3       1 <0>        -0.0329
     11 S2         -1.8992    7.8260   -1.6455 S.3       1 <0>         0.0696
     12 C9         -2.3066    9.5134   -1.3431 C.2       1 <0>         0.1756
     13 N2         -2.4356   10.0870   -0.1693 N.2       1 <0>        -0.2859
     14 N3         -2.7383   11.3269   -0.3202 N.2       1 <0>        -0.2606
     15 C10        -2.8199   11.6164   -1.5880 C.2       1 <0>         0.1628
     16 N4         -2.5421   10.4731   -2.2853 N.pl3     1 <0>        -0.3065
     17 N5         -2.5101   10.3220   -3.6425 N.3       1 <0>        -0.5850
     18 C11        -3.1524   12.9630   -2.1770 C.3       1 <0>         0.0045
     19 C12        -2.1125   13.9892   -1.7228 C.3       1 <0>        -0.1093
     20 C13        -2.4501   15.3565   -2.3207 C.3       1 <0>        -0.1182
     21 C14        -3.8377   15.7922   -1.8459 C.3       1 <0>        -0.1238
     22 C15        -4.8777   14.7660   -2.3001 C.3       1 <0>        -0.1181
     23 C16        -4.5401   13.3988   -1.7022 C.3       1 <0>        -0.1085
     24 H1          2.1139    1.2562   -0.0114 H         1 <0>         0.1373
     25 H2          0.0021   -0.0041    0.0020 H         1 <0>         0.1417
     26 H3         -2.1490    1.2137    0.0191 H         1 <0>         0.1370
     27 H4          2.1339    3.6773    0.0010 H         1 <0>         0.1357
     28 H5         -2.6859    7.3715    0.5803 H         1 <0>         0.1291
     29 H6         -0.9563    7.7917    0.5656 H         1 <0>         0.1350
     30 H7         -3.4173   10.0608   -3.9987 H         1 <0>         0.3682
     31 H8         -2.1728   11.1601   -4.0918 H         1 <0>         0.3780
     32 H9         -3.1453   12.8956   -3.2649 H         1 <0>         0.0794
     33 H10        -2.1196   14.0567   -0.6349 H         1 <0>         0.0802
     34 H11        -1.1239   13.6788   -2.0611 H         1 <0>         0.0640
     35 H12        -2.4429   15.2890   -3.4086 H         1 <0>         0.0626
     36 H13        -1.7092   16.0875   -1.9971 H         1 <0>         0.0699
     37 H14        -4.0782   16.7662   -2.2719 H         1 <0>         0.0656
     38 H15        -3.8449   15.8596   -0.7580 H         1 <0>         0.0669
     39 H16        -4.8705   14.6986   -3.3880 H         1 <0>         0.0623
     40 H17        -5.8663   15.0764   -1.9619 H         1 <0>         0.0696
     41 H18        -5.2810   12.6677   -2.0258 H         1 <0>         0.0619
     42 H19        -4.5472   13.4662   -0.6143 H         1 <0>         0.0804
@<TRIPOS>BOND
     1    1    6 ar
     2    1    2 ar
     3    1   24 1
     4    2    3 ar
     5    2   25 1
     6    3    4 ar
     7    3   26 1
     8    4    9 1
     9    4    5 ar
    10    5    6 ar
    11    5    7 1
    12    6   27 1
    13    7    8 2
    14    8    9 1
    15    8   10 1
    16   10   11 1
    17   10   28 1
    18   10   29 1
    19   11   12 1
    20   12   16 1
    21   12   13 2
    22   13   14 1
    23   14   15 2
    24   15   16 1
    25   15   18 1
    26   16   17 1
    27   17   30 1
    28   17   31 1
    29   18   23 1
    30   18   19 1
    31   18   32 1
    32   19   20 1
    33   19   33 1
    34   19   34 1
    35   20   21 1
    36   20   35 1
    37   20   36 1
    38   21   22 1
    39   21   37 1
    40   21   38 1
    41   22   23 1
    42   22   39 1
    43   22   40 1
    44   23   41 1
    45   23   42 1
@<TRIPOS>MOLECULE
ZINC29185402
   45    47     0     0     0
SMALL
USER_CHARGES
(4E)-4-[[[(1S)-1-(2-methoxy-5-methyl-phenyl)ethyl]amino]methylene]isoquinoline-1,3-dione
@<TRIPOS>ATOM
      1 C1          7.1524    5.1031   -1.1697 C.3       1 <0>        -0.1173
      2 C2          5.9086    5.9481   -1.0700 C.ar      1 <0>        -0.1108
      3 C3          5.9142    7.2443   -1.5516 C.ar      1 <0>        -0.0749
      4 C4          4.7755    8.0208   -1.4614 C.ar      1 <0>        -0.1960
      5 C5          3.6241    7.4979   -0.8905 C.ar      1 <0>         0.1358
      6 C6          3.6225    6.1991   -0.4034 C.ar      1 <0>        -0.1247
      7 C7          4.7639    5.4262   -0.4968 C.ar      1 <0>        -0.0815
      8 C8          2.3751    5.6296    0.2216 C.3       1 <0>         0.1785
      9 H1          1.4879    6.0026   -0.3110 H         1 <0>         0.1067
     10 C9          2.3272    6.0102    1.7027 C.3       1 <0>        -0.1629
     11 N1          2.3867    4.1703    0.0925 N.pl3     1 <0>        -0.6976
     12 C10         1.2160    3.4873   -0.0011 C.2       1 <0>         0.3126
     13 C11         1.2182    2.1102    0.0251 C.2       1 <0>        -0.3618
     14 C12         2.2889    1.3641    0.7184 C.ar      1 <0>         0.0636
     15 C13         3.3313    2.0146    1.3685 C.ar      1 <0>        -0.1940
     16 C14         4.3077    1.2729    2.0012 C.ar      1 <0>        -0.0600
     17 C15         4.2559   -0.1135    1.9934 C.ar      1 <0>        -0.1595
     18 C16         3.2306   -0.7760    1.3538 C.ar      1 <0>        -0.0251
     19 C17         2.2331   -0.0450    0.7078 C.ar      1 <0>        -0.1754
     20 C18         1.1232   -0.7118    0.0146 C.2       1 <0>         0.5748
     21 O1          1.0697   -1.9269    0.0021 O.2       1 <0>        -0.5155
     22 N2          0.1661   -0.0023   -0.6053 N.am      1 <0>        -0.6800
     23 C19         0.1573    1.3403   -0.6346 C.2       1 <0>         0.5884
     24 O2         -0.7370    1.9244   -1.2186 O.2       1 <0>        -0.5356
     25 O3          2.5010    8.2583   -0.8048 O.3       1 <0>        -0.3144
     26 C20         2.5753    9.5864   -1.3270 C.3       1 <0>         0.0225
     27 H2          7.9529    5.6843   -1.6507 H         1 <0>         0.0678
     28 H3          6.9392    4.2062   -1.7698 H         1 <0>         0.0712
     29 H4          7.4729    4.8020   -0.1614 H         1 <0>         0.0712
     30 H5          6.8097    7.6498   -1.9990 H         1 <0>         0.1290
     31 H6          4.7803    9.0330   -1.8381 H         1 <0>         0.1334
     32 H7          4.7620    4.4135   -0.1213 H         1 <0>         0.1217
     33 H8          1.4166    5.5945    2.1588 H         1 <0>         0.0679
     34 H9          2.3185    7.1059    1.7996 H         1 <0>         0.0789
     35 H10         3.2121    5.6039    2.2145 H         1 <0>         0.0646
     36 H11         3.3433    3.6276    0.0714 H         1 <0>         0.4344
     37 H12         0.2664    4.0340   -0.0978 H         1 <0>         0.1677
     38 H13         3.3764    3.0936    1.3785 H         1 <0>         0.1363
     39 H14         5.1187    1.7757    2.5071 H         1 <0>         0.1281
     40 H15         5.0279   -0.6796    2.4933 H         1 <0>         0.1303
     41 H16         3.1992   -1.8556    1.3529 H         1 <0>         0.1378
     42 H17        -0.6573   -0.5205   -1.1187 H         1 <0>         0.4412
     43 H18         1.6050   10.0873   -1.1945 H         1 <0>         0.1054
     44 H19         2.8239    9.5460   -2.3978 H         1 <0>         0.0585
     45 H20         3.3542   10.1482   -0.7907 H         1 <0>         0.0586
@<TRIPOS>BOND
     1    1    2 1
     2    1   27 1
     3    1   28 1
     4    1   29 1
     5    2    7 ar
     6    2    3 ar
     7    3    4 ar
     8    3   30 1
     9    4    5 ar
    10    4   31 1
    11    5    6 ar
    12    5   25 1
    13    6    7 ar
    14    6    8 1
    15    7   32 1
    16    8    9 1
    17    8   10 1
    18    8   11 1
    19   10   33 1
    20   10   34 1
    21   10   35 1
    22   11   12 1
    23   11   36 1
    24   12   13 2
    25   12   37 1
    26   13   23 1
    27   13   14 1
    28   14   19 ar
    29   14   15 ar
    30   15   16 ar
    31   15   38 1
    32   16   17 ar
    33   16   39 1
    34   17   18 ar
    35   17   40 1
    36   18   19 ar
    37   18   41 1
    38   19   20 1
    39   20   21 2
    40   20   22 am
    41   22   23 am
    42   22   42 1
    43   23   24 2
    44   25   26 1
    45   26   43 1
    46   26   44 1
    47   26   45 1
@<TRIPOS>MOLECULE
ZINC47227272
   39    41     0     0     0
SMALL
USER_CHARGES

@<TRIPOS>ATOM
      1 C1         -0.0162    1.4914    0.0203 C.3       1 <0>        -0.0629
      2 C2          0.0099   -0.0153    0.0069 C.2       1 <0>         0.2341
      3 N1          0.0135   -0.7760   -1.0843 N.2       1 <0>        -0.5467
      4 C3          0.0395   -2.0482   -0.7402 C.2       1 <0>         0.3419
      5 N2          0.0530   -2.1103    0.6114 N.pl3     1 <0>        -0.4751
      6 H1          0.0724   -2.9121    1.1570 H         1 <0>         0.4429
      7 N3          0.0383   -0.7817    1.0661 N.2       1 <0>        -0.3081
      8 C4          0.0512   -3.2009   -1.6655 C.ar      1 <0>        -0.0771
      9 C5          0.1774   -4.4981   -1.1683 C.ar      1 <0>        -0.0753
     10 C6          0.1878   -5.5699   -2.0363 C.ar      1 <0>        -0.1347
     11 C7          0.0734   -5.3650   -3.4010 C.ar      1 <0>        -0.0722
     12 C8         -0.0521   -4.0860   -3.9068 C.ar      1 <0>        -0.1249
     13 C9         -0.0701   -2.9969   -3.0467 C.ar      1 <0>         0.2080
     14 N4         -0.2026   -1.7049   -3.5551 N.am      1 <0>        -0.6562
     15 C10        -0.9658   -1.4840   -4.6438 C.2       1 <0>         0.5495
     16 O1         -1.6172   -2.3927   -5.1248 O.2       1 <0>        -0.5261
     17 C11        -1.0114   -0.1514   -5.2475 C.2       1 <0>        -0.2063
     18 C12        -1.7750    0.0696   -6.3367 C.2       1 <0>        -0.0119
     19 C13        -1.8208    1.4098   -6.9438 C.ar      1 <0>        -0.0649
     20 C14        -1.0692    2.4550   -6.3973 C.ar      1 <0>        -0.0962
     21 C15        -1.1165    3.7076   -6.9714 C.ar      1 <0>        -0.1072
     22 C16        -1.9056    3.9329   -8.0859 C.ar      1 <0>        -0.0983
     23 C17        -2.6534    2.9036   -8.6332 C.ar      1 <0>        -0.0374
     24 C18        -2.6113    1.6427   -8.0732 C.ar      1 <0>        -0.0858
     25 Cl1        -3.6400    3.1981  -10.0309 Cl        1 <0>        -0.0630
     26 H2          1.0049    1.8726    0.0094 H         1 <0>         0.0871
     27 H3         -0.5485    1.8535   -0.8593 H         1 <0>         0.0881
     28 H4         -0.5238    1.8380    0.9205 H         1 <0>         0.0848
     29 H5          0.2672   -4.6629   -0.1047 H         1 <0>         0.1262
     30 H6          0.2859   -6.5736   -1.6498 H         1 <0>         0.1342
     31 H7          0.0828   -6.2099   -4.0735 H         1 <0>         0.1349
     32 H8         -0.1405   -3.9335   -4.9723 H         1 <0>         0.1437
     33 H9          0.2546   -0.9653   -3.1251 H         1 <0>         0.4277
     34 H10        -0.4334    0.6549   -4.8206 H         1 <0>         0.1355
     35 H11        -2.3530   -0.7367   -6.7636 H         1 <0>         0.1408
     36 H12        -0.4534    2.2814   -5.5272 H         1 <0>         0.1359
     37 H13        -0.5365    4.5153   -6.5501 H         1 <0>         0.1379
     38 H14        -1.9387    4.9164   -8.5309 H         1 <0>         0.1369
     39 H15        -3.1910    0.8394   -8.5035 H         1 <0>         0.1401
@<TRIPOS>BOND
     1    1    2 1
     2    1   26 1
     3    1   27 1
     4    1   28 1
     5    2    7 2
     6    2    3 1
     7    3    4 2
     8    4    5 1
     9    4    8 1
    10    5    6 1
    11    5    7 1
    12    8   13 ar
    13    8    9 ar
    14    9   10 ar
    15    9   29 1
    16   10   11 ar
    17   10   30 1
    18   11   12 ar
    19   11   31 1
    20   12   13 ar
    21   12   32 1
    22   13   14 1
    23   14   15 am
    24   14   33 1
    25   15   16 2
    26   15   17 1
    27   17   18 2
    28   17   34 1
    29   18   19 1
    30   18   35 1
    31   19   24 ar
    32   19   20 ar
    33   20   21 ar
    34   20   36 1
    35   21   22 ar
    36   21   37 1
    37   22   23 ar
    38   22   38 1
    39   23   24 ar
    40   23   25 1
    41   24   39 1
@<TRIPOS>MOLECULE
ZINC17836167
   44    46     0     0     0
SMALL
USER_CHARGES

@<TRIPOS>ATOM
      1 C1         -0.0187    1.5258    0.0104 C.3       1 <0>        -0.1526
      2 C2          0.0021   -0.0041    0.0020 C.3       1 <0>        -0.1203
      3 C3         -1.4333   -0.5336    0.0129 C.3       1 <0>        -0.1356
      4 C4         -1.4126   -2.0635    0.0045 C.3       1 <0>         0.1643
      5 H1         -0.8102   -2.4233    0.8386 H         1 <0>         0.1193
      6 C5         -2.8413   -2.5937    0.1410 C.3       1 <0>        -0.1693
      7 N1         -0.8342   -2.5371   -1.2555 N.pl3     1 <0>        -0.3804
      8 C6          0.3046   -3.3301   -1.3824 C.2       1 <0>         0.4680
      9 C7          0.4970   -3.5482   -2.7223 C.2       1 <0>        -0.3564
     10 C8         -0.5323   -2.8770   -3.4238 C.2       1 <0>         0.5480
     11 O1         -0.6713   -2.8540   -4.6348 O.2       1 <0>        -0.5350
     12 N2         -1.3334   -2.2759   -2.5314 N.am      1 <0>        -0.5048
     13 H2         -2.1212   -1.7489   -2.7377 H         1 <0>         0.4334
     14 C9          1.5613   -4.3367   -3.4239 C.3       1 <0>         0.0722
     15 H3          1.2400   -5.3759   -3.4943 H         1 <0>         0.0975
     16 S1          3.1453   -4.2764   -2.5786 S.3       1 <0>        -0.1637
     17 C10         2.9024   -5.1393   -1.0193 C.3       1 <0>        -0.1184
     18 C11         2.0199   -4.4066   -0.0862 C.2       1 <0>         0.4961
     19 N3          0.9863   -3.7299   -0.3142 N.2       1 <0>        -0.6522
     20 O2          2.3793   -4.4757    1.2076 O.3       1 <0>        -0.4642
     21 C12         1.7349   -3.7872   -4.8163 C.ar      1 <0>        -0.0513
     22 C13         2.1139   -2.4700   -4.9967 C.ar      1 <0>        -0.0552
     23 C14         2.2738   -1.9650   -6.2732 C.ar      1 <0>        -0.1508
     24 C15         2.0543   -2.7789   -7.3716 C.ar      1 <0>         0.1033
     25 C16         1.6748   -4.0979   -7.1897 C.ar      1 <0>        -0.1503
     26 C17         1.5206   -4.6022   -5.9122 C.ar      1 <0>        -0.0624
     27 F1          2.2099   -2.2862   -8.6199 F         1 <0>        -0.1420
     28 H4          1.0039    1.9031    0.0027 H         1 <0>         0.0561
     29 H5         -0.5459    1.8868   -0.8726 H         1 <0>         0.0531
     30 H6         -0.5289    1.8773    0.9072 H         1 <0>         0.0550
     31 H7          0.5123   -0.3556   -0.8948 H         1 <0>         0.0613
     32 H8          0.5293   -0.3651    0.8851 H         1 <0>         0.0632
     33 H9         -1.9435   -0.1821    0.9097 H         1 <0>         0.0851
     34 H10        -1.9605   -0.1726   -0.8702 H         1 <0>         0.0667
     35 H11        -3.4436   -2.2339   -0.6932 H         1 <0>         0.0604
     36 H12        -2.8265   -3.6836    0.1350 H         1 <0>         0.0654
     37 H13        -3.2715   -2.2413    1.0784 H         1 <0>         0.0800
     38 H14         2.4639   -6.1161   -1.2232 H         1 <0>         0.1305
     39 H15         3.8724   -5.2848   -0.5438 H         1 <0>         0.1536
     40 H16         1.7928   -3.9919    1.8051 H         1 <0>         0.4113
     41 H17         2.2847   -1.8352   -4.1398 H         1 <0>         0.1255
     42 H18         2.5695   -0.9358   -6.4139 H         1 <0>         0.1320
     43 H19         1.5030   -4.7336   -8.0457 H         1 <0>         0.1344
     44 H20         1.2289   -5.6323   -5.7701 H         1 <0>         0.1290
@<TRIPOS>BOND
     1    1    2 1
     2    1   28 1
     3    1   29 1
     4    1   30 1
     5    2    3 1
     6    2   31 1
     7    2   32 1
     8    3    4 1
     9    3   33 1
    10    3   34 1
    11    4    5 1
    12    4    6 1
    13    4    7 1
    14    6   35 1
    15    6   36 1
    16    6   37 1
    17    7   12 1
    18    7    8 1
    19    8   19 1
    20    8    9 2
    21    9   10 1
    22    9   14 1
    23   10   11 2
    24   10   12 am
    25   12   13 1
    26   14   15 1
    27   14   16 1
    28   14   21 1
    29   16   17 1
    30   17   18 1
    31   17   38 1
    32   17   39 1
    33   18   19 2
    34   18   20 1
    35   20   40 1
    36   21   26 ar
    37   21   22 ar
    38   22   23 ar
    39   22   41 1
    40   23   24 ar
    41   23   42 1
    42   24   25 ar
    43   24   27 1
    44   25   26 ar
    45   25   43 1
    46   26   44 1
@<TRIPOS>MOLECULE
ZINC67391248
   46    47     0     0     0
SMALL
USER_CHARGES

@<TRIPOS>ATOM
      1 C1         -0.2935    1.4318    0.1321 C.3       1 <0>        -0.0983
      2 C2         -0.1807   -0.0700    0.0791 C.2       1 <0>         0.1001
      3 C3         -0.1135   -0.8259   -1.0413 C.2       1 <0>        -0.2511
      4 C4         -0.0166   -2.1657   -0.6513 C.2       1 <0>         0.0557
      5 N1         -0.0252   -2.2124    0.6562 N.2       1 <0>        -0.2916
      6 N2         -0.1227   -0.9015    1.1404 N.pl3     1 <0>        -0.3705
      7 C5         -0.1588   -0.5038    2.5499 C.3       1 <0>         0.0982
      8 C6         -0.1392   -0.3146   -2.4586 C.3       1 <0>         0.2463
      9 H1         -0.7952    0.5537   -2.5199 H         1 <0>         0.0923
     10 C7          1.2757    0.0843   -2.8826 C.3       1 <0>        -0.1571
     11 N3         -0.6372   -1.3666   -3.3483 N.am      1 <0>        -0.7388
     12 C8         -1.2194   -1.0394   -4.5190 C.2       1 <0>         0.7109
     13 O1         -1.3313    0.1288   -4.8367 O.2       1 <0>        -0.5822
     14 N4         -1.6776   -2.0073   -5.3374 N.am      1 <0>        -0.7421
     15 C9         -2.3104   -1.6516   -6.6099 C.3       1 <0>         0.2362
     16 C10        -3.5558   -0.8044   -6.3410 C.3       1 <0>        -0.1643
     17 C11        -1.3244   -0.8521   -7.4640 C.3       1 <0>        -0.1604
     18 C12        -2.7060   -2.9077   -7.3426 C.ar      1 <0>        -0.0792
     19 C13        -3.7285   -2.8723   -8.2723 C.ar      1 <0>        -0.0954
     20 C14        -4.0917   -4.0240   -8.9446 C.ar      1 <0>        -0.1042
     21 C15        -3.4319   -5.2124   -8.6869 C.ar      1 <0>        -0.0358
     22 C16        -2.4087   -5.2472   -7.7563 C.ar      1 <0>        -0.1042
     23 C17        -2.0426   -4.0936   -7.0888 C.ar      1 <0>        -0.1068
     24 Cl1        -3.8880   -6.6595   -9.5305 Cl        1 <0>        -0.0673
     25 H2          0.7041    1.8707    0.1496 H         1 <0>         0.0842
     26 H3         -0.8314    1.7871   -0.7468 H         1 <0>         0.0895
     27 H4         -0.8347    1.7240    1.0320 H         1 <0>         0.0728
     28 H5          0.0528   -3.0149   -1.3149 H         1 <0>         0.1783
     29 H6         -1.1925   -0.4823    2.8950 H         1 <0>         0.0763
     30 H7          0.4079   -1.2205    3.1443 H         1 <0>         0.0913
     31 H8          0.2814    0.4874    2.6591 H         1 <0>         0.0885
     32 H9          1.2572    0.4541   -3.9078 H         1 <0>         0.0636
     33 H10         1.6463    0.8670   -2.2207 H         1 <0>         0.0635
     34 H11         1.9318   -0.7840   -2.8214 H         1 <0>         0.0557
     35 H12        -0.5480   -2.2987   -3.0948 H         1 <0>         0.3930
     36 H13        -1.5883   -2.9393   -5.0840 H         1 <0>         0.3942
     37 H14        -3.2696    0.1041   -5.8110 H         1 <0>         0.0858
     38 H15        -4.0266   -0.5398   -7.2877 H         1 <0>         0.0666
     39 H16        -4.2582   -1.3740   -5.7325 H         1 <0>         0.0566
     40 H17        -0.4372   -1.4557   -7.6556 H         1 <0>         0.0553
     41 H18        -1.7953   -0.5875   -8.4108 H         1 <0>         0.0646
     42 H19        -1.0383    0.0564   -6.9341 H         1 <0>         0.0890
     43 H20        -4.2437   -1.9446   -8.4732 H         1 <0>         0.1381
     44 H21        -4.8908   -3.9963   -9.6707 H         1 <0>         0.1367
     45 H22        -1.8935   -6.1747   -7.5545 H         1 <0>         0.1356
     46 H23        -1.2407   -4.1196   -6.3658 H         1 <0>         0.1305
@<TRIPOS>BOND
     1    1    2 1
     2    1   25 1
     3    1   26 1
     4    1   27 1
     5    2    6 1
     6    2    3 2
     7    3    4 1
     8    3    8 1
     9    4    5 2
    10    4   28 1
    11    5    6 1
    12    6    7 1
    13    7   29 1
    14    7   30 1
    15    7   31 1
    16    8    9 1
    17    8   10 1
    18    8   11 1
    19   10   32 1
    20   10   33 1
    21   10   34 1
    22   11   12 am
    23   11   35 1
    24   12   13 2
    25   12   14 am
    26   14   15 1
    27   14   36 1
    28   15   16 1
    29   15   17 1
    30   15   18 1
    31   16   37 1
    32   16   38 1
    33   16   39 1
    34   17   40 1
    35   17   41 1
    36   17   42 1
    37   18   23 ar
    38   18   19 ar
    39   19   20 ar
    40   19   43 1
    41   20   21 ar
    42   20   44 1
    43   21   22 ar
    44   21   24 1
    45   22   23 ar
    46   22   45 1
    47   23   46 1
@<TRIPOS>MOLECULE
ZINC31967163
   37    39     0     0     0
SMALL
USER_CHARGES
N-[3-(pyridine-3-carbonylamino)phenyl]pyrazine-2-carboxamide
@<TRIPOS>ATOM
      1 C1         -6.2066   -0.9044   -0.1364 C.ar      1 <0>        -0.0820
      2 C2         -4.9819   -0.2717   -0.0410 C.ar      1 <0>        -0.1340
      3 C3         -4.9136    1.1159   -0.0376 C.ar      1 <0>         0.1658
      4 C4         -6.0776    1.8666   -0.1244 C.ar      1 <0>        -0.1475
      5 C5         -7.3053    1.2282   -0.2259 C.ar      1 <0>         0.1628
      6 C6         -7.3666   -0.1601   -0.2288 C.ar      1 <0>        -0.1538
      7 N1         -8.4799    1.9809   -0.3199 N.am      1 <0>        -0.6647
      8 C7         -8.4805    3.1477   -0.9945 C.2       1 <0>         0.5798
      9 O1         -7.4427    3.5872   -1.4492 O.2       1 <0>        -0.5097
     10 C8         -9.7459    3.8942   -1.1818 C.ar      1 <0>         0.0254
     11 C9         -9.7488    5.1018   -1.8795 C.ar      1 <0>         0.1145
     12 N2        -10.8799    5.7635   -2.0443 N.ar      1 <0>        -0.4373
     13 C10       -12.0066    5.2826   -1.5490 C.ar      1 <0>         0.0794
     14 C11       -12.0071    4.0817   -0.8545 C.ar      1 <0>         0.0528
     15 N3        -10.8838    3.4123   -0.6897 N.ar      1 <0>        -0.4137
     16 N4         -3.6737    1.7555    0.0591 N.am      1 <0>        -0.6784
     17 C12        -2.5883    1.2135   -0.5280 C.2       1 <0>         0.5686
     18 O2         -2.6684    0.1280   -1.0693 O.2       1 <0>        -0.5154
     19 C13        -1.3006    1.9391   -0.5137 C.ar      1 <0>        -0.1891
     20 C14        -0.1655    1.3870   -1.1201 C.ar      1 <0>        -0.0140
     21 C15         1.0140    2.1092   -1.0839 C.ar      1 <0>        -0.1768
     22 C16         1.0357    3.3392   -0.4508 C.ar      1 <0>         0.1260
     23 N5         -0.0482    3.8320    0.1174 N.ar      1 <0>        -0.4857
     24 C17        -1.1940    3.1829    0.1096 C.ar      1 <0>         0.1370
     25 H1         -6.2569   -1.9832   -0.1392 H         1 <0>         0.1319
     26 H2         -4.0768   -0.8565    0.0307 H         1 <0>         0.1402
     27 H3         -6.0275    2.9454   -0.1178 H         1 <0>         0.1427
     28 H4         -8.3222   -0.6577   -0.3036 H         1 <0>         0.1286
     29 H5         -9.4035    1.6208    0.1567 H         1 <0>         0.4485
     30 H6         -8.8280    5.4951   -2.2841 H         1 <0>         0.1841
     31 H7        -12.9300    5.8259   -1.6857 H         1 <0>         0.1802
     32 H8        -12.9305    3.6926   -0.4515 H         1 <0>         0.1819
     33 H9         -3.5843    2.7009    0.6143 H         1 <0>         0.4335
     34 H10        -0.2108    0.4242   -1.6074 H         1 <0>         0.1494
     35 H11         1.9083    1.7171   -1.5452 H         1 <0>         0.1464
     36 H12         1.9551    3.9051   -0.4210 H         1 <0>         0.1647
     37 H13        -2.0597    3.6192    0.5856 H         1 <0>         0.1580
@<TRIPOS>BOND
     1    1    6 ar
     2    1    2 ar
     3    1   25 1
     4    2    3 ar
     5    2   26 1
     6    3    4 ar
     7    3   16 1
     8    4    5 ar
     9    4   27 1
    10    5    6 ar
    11    5    7 1
    12    6   28 1
    13    7    8 am
    14    7   29 1
    15    8    9 2
    16    8   10 1
    17   10   15 ar
    18   10   11 ar
    19   11   12 ar
    20   11   30 1
    21   12   13 ar
    22   13   14 ar
    23   13   31 1
    24   14   15 ar
    25   14   32 1
    26   16   17 am
    27   16   33 1
    28   17   18 2
    29   17   19 1
    30   19   24 ar
    31   19   20 ar
    32   20   21 ar
    33   20   34 1
    34   21   22 ar
    35   21   35 1
    36   22   23 ar
    37   22   36 1
    38   23   24 ar
    39   24   37 1
@<TRIPOS>MOLECULE
ZINC41547476
   44    46     0     0     0
SMALL
USER_CHARGES

@<TRIPOS>ATOM
      1 C1         -0.0187    1.5258    0.0104 C.3       1 <0>        -0.1667
      2 C2          0.0021   -0.0041    0.0020 C.3       1 <0>         0.1279
      3 N1          0.6878   -0.4765   -1.2033 N.pl3     1 <0>        -0.3687
      4 C3          1.7397   -1.3211   -1.2388 C.2       1 <0>         0.0795
      5 C4          2.0763   -1.5064   -2.5362 C.2       1 <0>        -0.2653
      6 C5          1.2001   -0.7491   -3.3205 C.2       1 <0>         0.0655
      7 N2          0.3635   -0.1361   -2.5229 N.2       1 <0>        -0.2907
      8 C6          3.1977   -2.3745   -3.0460 C.3       1 <0>         0.2005
      9 N3          2.6967   -3.7308   -3.2819 N.am      1 <0>        -0.7100
     10 C7          3.5286   -4.6858   -3.7428 C.2       1 <0>         0.5358
     11 O1          4.6919   -4.4224   -3.9622 O.2       1 <0>        -0.4873
     12 C8          3.0132   -6.0810   -3.9855 C.3       1 <0>         0.0893
     13 C9          3.8770   -6.7628   -5.0164 C.2       1 <0>         0.5010
     14 O2          5.0367   -6.4345   -5.1524 O.2       1 <0>        -0.4589
     15 N4          3.3546   -7.7401   -5.7867 N.am      1 <0>        -0.6600
     16 C10         1.9833   -8.0176   -5.7027 C.ar      1 <0>         0.1038
     17 C11         1.4562   -9.1512   -6.3003 C.ar      1 <0>        -0.1272
     18 C12         0.1034   -9.4177   -6.1970 C.ar      1 <0>        -0.0708
     19 C13        -0.7237   -8.5569   -5.4992 C.ar      1 <0>        -0.1131
     20 C14        -0.2045   -7.4212   -4.9047 C.ar      1 <0>        -0.0969
     21 C15         1.1481   -7.1448   -5.0088 C.ar      1 <0>         0.0686
     22 O3          1.6649   -6.0150   -4.4552 O.3       1 <0>        -0.2936
     23 C16        -0.4715  -10.6497   -6.8473 C.3       1 <0>        -0.1159
     24 C17         3.0588   -6.8752   -2.6785 C.3       1 <0>        -0.1672
     25 H1          1.0039    1.9031    0.0027 H         1 <0>         0.0611
     26 H2         -0.5459    1.8868   -0.8726 H         1 <0>         0.0714
     27 H3         -0.5289    1.8773    0.9072 H         1 <0>         0.0770
     28 H4          0.5293   -0.3651    0.8851 H         1 <0>         0.0973
     29 H5         -1.0205   -0.3814    0.0098 H         1 <0>         0.0870
     30 H6          2.2261   -1.7686   -0.3846 H         1 <0>         0.1758
     31 H7          1.2093   -0.6854   -4.3986 H         1 <0>         0.1844
     32 H8          3.5816   -1.9616   -3.9789 H         1 <0>         0.0791
     33 H9          3.9977   -2.4062   -2.3063 H         1 <0>         0.0767
     34 H10         1.7663   -3.9415   -3.1065 H         1 <0>         0.4071
     35 H11         3.9212   -8.2441   -6.3915 H         1 <0>         0.4191
     36 H12         2.1004   -9.8249   -6.8458 H         1 <0>         0.1344
     37 H13        -1.7790   -8.7719   -5.4184 H         1 <0>         0.1356
     38 H14        -0.8532   -6.7511   -4.3602 H         1 <0>         0.1407
     39 H15        -0.4391  -11.4810   -6.1430 H         1 <0>         0.0745
     40 H16        -1.5048  -10.4590   -7.1370 H         1 <0>         0.0712
     41 H17         0.1137  -10.9001   -7.7321 H         1 <0>         0.0688
     42 H18         2.4361   -6.3822   -1.9320 H         1 <0>         0.0902
     43 H19         2.6861   -7.8844   -2.8534 H         1 <0>         0.0793
     44 H20         4.0866   -6.9246   -2.3190 H         1 <0>         0.0897
@<TRIPOS>BOND
     1    1    2 1
     2    1   25 1
     3    1   26 1
     4    1   27 1
     5    2    3 1
     6    2   28 1
     7    2   29 1
     8    3    7 1
     9    3    4 1
    10    4    5 2
    11    4   30 1
    12    5    6 1
    13    5    8 1
    14    6    7 2
    15    6   31 1
    16    8    9 1
    17    8   32 1
    18    8   33 1
    19    9   10 am
    20    9   34 1
    21   10   11 2
    22   10   12 1
    23   12   22 1
    24   12   13 1
    25   12   24 1
    26   13   14 2
    27   13   15 am
    28   15   16 1
    29   15   35 1
    30   16   21 ar
    31   16   17 ar
    32   17   18 ar
    33   17   36 1
    34   18   19 ar
    35   18   23 1
    36   19   20 ar
    37   19   37 1
    38   20   21 ar
    39   20   38 1
    40   21   22 1
    41   23   39 1
    42   23   40 1
    43   23   41 1
    44   24   42 1
    45   24   43 1
    46   24   44 1
@<TRIPOS>MOLECULE
ZINC55641060
   34    35     0     0     0
SMALL
USER_CHARGES

@<TRIPOS>ATOM
      1 C1          0.9635    1.9244    0.2085 C.3       1 <0>         0.0876
      2 N1          0.8147    0.4691    0.1293 N.am      1 <0>        -0.7343
      3 C2          1.2992   -0.3124    1.1146 C.2       1 <0>         0.4951
      4 O1          1.8585    0.1890    2.0668 O.2       1 <0>        -0.5033
      5 C3          1.1462   -1.8094    1.0331 C.3       1 <0>         0.1201
      6 N2          1.7510   -2.4272    2.2158 N.pl3     1 <0>        -0.3624
      7 C4          1.1356   -3.2823    3.0754 C.2       1 <0>         0.0570
      8 C5          2.0378   -3.6220    4.0306 C.2       1 <0>        -0.0081
      9 C6          3.2379   -2.9551    3.7454 C.2       1 <0>         0.0420
     10 N3          3.0676   -2.2467    2.6584 N.2       1 <0>        -0.2433
     11 N4          1.8093   -4.4900    5.1154 N.pl3     1 <0>        -1.0225
     12 S1          2.9267   -5.6515    5.4960 S.o2      1 <0>         2.6940
     13 O2          4.1817   -4.9918    5.5918 O.2       1 <0>        -0.9412
     14 O3          2.3789   -6.4061    6.5682 O.2       1 <0>        -0.9351
     15 C7          3.0351   -6.7421    4.1163 C.ar      1 <0>        -0.6842
     16 C8          4.2151   -6.8381    3.4026 C.ar      1 <0>         0.0249
     17 C9          4.3015   -7.6930    2.3204 C.ar      1 <0>        -0.1687
     18 C10         3.2055   -8.4544    1.9503 C.ar      1 <0>         0.1713
     19 C11         2.0241   -8.3587    2.6652 C.ar      1 <0>        -0.1677
     20 C12         1.9410   -7.5062    3.7515 C.ar      1 <0>         0.0825
     21 Cl1         0.4617   -7.3899    4.6525 Cl        1 <0>        -0.0264
     22 F1          3.2892   -9.2897    0.8918 F         1 <0>        -0.1201
     23 H1          2.0224    2.1796    0.2504 H         1 <0>         0.0626
     24 H2          0.5135    2.3841   -0.6714 H         1 <0>         0.0791
     25 H3          0.4653    2.2923    1.1055 H         1 <0>         0.0614
     26 H4          0.3674    0.0681   -0.6323 H         1 <0>         0.4035
     27 H5          0.0873   -2.0646    0.9912 H         1 <0>         0.1284
     28 H6          1.6443   -2.1773    0.1361 H         1 <0>         0.1188
     29 H7          0.1145   -3.6277    3.0103 H         1 <0>         0.1821
     30 H8          4.1488   -3.0189    4.3221 H         1 <0>         0.2026
     31 H9          0.9975   -4.4077    5.6397 H         1 <0>         0.4259
     32 H10         5.0699   -6.2442    3.6907 H         1 <0>         0.1656
     33 H11         5.2235   -7.7672    1.7631 H         1 <0>         0.1553
     34 H12         1.1687   -8.9517    2.3771 H         1 <0>         0.1573
@<TRIPOS>BOND
     1    1    2 1
     2    1   23 1
     3    1   24 1
     4    1   25 1
     5    2    3 am
     6    2   26 1
     7    3    4 2
     8    3    5 1
     9    5    6 1
    10    5   27 1
    11    5   28 1
    12    6   10 1
    13    6    7 1
    14    7    8 2
    15    7   29 1
    16    8    9 1
    17    8   11 1
    18    9   10 2
    19    9   30 1
    20   11   12 1
    21   11   31 1
    22   12   13 2
    23   12   14 2
    24   12   15 1
    25   15   20 ar
    26   15   16 ar
    27   16   17 ar
    28   16   32 1
    29   17   18 ar
    30   17   33 1
    31   18   19 ar
    32   18   22 1
    33   19   20 ar
    34   19   34 1
    35   20   21 1
@<TRIPOS>MOLECULE
ZINC64697074
   32    34     0     0     0
SMALL
USER_CHARGES

@<TRIPOS>ATOM
      1 C1         -0.0187    1.5258    0.0104 C.3       1 <0>        -0.1473
      2 C2          0.0021   -0.0041    0.0020 C.3       1 <0>         0.0047
      3 H1         -1.0205   -0.3814    0.0098 H         1 <0>         0.1382
      4 C3          0.7074   -0.4901   -1.2379 C.2       1 <0>         0.1785
      5 N1          1.9938   -0.4763   -1.4461 N.2       1 <0>        -0.2537
      6 N2          2.2480   -0.9659   -2.6084 N.2       1 <0>        -0.2595
      7 C4          1.1196   -1.3130   -3.1883 C.2       1 <0>         0.2621
      8 O1          0.1230   -1.0218   -2.3269 O.3       1 <0>        -0.2087
      9 C5          0.9723   -1.9108   -4.5238 C.2       1 <0>        -0.1303
     10 C6          1.9501   -2.2406   -5.4437 C.2       1 <0>        -0.0725
     11 C7          1.5620   -2.7963   -6.6407 C.2       1 <0>        -0.1675
     12 C8          0.2407   -3.0024   -6.8804 C.2       1 <0>        -0.1450
     13 S1         -0.5154   -2.4072   -5.3770 S.3       1 <0>         0.1180
     14 S2          0.8794   -0.6050    1.4716 S.3       1 <0>         0.0997
     15 C9         -0.1356   -0.0870    2.8155 C.2       1 <0>         0.4423
     16 N3         -1.2427    0.5742    2.5231 N.2       1 <0>        -0.6640
     17 C10        -2.0755    1.0073    3.4684 C.2       1 <0>         0.5290
     18 O2         -3.0913    1.6141    3.1887 O.2       1 <0>        -0.4682
     19 C11        -1.7027    0.7108    4.9096 C.3       1 <0>        -0.2344
     20 C12        -0.4091   -0.0544    5.1182 C.2       1 <0>         0.5094
     21 N4          0.2707   -0.3973    4.0474 N.2       1 <0>        -0.6310
     22 N5          0.0242   -0.3752    6.3566 N.pl3     1 <0>        -0.7730
     23 H2          1.0039    1.9031    0.0027 H         1 <0>         0.0761
     24 H3         -0.5459    1.8868   -0.8726 H         1 <0>         0.0737
     25 H4         -0.5289    1.8773    0.9072 H         1 <0>         0.1022
     26 H5          2.9938   -2.0658   -5.2279 H         1 <0>         0.1520
     27 H6          2.2997   -3.0656   -7.3821 H         1 <0>         0.1496
     28 H7         -0.2316   -3.4232   -7.7558 H         1 <0>         0.1979
     29 H8         -1.6271    1.6583    5.4431 H         1 <0>         0.1370
     30 H9         -2.5133    0.1373    5.3593 H         1 <0>         0.1368
     31 H10        -0.4945   -0.1158    7.1342 H         1 <0>         0.4244
     32 H11         0.8540   -0.8648    6.4684 H         1 <0>         0.4237
@<TRIPOS>BOND
     1    1    2 1
     2    1   23 1
     3    1   24 1
     4    1   25 1
     5    2    3 1
     6    2    4 1
     7    2   14 1
     8    4    8 1
     9    4    5 2
    10    5    6 1
    11    6    7 2
    12    7    8 1
    13    7    9 1
    14    9   13 1
    15    9   10 2
    16   10   11 1
    17   10   26 1
    18   11   12 2
    19   11   27 1
    20   12   13 1
    21   12   28 1
    22   14   15 1
    23   15   21 1
    24   15   16 2
    25   16   17 1
    26   17   18 2
    27   17   19 1
    28   19   20 1
    29   19   29 1
    30   19   30 1
    31   20   21 2
    32   20   22 1
    33   22   31 1
    34   22   32 1
@<TRIPOS>MOLECULE
ZINC66825059
   52    53     0     0     0
SMALL
USER_CHARGES

@<TRIPOS>ATOM
      1 C1         -2.0020    0.5574   -0.0871 C.3       1 <0>        -0.0728
      2 C2         -0.8611   -0.4262   -0.0438 C.2       1 <0>         0.0899
      3 C3         -0.0785   -0.8244   -1.1375 C.2       1 <0>        -0.0195
      4 C4          0.8400   -1.7176   -0.6883 C.2       1 <0>         0.0923
      5 N1          0.6401   -1.8751    0.6457 N.pl3     1 <0>        -0.3601
      6 N2         -0.4278   -1.0502    1.0213 N.2       1 <0>        -0.2802
      7 C5          1.4084   -2.7495    1.5353 C.3       1 <0>         0.1582
      8 C6          2.0664   -1.9100    2.6322 C.3       1 <0>        -0.1621
      9 C7          0.4722   -3.7781    2.1728 C.3       1 <0>        -0.1621
     10 C8          1.8901   -2.4089   -1.5192 C.3       1 <0>        -0.0919
     11 N3         -0.2202   -0.3775   -2.4647 N.am      1 <0>        -0.6428
     12 C9          0.1328    0.8810   -2.7933 C.2       1 <0>         0.5147
     13 O1          0.6459    1.6030   -1.9645 O.2       1 <0>        -0.5193
     14 C10        -0.1099    1.3913   -4.1904 C.3       1 <0>         0.1270
     15 H1         -1.1764    1.3506   -4.4119 H         1 <0>         0.1172
     16 C11         0.6524    0.5203   -5.1910 C.3       1 <0>        -0.1610
     17 N4          0.3576    2.7759   -4.2927 N.am      1 <0>        -0.7140
     18 C12        -0.1735    3.5999   -5.2176 C.2       1 <0>         0.5250
     19 O2         -1.0384    3.1951   -5.9652 O.2       1 <0>        -0.5343
     20 C13         0.3075    5.0242   -5.3228 C.3       1 <0>        -0.1077
     21 C14         0.0476    5.7518   -4.0002 C.3       1 <0>        -0.1487
     22 C15         0.4666    7.2174   -4.1421 C.3       1 <0>         0.0621
     23 O3         -0.2541    7.8151   -5.2217 O.3       1 <0>        -0.3810
     24 C16        -0.0135    7.2059   -6.4918 C.3       1 <0>         0.0595
     25 C17        -0.4518    5.7399   -6.4443 C.3       1 <0>        -0.1360
     26 H2         -1.6101    1.5719   -0.0143 H         1 <0>         0.0787
     27 H3         -2.5443    0.4438   -1.0258 H         1 <0>         0.0729
     28 H4         -2.6769    0.3679    0.7476 H         1 <0>         0.0747
     29 H5          2.1783   -3.2655    0.9616 H         1 <0>         0.1019
     30 H6          2.7334   -1.1772    2.1780 H         1 <0>         0.0609
     31 H7          1.2965   -1.3940    3.2059 H         1 <0>         0.0721
     32 H8          2.6380   -2.5606    3.2941 H         1 <0>         0.0774
     33 H9          0.0034   -4.3762    1.3913 H         1 <0>         0.0606
     34 H10         1.0438   -4.4287    2.8346 H         1 <0>         0.0773
     35 H11        -0.2977   -3.2622    2.7465 H         1 <0>         0.0721
     36 H12         2.7988   -1.8071   -1.5306 H         1 <0>         0.0823
     37 H13         2.1074   -3.3869   -1.0897 H         1 <0>         0.0736
     38 H14         1.5236   -2.5329   -2.5382 H         1 <0>         0.0846
     39 H15        -0.5718   -0.9753   -3.1429 H         1 <0>         0.4059
     40 H16         1.7189    0.5610   -4.9695 H         1 <0>         0.0651
     41 H17         0.3046   -0.5099   -5.1149 H         1 <0>         0.0724
     42 H18         0.4769    0.8894   -6.2015 H         1 <0>         0.0768
     43 H19         1.0494    3.0996   -3.6947 H         1 <0>         0.4102
     44 H20         1.3752    5.0333   -5.5418 H         1 <0>         0.1003
     45 H21        -1.0137    5.6982   -3.7573 H         1 <0>         0.0792
     46 H22         0.6281    5.2823   -3.2060 H         1 <0>         0.0811
     47 H23         0.2442    7.7502   -3.2175 H         1 <0>         0.0992
     48 H24         1.5362    7.2717   -4.3449 H         1 <0>         0.0539
     49 H25        -0.5817    7.7305   -7.2600 H         1 <0>         0.0993
     50 H26         1.0498    7.2601   -6.7253 H         1 <0>         0.0521
     51 H27        -0.2284    5.2618   -7.3981 H         1 <0>         0.0816
     52 H28        -1.5231    5.6860   -6.2508 H         1 <0>         0.0817
@<TRIPOS>BOND
     1    1    2 1
     2    1   26 1
     3    1   27 1
     4    1   28 1
     5    2    6 2
     6    2    3 1
     7    3    4 2
     8    3   11 1
     9    4    5 1
    10    4   10 1
    11    5    6 1
    12    5    7 1
    13    7    8 1
    14    7    9 1
    15    7   29 1
    16    8   30 1
    17    8   31 1
    18    8   32 1
    19    9   33 1
    20    9   34 1
    21    9   35 1
    22   10   36 1
    23   10   37 1
    24   10   38 1
    25   11   12 am
    26   11   39 1
    27   12   13 2
    28   12   14 1
    29   14   15 1
    30   14   16 1
    31   14   17 1
    32   16   40 1
    33   16   41 1
    34   16   42 1
    35   17   18 am
    36   17   43 1
    37   18   19 2
    38   18   20 1
    39   20   25 1
    40   20   21 1
    41   20   44 1
    42   21   22 1
    43   21   45 1
    44   21   46 1
    45   22   23 1
    46   22   47 1
    47   22   48 1
    48   23   24 1
    49   24   25 1
    50   24   49 1
    51   24   50 1
    52   25   51 1
    53   25   52 1
@<TRIPOS>MOLECULE
ZINC00286904
   39    40     0     0     0
SMALL
USER_CHARGES
4-(2,6-dimethylmorpholin-4-yl)sulfonylbenzenesulfonamide
@<TRIPOS>ATOM
      1 C1         -0.0187    1.5258    0.0104 C.3       1 <0>        -0.1464
      2 C2          0.0021   -0.0041    0.0020 C.3       1 <0>         0.0734
      3 H1          0.5106   -0.3563   -0.8954 H         1 <0>         0.0713
      4 C3          0.7433   -0.5129    1.2436 C.3       1 <0>         0.0850
      5 N1          0.5879   -1.9747    1.3103 N.pl3     1 <0>        -0.9961
      6 C4         -0.7690   -2.5320    1.1941 C.3       1 <0>         0.0845
      7 C5         -1.4366   -1.9248   -0.0451 C.3       1 <0>         0.0802
      8 H2         -2.4862   -2.2174   -0.0735 H         1 <0>         0.1191
      9 O1         -1.3387   -0.4999    0.0181 O.3       1 <0>        -0.3665
     10 C6         -0.7309   -2.4301   -1.3051 C.3       1 <0>        -0.1900
     11 S1          1.9013   -2.9634    1.5097 S.o2      1 <0>         2.6847
     12 O2          1.5364   -4.2337    0.9877 O.2       1 <0>        -0.9419
     13 O3          3.0294   -2.2406    1.0361 O.2       1 <0>        -0.9435
     14 C7          2.1328   -3.1788    3.2431 C.ar      1 <0>        -0.6279
     15 C8          2.9457   -2.3088    3.9453 C.ar      1 <0>        -0.0416
     16 C9          3.1234   -2.4749    5.3061 C.ar      1 <0>        -0.0354
     17 C10         2.4963   -3.5172    5.9629 C.ar      1 <0>        -0.6293
     18 C11         1.6879   -4.3906    5.2597 C.ar      1 <0>        -0.0406
     19 C12         1.5060   -4.2213    3.8998 C.ar      1 <0>        -0.0413
     20 S2          2.7277   -3.7326    7.6963 S.o2      1 <0>         2.7001
     21 O4          3.0926   -2.4623    8.2183 O.2       1 <0>        -0.9538
     22 O5          1.5996   -4.4554    8.1699 O.2       1 <0>        -0.9511
     23 N2          4.0411   -4.7212    7.8957 N.pl3     1 <0>        -1.2450
     24 H3          1.0039    1.9031    0.0027 H         1 <0>         0.0761
     25 H4         -0.5459    1.8868   -0.8726 H         1 <0>         0.0703
     26 H5         -0.5289    1.8773    0.9072 H         1 <0>         0.0672
     27 H6          1.8008   -0.2592    1.1695 H         1 <0>         0.1045
     28 H7          0.3177   -0.0573    2.1377 H         1 <0>         0.0825
     29 H8         -0.7131   -3.6153    1.0873 H         1 <0>         0.1058
     30 H9         -1.3469   -2.2797    2.0832 H         1 <0>         0.0826
     31 H10        -0.8021   -3.5168   -1.3502 H         1 <0>         0.0748
     32 H11        -1.2061   -1.9980   -2.1857 H         1 <0>         0.0705
     33 H12         0.3182   -2.1355   -1.2768 H         1 <0>         0.0578
     34 H13         3.4389   -1.4969    3.4315 H         1 <0>         0.1524
     35 H14         3.7553   -1.7927    5.8554 H         1 <0>         0.1555
     36 H15         1.1982   -5.2051    5.7727 H         1 <0>         0.1556
     37 H16         0.8745   -4.9038    3.3504 H         1 <0>         0.1526
     38 H17         4.5990   -4.6334    8.6844 H         1 <0>         0.4252
     39 H18         4.2526   -5.3882    7.2239 H         1 <0>         0.4188
@<TRIPOS>BOND
     1    1    2 1
     2    1   24 1
     3    1   25 1
     4    1   26 1
     5    2    3 1
     6    2    9 1
     7    2    4 1
     8    4    5 1
     9    4   27 1
    10    4   28 1
    11    5    6 1
    12    5   11 1
    13    6    7 1
    14    6   29 1
    15    6   30 1
    16    7    8 1
    17    7    9 1
    18    7   10 1
    19   10   31 1
    20   10   32 1
    21   10   33 1
    22   11   12 2
    23   11   13 2
    24   11   14 1
    25   14   19 ar
    26   14   15 ar
    27   15   16 ar
    28   15   34 1
    29   16   17 ar
    30   16   35 1
    31   17   18 ar
    32   17   20 1
    33   18   19 ar
    34   18   36 1
    35   19   37 1
    36   20   21 2
    37   20   22 2
    38   20   23 1
    39   23   38 1
    40   23   39 1
@<TRIPOS>MOLECULE
ZINC41839253
   38    40     0     0     0
SMALL
USER_CHARGES

@<TRIPOS>ATOM
      1 C1         -0.0187    1.5258    0.0104 C.3       1 <0>        -0.1711
      2 C2          0.0021   -0.0041    0.0020 C.3       1 <0>         0.1996
      3 H1          0.5293   -0.3651    0.8851 H         1 <0>         0.0955
      4 C3         -1.4117   -0.5257    0.0127 C.ar      1 <0>        -0.1458
      5 C4         -1.9893   -0.9645    1.1946 C.ar      1 <0>        -0.0656
      6 C5         -3.2923   -1.4362    1.1569 C.ar      1 <0>        -0.1676
      7 C6         -3.9678   -1.4533   -0.0490 C.ar      1 <0>         0.1005
      8 N1         -3.3866   -1.0284   -1.1536 N.ar      1 <0>        -0.4795
      9 C7         -2.1509   -0.5674   -1.1540 C.ar      1 <0>         0.1095
     10 N2          0.6878   -0.4765   -1.2033 N.pl3     1 <0>        -1.1116
     11 S1          2.3004   -0.8489   -1.1463 S.o2      1 <0>         2.6965
     12 O1          2.6601   -1.2960   -2.4463 O.2       1 <0>        -0.9511
     13 O2          2.9475    0.2450   -0.5107 O.2       1 <0>        -0.9440
     14 C8          2.4778   -2.2331   -0.0707 C.ar      1 <0>        -0.6732
     15 C9          2.6798   -2.0330    1.2826 C.ar      1 <0>        -0.0119
     16 C10         2.8196   -3.1142    2.1338 C.ar      1 <0>        -0.1257
     17 C11         2.7568   -4.4014    1.6293 C.ar      1 <0>         0.1364
     18 C12         2.5535   -4.6031    0.2651 C.ar      1 <0>         0.0754
     19 C13         2.4088   -3.5163   -0.5814 C.ar      1 <0>        -0.0208
     20 N3          2.4944   -5.9123   -0.2334 N.am      1 <0>        -0.6605
     21 C14         2.3189   -6.9348    0.6318 C.2       1 <0>         0.4902
     22 O3          2.2962   -8.0779    0.2270 O.2       1 <0>        -0.4993
     23 C15         2.1518   -6.6492    2.1026 C.3       1 <0>         0.0490
     24 O4          2.8913   -5.4761    2.4516 O.3       1 <0>        -0.2959
     25 H2          1.0039    1.9031    0.0027 H         1 <0>         0.0812
     26 H3         -0.5459    1.8868   -0.8726 H         1 <0>         0.0670
     27 H4         -0.5289    1.8773    0.9072 H         1 <0>         0.0724
     28 H5         -1.4369   -0.9398    2.1223 H         1 <0>         0.1379
     29 H6         -3.7735   -1.7862    2.0582 H         1 <0>         0.1386
     30 H7         -4.9832   -1.8192   -0.0869 H         1 <0>         0.1580
     31 H8         -1.7100   -0.2230   -2.0778 H         1 <0>         0.1537
     32 H9          0.1972   -0.5713   -2.0347 H         1 <0>         0.4205
     33 H10         2.7290   -1.0286    1.6764 H         1 <0>         0.1547
     34 H11         2.9770   -2.9543    3.1902 H         1 <0>         0.1537
     35 H12         2.2464   -3.6706   -1.6379 H         1 <0>         0.1519
     36 H13         2.5780   -6.0812   -1.1849 H         1 <0>         0.4211
     37 H14         1.0962   -6.4919    2.3241 H         1 <0>         0.1067
     38 H15         2.5210   -7.4962    2.6809 H         1 <0>         0.1534
@<TRIPOS>BOND
     1    1    2 1
     2    1   25 1
     3    1   26 1
     4    1   27 1
     5    2    3 1
     6    2    4 1
     7    2   10 1
     8    4    9 ar
     9    4    5 ar
    10    5    6 ar
    11    5   28 1
    12    6    7 ar
    13    6   29 1
    14    7    8 ar
    15    7   30 1
    16    8    9 ar
    17    9   31 1
    18   10   11 1
    19   10   32 1
    20   11   12 2
    21   11   13 2
    22   11   14 1
    23   14   19 ar
    24   14   15 ar
    25   15   16 ar
    26   15   33 1
    27   16   17 ar
    28   16   34 1
    29   17   24 1
    30   17   18 ar
    31   18   19 ar
    32   18   20 1
    33   19   35 1
    34   20   21 am
    35   20   36 1
    36   21   22 2
    37   21   23 1
    38   23   24 1
    39   23   37 1
    40   23   38 1
@<TRIPOS>MOLECULE
ZINC50164764
   40    42     0     0     0
SMALL
USER_CHARGES

@<TRIPOS>ATOM
      1 C1          0.0009    1.4477    0.0386 C.3       1 <0>         0.0968
      2 N1          0.0158   -0.0172    0.0304 N.am      1 <0>        -0.5411
      3 C2         -1.1063   -0.8447    0.0228 C.ar      1 <0>         0.0817
      4 C3         -2.4708   -0.5955    0.0212 C.ar      1 <0>        -0.0825
      5 C4         -3.3633   -1.6479    0.0136 C.ar      1 <0>        -0.1235
      6 C5         -2.8991   -2.9592    0.0075 C.ar      1 <0>         0.1449
      7 C6         -1.5354   -3.2151    0.0095 C.ar      1 <0>        -0.1042
      8 C7         -0.6369   -2.1601    0.0167 C.ar      1 <0>         0.1091
      9 N2          0.7544   -2.0911    0.0208 N.am      1 <0>        -0.5398
     10 C8          1.1153   -0.7941    0.0231 C.2       1 <0>         0.6790
     11 O1          2.2617   -0.3858    0.0219 O.2       1 <0>        -0.5522
     12 C9          1.6693   -3.2353    0.0168 C.3       1 <0>         0.0994
     13 N3         -3.8086   -4.0215   -0.0002 N.am      1 <0>        -0.6389
     14 C10        -3.5201   -5.1507   -0.6771 C.2       1 <0>         0.5090
     15 O2         -2.4371   -5.2789   -1.2101 O.2       1 <0>        -0.4978
     16 C11        -4.5328   -6.2441   -0.7713 C.2       1 <0>         0.5106
     17 O3         -5.6156   -6.1159   -0.2384 O.2       1 <0>        -0.5136
     18 N4         -4.2443   -7.3733   -1.4482 N.am      1 <0>        -0.6929
     19 C12        -5.2378   -8.4459   -1.5407 C.3       1 <0>         0.1762
     20 C13        -4.6710   -9.5877   -2.3446 C.2       1 <0>        -0.1519
     21 C14        -4.8357   -9.6294   -3.7164 C.2       1 <0>        -0.1494
     22 C15        -4.3135  -10.6705   -4.4098 C.2       1 <0>        -0.1688
     23 S1         -3.5600  -11.6376   -3.1120 S.3       1 <0>         0.0540
     24 C16        -3.9872  -10.5861   -1.7340 C.2       1 <0>        -0.1496
     25 H1          1.0248    1.8214    0.0383 H         1 <0>         0.0951
     26 H2         -0.5186    1.8107   -0.8482 H         1 <0>         0.0753
     27 H3         -0.5146    1.8008    0.9317 H         1 <0>         0.0757
     28 H4         -2.8344    0.4215    0.0263 H         1 <0>         0.1389
     29 H5         -4.4256   -1.4529    0.0127 H         1 <0>         0.1416
     30 H6         -1.1753   -4.2333    0.0055 H         1 <0>         0.1479
     31 H7          1.8989   -3.5133   -1.0118 H         1 <0>         0.0716
     32 H8          2.5899   -2.9662    0.5346 H         1 <0>         0.0888
     33 H9          1.1997   -4.0777    0.5247 H         1 <0>         0.0840
     34 H10        -4.6470   -3.9456    0.4817 H         1 <0>         0.4266
     35 H11        -3.3789   -7.4757   -1.8742 H         1 <0>         0.4154
     36 H12        -5.4888   -8.7960   -0.5394 H         1 <0>         0.0852
     37 H13        -6.1359   -8.0682   -2.0293 H         1 <0>         0.0845
     38 H14        -5.3729   -8.8445   -4.2280 H         1 <0>         0.1370
     39 H15        -4.3453  -10.8647   -5.4717 H         1 <0>         0.1887
     40 H16        -3.7606  -10.7131   -0.6857 H         1 <0>         0.1893
@<TRIPOS>BOND
     1    1    2 1
     2    1   25 1
     3    1   26 1
     4    1   27 1
     5    2   10 am
     6    2    3 1
     7    3    8 ar
     8    3    4 ar
     9    4    5 ar
    10    4   28 1
    11    5    6 ar
    12    5   29 1
    13    6    7 ar
    14    6   13 1
    15    7    8 ar
    16    7   30 1
    17    8    9 1
    18    9   10 am
    19    9   12 1
    20   10   11 2
    21   12   31 1
    22   12   32 1
    23   12   33 1
    24   13   14 am
    25   13   34 1
    26   14   15 2
    27   14   16 1
    28   16   17 2
    29   16   18 am
    30   18   19 1
    31   18   35 1
    32   19   20 1
    33   19   36 1
    34   19   37 1
    35   20   24 2
    36   20   21 1
    37   21   22 2
    38   21   38 1
    39   22   23 1
    40   22   39 1
    41   23   24 1
    42   24   40 1
@<TRIPOS>MOLECULE
ZINC65616287
   37    38     0     0     0
SMALL
USER_CHARGES

@<TRIPOS>ATOM
      1 C1         -0.0184    1.5028    0.0103 C.3       1 <0>        -0.0774
      2 C2          0.0021   -0.0041    0.0020 C.2       1 <0>        -0.0031
      3 C3         -1.0783   -0.8055    0.0027 C.2       1 <0>        -0.2073
      4 C4         -0.6011   -2.1363   -0.0068 C.2       1 <0>        -0.1942
      5 C5          0.7423   -2.0686   -0.0126 C.2       1 <0>         0.0068
      6 O1          1.1020   -0.7746   -0.0131 O.3       1 <0>        -0.1691
      7 C6          1.6840   -3.2450   -0.0226 C.3       1 <0>        -0.0799
      8 C7         -1.4371   -3.3901   -0.0093 C.3       1 <0>         0.2180
      9 C8         -1.5182   -3.9462   -1.4323 C.3       1 <0>        -0.1613
     10 N1         -2.7857   -3.0788    0.4709 N.am      1 <0>        -0.6833
     11 C9         -3.5417   -4.0445    1.0297 C.2       1 <0>         0.5224
     12 O2         -3.1053   -5.1721    1.1351 O.2       1 <0>        -0.5080
     13 C10        -4.9163   -3.7272    1.5192 C.2       1 <0>         0.5064
     14 O3         -5.3528   -2.5995    1.4137 O.2       1 <0>        -0.4348
     15 N2         -5.6723   -4.6930    2.0780 N.am      1 <0>        -0.5867
     16 C11        -6.9503   -4.3979    2.5330 C.2       1 <0>         0.2967
     17 N3         -7.6200   -3.2533    2.5135 N.2       1 <0>        -0.2794
     18 N4         -8.7896   -3.1591    2.9758 N.2       1 <0>        -0.2029
     19 C12        -9.4198   -4.1887    3.5065 C.2       1 <0>        -0.0494
     20 S1         -8.1701   -5.4555    3.3075 S.3       1 <0>         0.0744
     21 C13       -10.8004   -4.2759    4.1043 C.3       1 <0>         0.3855
     22 F1        -11.6396   -3.3487    3.4771 F         1 <0>        -0.1715
     23 F2        -11.3088   -5.5658    3.9177 F         1 <0>        -0.1819
     24 H1          1.0042    1.8801    0.0026 H         1 <0>         0.0772
     25 H2         -0.5455    1.8639   -0.8728 H         1 <0>         0.0877
     26 H3         -0.5286    1.8543    0.9071 H         1 <0>         0.0877
     27 H4         -2.1119   -0.4924    0.0097 H         1 <0>         0.1481
     28 H5          1.9064   -3.5237   -1.0527 H         1 <0>         0.0856
     29 H6          2.6082   -2.9750    0.4883 H         1 <0>         0.0801
     30 H7          1.2186   -4.0873    0.4893 H         1 <0>         0.0902
     31 H8         -0.9807   -4.1325    0.6454 H         1 <0>         0.1037
     32 H9         -0.5148   -4.1778   -1.7896 H         1 <0>         0.0746
     33 H10        -2.1229   -4.8531   -1.4342 H         1 <0>         0.0677
     34 H11        -1.9746   -3.2038   -2.0871 H         1 <0>         0.0639
     35 H12        -3.1346   -2.1776    0.3867 H         1 <0>         0.4157
     36 H13        -5.3234   -5.5941    2.1622 H         1 <0>         0.4445
     37 H14       -10.7491   -4.0563    5.1707 H         1 <0>         0.1535
@<TRIPOS>BOND
     1    1    2 1
     2    1   24 1
     3    1   25 1
     4    1   26 1
     5    2    6 1
     6    2    3 2
     7    3    4 1
     8    3   27 1
     9    4    5 2
    10    4    8 1
    11    5    6 1
    12    5    7 1
    13    7   28 1
    14    7   29 1
    15    7   30 1
    16    8    9 1
    17    8   10 1
    18    8   31 1
    19    9   32 1
    20    9   33 1
    21    9   34 1
    22   10   11 am
    23   10   35 1
    24   11   12 2
    25   11   13 1
    26   13   14 2
    27   13   15 am
    28   15   16 1
    29   15   36 1
    30   16   20 1
    31   16   17 2
    32   17   18 1
    33   18   19 2
    34   19   20 1
    35   19   21 1
    36   21   22 1
    37   21   23 1
    38   21   37 1
@<TRIPOS>MOLECULE
ZINC66798005
   46    48     0     0     0
SMALL
USER_CHARGES

@<TRIPOS>ATOM
      1 C1          0.1397   -0.7751    1.2857 C.3       1 <0>        -0.1793
      2 C2          0.0852   -0.0146   -0.0142 C.2       1 <0>         0.5142
      3 O1         -0.0183    1.1937   -0.0059 O.2       1 <0>        -0.5390
      4 N1          0.1515   -0.6773   -1.1859 N.am      1 <0>        -0.6148
      5 C3          0.2250    0.0555   -2.4573 C.3       1 <0>         0.1059
      6 C4         -0.8919   -0.4435   -3.3793 C.3       1 <0>        -0.1346
      7 C5         -0.7882   -1.9636   -3.5231 C.3       1 <0>        -0.1012
      8 C6         -0.9641   -2.6206   -2.1522 C.3       1 <0>        -0.1212
      9 H1         -1.9316   -2.3404   -1.7358 H         1 <0>         0.1087
     10 C7          0.1577   -2.1463   -1.2158 C.3       1 <0>         0.1159
     11 C8         -0.8949   -4.1188   -2.2997 C.2       1 <0>         0.5211
     12 O2         -0.7219   -4.6131   -3.3938 O.2       1 <0>        -0.5104
     13 N2         -1.0251   -4.9094   -1.2160 N.am      1 <0>        -0.6637
     14 C9         -0.8423   -6.2936   -1.3327 C.ar      1 <0>         0.0637
     15 C10        -0.0348   -6.8162   -2.3416 C.ar      1 <0>        -0.0552
     16 C11         0.1175   -8.1885   -2.4186 C.ar      1 <0>        -0.1831
     17 C12        -0.5351   -8.9959   -1.4938 C.ar      1 <0>         0.3437
     18 N3         -1.2942   -8.4652   -0.5488 N.ar      1 <0>        -0.4566
     19 C13        -1.4579   -7.1606   -0.4422 C.ar      1 <0>         0.1109
     20 N4         -0.3882  -10.3819   -1.5632 N.am      1 <0>        -0.6588
     21 C14        -1.0971  -11.1769   -0.7373 C.2       1 <0>         0.5343
     22 O3         -1.9298  -10.6952    0.0013 O.2       1 <0>        -0.4716
     23 C15        -0.8550  -12.6643   -0.7317 C.3       1 <0>        -0.1988
     24 C16        -1.9672  -13.5632   -1.2759 C.3       1 <0>        -0.1517
     25 C17        -1.6916  -13.5126    0.2283 C.3       1 <0>        -0.1441
     26 H2         -0.8742   -0.9736    1.6333 H         1 <0>         0.0966
     27 H3          0.6627   -1.7192    1.1327 H         1 <0>         0.0814
     28 H4          0.6700   -0.1827    2.0313 H         1 <0>         0.0970
     29 H5          0.0969    1.1220   -2.2722 H         1 <0>         0.0966
     30 H6          1.1928   -0.1225   -2.9261 H         1 <0>         0.0708
     31 H7         -1.8602   -0.1838   -2.9515 H         1 <0>         0.0696
     32 H8         -0.7900    0.0224   -4.3594 H         1 <0>         0.0839
     33 H9         -1.5669   -2.3185   -4.1984 H         1 <0>         0.0782
     34 H10         0.1897   -2.2242   -3.9280 H         1 <0>         0.0755
     35 H11         1.1201   -2.5001   -1.5856 H         1 <0>         0.0795
     36 H12        -0.0148   -2.5329   -0.2115 H         1 <0>         0.0940
     37 H13        -1.2455   -4.5201   -0.3553 H         1 <0>         0.4134
     38 H14         0.4599   -6.1647   -3.0467 H         1 <0>         0.1572
     39 H15         0.7355   -8.6277   -3.1878 H         1 <0>         0.1412
     40 H16        -2.0818   -6.7634    0.3448 H         1 <0>         0.1613
     41 H17         0.2241  -10.7732   -2.2058 H         1 <0>         0.4191
     42 H18         0.1749  -12.9737   -0.9096 H         1 <0>         0.1271
     43 H19        -2.8739  -13.0786   -1.6380 H         1 <0>         0.1004
     44 H20        -1.6690  -14.4641   -1.8121 H         1 <0>         0.1074
     45 H21        -1.2122  -14.3802    0.6816 H         1 <0>         0.1062
     46 H22        -2.4171  -12.9948    0.8557 H         1 <0>         0.1096
@<TRIPOS>BOND
     1    1    2 1
     2    1   26 1
     3    1   27 1
     4    1   28 1
     5    2    3 2
     6    2    4 am
     7    4   10 1
     8    4    5 1
     9    5    6 1
    10    5   29 1
    11    5   30 1
    12    6    7 1
    13    6   31 1
    14    6   32 1
    15    7    8 1
    16    7   33 1
    17    7   34 1
    18    8    9 1
    19    8   10 1
    20    8   11 1
    21   10   35 1
    22   10   36 1
    23   11   12 2
    24   11   13 am
    25   13   14 1
    26   13   37 1
    27   14   19 ar
    28   14   15 ar
    29   15   16 ar
    30   15   38 1
    31   16   17 ar
    32   16   39 1
    33   17   18 ar
    34   17   20 1
    35   18   19 ar
    36   19   40 1
    37   20   21 am
    38   20   41 1
    39   21   22 2
    40   21   23 1
    41   23   25 1
    42   23   24 1
    43   23   42 1
    44   24   25 1
    45   24   43 1
    46   24   44 1
    47   25   45 1
    48   25   46 1
@<TRIPOS>MOLECULE
ZINC09344787
   49    51     0     0     0
SMALL
USER_CHARGES
(5E)-5-[[[3-[5-(hydroxymethyl)-2-furyl]phenyl]amino]methylene]-1-sec-butyl-2-thioxo-hexahydropyrimidine-4,6-dione
@<TRIPOS>ATOM
      1 C1         -5.0291   -4.5802    2.9214 C.3       1 <0>        -0.1523
      2 C2         -4.1389   -4.9810    1.7433 C.3       1 <0>        -0.1377
      3 C3         -4.8184   -4.5820    0.4318 C.3       1 <0>         0.1063
      4 H1         -5.8053   -5.0416    0.3795 H         1 <0>         0.1493
      5 C4         -3.9699   -5.0601   -0.7482 C.3       1 <0>        -0.1670
      6 N1         -4.9549   -3.1245    0.3763 N.am      1 <0>        -0.5025
      7 C5         -3.8474   -2.3563    0.4318 C.2       1 <0>         0.5807
      8 O1         -2.7430   -2.8581    0.5266 O.2       1 <0>        -0.4812
      9 C6         -4.0113   -0.8926    0.3741 C.2       1 <0>        -0.4177
     10 C7         -2.9227   -0.0421    0.4262 C.2       1 <0>         0.3337
     11 N2         -3.1117    1.2924    0.4959 N.pl3     1 <0>        -0.5946
     12 C8         -2.0164    2.1460    0.6562 C.ar      1 <0>         0.1300
     13 C9         -0.7322    1.6202    0.7437 C.ar      1 <0>        -0.1497
     14 C10         0.3544    2.4603    0.8969 C.ar      1 <0>        -0.0755
     15 C11         0.1717    3.8265    0.9698 C.ar      1 <0>        -0.1080
     16 C12        -1.1142    4.3641    0.8888 C.ar      1 <0>         0.0223
     17 C13        -2.2111    3.5164    0.7337 C.ar      1 <0>        -0.1235
     18 C14        -1.3128    5.8266    0.9675 C.2       1 <0>         0.0230
     19 C15        -0.3337    6.7576    1.1179 C.2       1 <0>        -0.1783
     20 C16        -0.9696    8.0150    1.1435 C.2       1 <0>        -0.1825
     21 C17        -2.2915    7.7915    1.0088 C.2       1 <0>        -0.0059
     22 O2         -2.4946    6.4687    0.8969 O.3       1 <0>        -0.1630
     23 C18        -3.3633    8.8505    0.9817 C.3       1 <0>         0.1555
     24 O3         -3.5807    9.2738   -0.3657 O.3       1 <0>        -0.5662
     25 C19        -5.3872   -0.3752    0.2647 C.2       1 <0>         0.5723
     26 O4         -5.6029    0.8212    0.2166 O.2       1 <0>        -0.5099
     27 N3         -6.4004   -1.2644    0.2140 N.am      1 <0>        -0.6153
     28 C20        -6.1774   -2.5848    0.2719 C.2       1 <0>         0.5440
     29 S1         -7.5256   -3.6381    0.2085 S.2       1 <0>        -0.5239
     30 H2         -4.5450   -4.8645    3.8557 H         1 <0>         0.0593
     31 H3         -5.1867   -3.5018    2.9073 H         1 <0>         0.0400
     32 H4         -5.9897   -5.0889    2.8405 H         1 <0>         0.0654
     33 H5         -3.9813   -6.0595    1.7574 H         1 <0>         0.0879
     34 H6         -3.1783   -4.4724    1.8242 H         1 <0>         0.0844
     35 H7         -4.4841   -4.8314   -1.6817 H         1 <0>         0.0605
     36 H8         -3.0052   -4.5530   -0.7311 H         1 <0>         0.0769
     37 H9         -3.8160   -6.1365   -0.6725 H         1 <0>         0.0824
     38 H10        -1.9210   -0.4455    0.4110 H         1 <0>         0.1872
     39 H11        -4.0076    1.6592    0.4349 H         1 <0>         0.4338
     40 H12        -0.5829    0.5521    0.6873 H         1 <0>         0.1375
     41 H13         1.3500    2.0464    0.9601 H         1 <0>         0.1439
     42 H14         1.0234    4.4796    1.0899 H         1 <0>         0.1384
     43 H15        -3.2081    3.9265    0.6700 H         1 <0>         0.1385
     44 H16         0.7266    6.5699    1.2020 H         1 <0>         0.1570
     45 H17        -0.4884    8.9760    1.2502 H         1 <0>         0.1563
     46 H18        -4.2885    8.4415    1.3878 H         1 <0>         0.0672
     47 H19        -3.0476    9.7025    1.5838 H         1 <0>         0.0850
     48 H20        -4.2595    9.9562   -0.4590 H         1 <0>         0.3906
     49 H21        -7.3116   -0.9406    0.1384 H         1 <0>         0.4455
@<TRIPOS>BOND
     1    1    2 1
     2    1   30 1
     3    1   31 1
     4    1   32 1
     5    2    3 1
     6    2   33 1
     7    2   34 1
     8    3    4 1
     9    3    5 1
    10    3    6 1
    11    5   35 1
    12    5   36 1
    13    5   37 1
    14    6   28 1
    15    6    7 am
    16    7    8 2
    17    7    9 1
    18    9   10 2
    19    9   25 1
    20   10   11 1
    21   10   38 1
    22   11   12 1
    23   11   39 1
    24   12   17 ar
    25   12   13 ar
    26   13   14 ar
    27   13   40 1
    28   14   15 ar
    29   14   41 1
    30   15   16 ar
    31   15   42 1
    32   16   17 ar
    33   16   18 1
    34   17   43 1
    35   18   22 1
    36   18   19 2
    37   19   20 1
    38   19   44 1
    39   20   21 2
    40   20   45 1
    41   21   22 1
    42   21   23 1
    43   23   24 1
    44   23   46 1
    45   23   47 1
    46   24   48 1
    47   25   26 2
    48   25   27 am
    49   27   28 1
    50   27   49 1
    51   28   29 2
@<TRIPOS>MOLECULE
ZINC36356955
   41    42     0     0     0
SMALL
USER_CHARGES

@<TRIPOS>ATOM
      1 C1         -0.0013    1.5391    0.0030 C.3       1 <0>        -0.1641
      2 C2          0.0105    0.0091    0.0019 C.3       1 <0>         0.1483
      3 H1         -1.0143   -0.3621    0.0145 H         1 <0>         0.1232
      4 C3          0.7092   -0.4870   -1.2377 C.2       1 <0>         0.5165
      5 O1          1.7020   -1.1767   -1.1393 O.2       1 <0>        -0.5073
      6 N1          0.2309   -0.1642   -2.4557 N.am      1 <0>        -0.6616
      7 C4          0.9428   -0.5263   -3.6059 C.ar      1 <0>         0.1645
      8 C5          2.3141   -0.7331   -3.5389 C.ar      1 <0>        -0.1076
      9 C6          3.0140   -1.0902   -4.6747 C.ar      1 <0>        -0.0807
     10 C7          2.3502   -1.2416   -5.8796 C.ar      1 <0>        -0.0422
     11 C8          0.9837   -1.0363   -5.9502 C.ar      1 <0>        -0.0788
     12 C9          0.2772   -0.6848   -4.8153 C.ar      1 <0>        -0.0589
     13 Cl1        -1.4384   -0.4342   -4.9024 Cl        1 <0>        -0.0485
     14 Cl2         3.2338   -1.6894   -7.3053 Cl        1 <0>        -0.0531
     15 N2          0.7198   -0.4746    1.1890 N.am      1 <0>        -0.7287
     16 C10         0.0630   -0.6092    2.3582 C.2       1 <0>         0.7115
     17 O2         -1.1181   -0.3292    2.4278 O.2       1 <0>        -0.5828
     18 N3          0.7156   -1.0542    3.4502 N.am      1 <0>        -0.7330
     19 C11         0.0017   -1.2005    4.7212 C.3       1 <0>         0.1665
     20 H2         -0.7509   -0.4166    4.8057 H         1 <0>         0.1149
     21 C12        -0.6859   -2.5752    4.7652 C.3       1 <0>        -0.1472
     22 C13        -1.1631   -2.8317    6.2232 C.3       1 <0>        -0.5693
     23 S1          0.2779   -2.1805    7.1690 S.o2      1 <0>         2.3787
     24 O3          1.1813   -3.2465    7.4273 O.2       1 <0>        -0.9296
     25 O4         -0.1976   -1.3896    8.2495 O.2       1 <0>        -0.9308
     26 C14         1.0064   -1.0767    5.8920 C.3       1 <0>        -0.6001
     27 H3          1.0234    1.9103   -0.0097 H         1 <0>         0.0674
     28 H4         -0.5291    1.8990   -0.8802 H         1 <0>         0.0740
     29 H5         -0.5067    1.8979    0.8996 H         1 <0>         0.0828
     30 H6         -0.6064    0.3189   -2.5356 H         1 <0>         0.4185
     31 H7          2.8331   -0.6146   -2.5992 H         1 <0>         0.1638
     32 H8          4.0807   -1.2511   -4.6226 H         1 <0>         0.1460
     33 H9          0.4681   -1.1547   -6.8917 H         1 <0>         0.1503
     34 H10         1.6620   -0.6980    1.1334 H         1 <0>         0.4083
     35 H11         1.6579   -1.2776    3.3947 H         1 <0>         0.4035
     36 H12        -1.5425   -2.5801    4.0912 H         1 <0>         0.1083
     37 H13         0.0207   -3.3500    4.4674 H         1 <0>         0.0920
     38 H14        -2.0686   -2.2675    6.4465 H         1 <0>         0.1436
     39 H15        -1.3082   -3.8958    6.4091 H         1 <0>         0.1455
     40 H16         1.9934   -1.4297    5.5933 H         1 <0>         0.1459
     41 H17         1.0549   -0.0492    6.2526 H         1 <0>         0.1501
@<TRIPOS>BOND
     1    1    2 1
     2    1   27 1
     3    1   28 1
     4    1   29 1
     5    2    3 1
     6    2    4 1
     7    2   15 1
     8    4    5 2
     9    4    6 am
    10    6    7 1
    11    6   30 1
    12    7   12 ar
    13    7    8 ar
    14    8    9 ar
    15    8   31 1
    16    9   10 ar
    17    9   32 1
    18   10   11 ar
    19   10   14 1
    20   11   12 ar
    21   11   33 1
    22   12   13 1
    23   15   16 am
    24   15   34 1
    25   16   17 2
    26   16   18 am
    27   18   19 1
    28   18   35 1
    29   19   20 1
    30   19   26 1
    31   19   21 1
    32   21   22 1
    33   21   36 1
    34   21   37 1
    35   22   23 1
    36   22   38 1
    37   22   39 1
    38   23   24 2
    39   23   25 2
    40   23   26 1
    41   26   40 1
    42   26   41 1
@<TRIPOS>MOLECULE
ZINC48691832
   46    48     0     0     0
SMALL
USER_CHARGES

@<TRIPOS>ATOM
      1 C1         -0.0200    1.5022    0.0035 C.3       1 <0>        -0.1202
      2 C2          0.0008   -0.0046    0.0003 C.ar      1 <0>        -0.0718
      3 C3         -0.0045   -0.6934   -1.1983 C.ar      1 <0>        -0.1228
      4 C4          0.0145   -2.0756   -1.2012 C.ar      1 <0>        -0.0927
      5 C5          0.0393   -2.7690   -0.0056 C.ar      1 <0>        -0.1245
      6 C6          0.0455   -2.0802    1.1929 C.ar      1 <0>        -0.0926
      7 C7          0.0308   -0.6980    1.1958 C.ar      1 <0>        -0.1228
      8 C8          0.0590   -4.2759   -0.0088 C.3       1 <0>         0.1612
      9 N1          1.4464   -4.7461   -0.0279 N.am      1 <0>        -0.6917
     10 C9          1.7099   -6.0678   -0.0339 C.2       1 <0>         0.5107
     11 O1          0.7980   -6.8684   -0.0235 O.2       1 <0>        -0.5130
     12 C10         3.1244   -6.5472   -0.0534 C.2       1 <0>         0.5099
     13 O2          4.0364   -5.7465   -0.0639 O.2       1 <0>        -0.4906
     14 N2          3.3880   -7.8689   -0.0595 N.am      1 <0>        -0.6449
     15 C11         4.7019   -8.3164   -0.1743 C.ar      1 <0>         0.1707
     16 C12         5.7345   -7.5991    0.4225 C.ar      1 <0>        -0.1258
     17 C13         7.0342   -8.0387    0.3108 C.ar      1 <0>        -0.0317
     18 C14         7.3162   -9.2072   -0.4024 C.ar      1 <0>        -0.1476
     19 C15         6.2768   -9.9256   -1.0002 C.ar      1 <0>        -0.0650
     20 C16         4.9788   -9.4832   -0.8808 C.ar      1 <0>        -0.1432
     21 C17         8.7083   -9.6811   -0.5245 C.2       1 <0>         0.5572
     22 O3          9.6115   -9.0550   -0.0043 O.2       1 <0>        -0.4631
     23 N3          8.9786  -10.8080   -1.2126 N.am      1 <0>        -0.6204
     24 C18        10.2889  -11.2541   -1.3275 C.2       1 <0>         0.2724
     25 N4         11.3823  -10.7157   -0.8319 N.2       1 <0>        -0.5220
     26 C19        12.5652  -11.2667   -1.0320 C.2       1 <0>         0.0633
     27 C20        12.5982  -12.4052   -1.7672 C.2       1 <0>        -0.2433
     28 S1         10.8628  -12.6186   -2.1285 S.3       1 <0>         0.1080
     29 H1          1.0025    1.8797   -0.0133 H         1 <0>         0.0739
     30 H2         -0.5539    1.8601   -0.8768 H         1 <0>         0.0688
     31 H3         -0.5234    1.8568    0.9029 H         1 <0>         0.0688
     32 H4         -0.0239   -0.1516   -2.1323 H         1 <0>         0.1257
     33 H5          0.0097   -2.6137   -2.1376 H         1 <0>         0.1252
     34 H6          0.0645   -2.6220    2.1270 H         1 <0>         0.1254
     35 H7          0.0394   -0.1598    2.1321 H         1 <0>         0.1258
     36 H8         -0.4383   -4.6477    0.8871 H         1 <0>         0.0852
     37 H9         -0.4617   -4.6442   -0.8927 H         1 <0>         0.0850
     38 H10         2.1753   -4.1061   -0.0362 H         1 <0>         0.4160
     39 H11         2.6627   -8.5084    0.0162 H         1 <0>         0.4271
     40 H12         5.5159   -6.6963    0.9735 H         1 <0>         0.1497
     41 H13         7.8351   -7.4813    0.7736 H         1 <0>         0.1452
     42 H14         6.4915  -10.8288   -1.5520 H         1 <0>         0.1324
     43 H15         4.1748  -10.0399   -1.3393 H         1 <0>         0.1399
     44 H16         8.2580  -11.3075   -1.6276 H         1 <0>         0.4246
     45 H17        13.4665  -10.8297   -0.6282 H         1 <0>         0.1771
     46 H18        13.4414  -13.0168   -2.0524 H         1 <0>         0.2003
@<TRIPOS>BOND
     1    1    2 1
     2    1   29 1
     3    1   30 1
     4    1   31 1
     5    2    7 ar
     6    2    3 ar
     7    3    4 ar
     8    3   32 1
     9    4    5 ar
    10    4   33 1
    11    5    6 ar
    12    5    8 1
    13    6    7 ar
    14    6   34 1
    15    7   35 1
    16    8    9 1
    17    8   36 1
    18    8   37 1
    19    9   10 am
    20    9   38 1
    21   10   11 2
    22   10   12 1
    23   12   13 2
    24   12   14 am
    25   14   15 1
    26   14   39 1
    27   15   20 ar
    28   15   16 ar
    29   16   17 ar
    30   16   40 1
    31   17   18 ar
    32   17   41 1
    33   18   19 ar
    34   18   21 1
    35   19   20 ar
    36   19   42 1
    37   20   43 1
    38   21   22 2
    39   21   23 am
    40   23   24 1
    41   23   44 1
    42   24   28 1
    43   24   25 2
    44   25   26 1
    45   26   27 2
    46   26   45 1
    47   27   28 1
    48   27   46 1
@<TRIPOS>MOLECULE
ZINC60409690
   38    40     0     0     0
SMALL
USER_CHARGES

@<TRIPOS>ATOM
      1 C1         -0.0172    1.3846    0.0375 C.ar      1 <0>        -0.0976
      2 C2          1.1699    2.0904    0.0324 C.ar      1 <0>        -0.0858
      3 C3          2.3777    1.4150    0.0091 C.ar      1 <0>        -0.0387
      4 C4          2.3991    0.0314   -0.0087 C.ar      1 <0>        -0.0820
      5 C5          1.2147   -0.6788   -0.0037 C.ar      1 <0>        -0.1217
      6 C6          0.0017   -0.0036    0.0197 C.ar      1 <0>         0.1494
      7 N1         -1.2018   -0.7222    0.0253 N.pl3     1 <0>        -0.3065
      8 C7         -1.3175   -2.0625    0.0150 C.2       1 <0>         0.1420
      9 C8         -2.6658   -2.3602    0.0256 C.2       1 <0>        -0.2890
     10 C9         -3.3644   -1.1317    0.0427 C.2       1 <0>         0.0944
     11 N2         -2.4860   -0.1668    0.0485 N.2       1 <0>        -0.2808
     12 C10        -3.2645   -3.7070    0.0195 C.2       1 <0>         0.6025
     13 O1         -2.5492   -4.6904    0.0039 O.2       1 <0>        -0.5198
     14 N3         -4.6048   -3.8487    0.0314 N.am      1 <0>        -0.6687
     15 C11        -5.1743   -5.1220   -0.0718 C.ar      1 <0>         0.1608
     16 C12        -6.3651   -5.2973   -0.7644 C.ar      1 <0>        -0.1233
     17 C13        -6.9254   -6.5578   -0.8644 C.ar      1 <0>         0.1053
     18 C14        -6.2992   -7.6436   -0.2744 C.ar      1 <0>        -0.0679
     19 C15        -5.1138   -7.4701    0.4152 C.ar      1 <0>        -0.6315
     20 C16        -4.5469   -6.2142    0.5133 C.ar      1 <0>        -0.0314
     21 S1         -4.3213   -8.8540    1.1645 S.o2      1 <0>         2.7053
     22 O2         -3.5119   -8.3397    2.2131 O.2       1 <0>        -0.9536
     23 O3         -5.3315   -9.8277    1.3894 O.2       1 <0>        -0.9569
     24 N4         -3.2883   -9.4947    0.0399 N.pl3     1 <0>        -1.2469
     25 F1         -8.0841   -6.7303   -1.5374 F         1 <0>        -0.1264
     26 Cl1         3.8682    2.3050    0.0016 Cl        1 <0>        -0.0545
     27 H1         -0.9594    1.9120    0.0599 H         1 <0>         0.1505
     28 H2          1.1558    3.1702    0.0463 H         1 <0>         0.1472
     29 H3          3.3429   -0.4934   -0.0269 H         1 <0>         0.1486
     30 H4          1.2319   -1.7586   -0.0183 H         1 <0>         0.1438
     31 H5         -0.5055   -2.7745    0.0009 H         1 <0>         0.1972
     32 H6         -4.4377   -1.0124    0.0541 H         1 <0>         0.1991
     33 H7         -5.1744   -3.0677    0.1115 H         1 <0>         0.4165
     34 H8         -6.8531   -4.4505   -1.2239 H         1 <0>         0.1513
     35 H9         -6.7380   -8.6272   -0.3530 H         1 <0>         0.1593
     36 H10        -3.6182   -6.0810    1.0483 H         1 <0>         0.1683
     37 H11        -3.2190   -9.0923   -0.8399 H         1 <0>         0.4183
     38 H12        -2.7524  -10.2724    0.2611 H         1 <0>         0.4231
@<TRIPOS>BOND
     1    1    6 ar
     2    1    2 ar
     3    1   27 1
     4    2    3 ar
     5    2   28 1
     6    3    4 ar
     7    3   26 1
     8    4    5 ar
     9    4   29 1
    10    5    6 ar
    11    5   30 1
    12    6    7 1
    13    7   11 1
    14    7    8 1
    15    8    9 2
    16    8   31 1
    17    9   10 1
    18    9   12 1
    19   10   11 2
    20   10   32 1
    21   12   13 2
    22   12   14 am
    23   14   15 1
    24   14   33 1
    25   15   20 ar
    26   15   16 ar
    27   16   17 ar
    28   16   34 1
    29   17   18 ar
    30   17   25 1
    31   18   19 ar
    32   18   35 1
    33   19   20 ar
    34   19   21 1
    35   20   36 1
    36   21   22 2
    37   21   23 2
    38   21   24 1
    39   24   37 1
    40   24   38 1
@<TRIPOS>MOLECULE
ZINC65993480
   55    57     0     0     0
SMALL
USER_CHARGES

@<TRIPOS>ATOM
      1 C1         -1.1569    1.3957    0.3533 C.3       1 <0>        -0.1177
      2 C2         -0.5336    0.0320    0.2026 C.ar      1 <0>        -0.0574
      3 C3         -0.5996   -0.6364   -1.0200 C.ar      1 <0>        -0.1222
      4 C4         -0.0199   -1.8993   -1.1518 C.ar      1 <0>        -0.1040
      5 C5          0.6158   -2.4825   -0.0745 C.ar      1 <0>        -0.1109
      6 C6          0.6812   -1.8201    1.1368 C.ar      1 <0>        -0.1042
      7 C7          0.1121   -0.5599    1.2767 C.ar      1 <0>         0.1596
      8 N1          0.1864    0.1094    2.5038 N.am      1 <0>        -0.6801
      9 C8          0.3836   -0.5874    3.6405 C.2       1 <0>         0.7070
     10 O1          0.4090   -1.8026    3.6120 O.2       1 <0>        -0.5686
     11 N2          0.5527    0.0630    4.8088 N.am      1 <0>        -0.7343
     12 C9          0.7670   -0.6944    6.0444 C.3       1 <0>         0.2057
     13 C10         2.2530   -1.0307    6.1852 C.3       1 <0>        -0.1597
     14 C11         0.3254    0.1332    7.2239 C.ar      1 <0>        -0.1203
     15 C12         0.5896    1.4902    7.2522 C.ar      1 <0>        -0.0835
     16 C13         0.1862    2.2514    8.3317 C.ar      1 <0>        -0.1522
     17 C14        -0.4858    1.6527    9.3892 C.ar      1 <0>         0.1683
     18 C15        -0.7500    0.2897    9.3576 C.ar      1 <0>        -0.1529
     19 C16        -0.3482   -0.4651    8.2729 C.ar      1 <0>        -0.0758
     20 N3         -0.8955    2.4210   10.4845 N.am      1 <0>        -0.5611
     21 C17        -1.4927    1.8690   11.7062 C.3       1 <0>         0.0933
     22 C18        -1.3728    2.9872   12.7653 C.3       1 <0>        -0.1319
     23 C19        -1.3216    4.2547   11.8810 C.3       1 <0>        -0.1542
     24 C20        -0.7873    3.7589   10.5554 C.2       1 <0>         0.5155
     25 O2         -0.3302    4.4661    9.6824 O.2       1 <0>        -0.5081
     26 C21        -1.2817   -0.0094   -2.1723 C.2       1 <0>         0.5588
     27 O3         -1.6691    1.1403   -2.0973 O.2       1 <0>        -0.5295
     28 N4         -1.4740   -0.7127   -3.3059 N.am      1 <0>        -0.7321
     29 C22        -2.1499   -0.0915   -4.4476 C.3       1 <0>         0.0872
     30 H1         -0.4689    2.1532   -0.0222 H         1 <0>         0.0769
     31 H2         -2.0862    1.4352   -0.2150 H         1 <0>         0.0975
     32 H3         -1.3665    1.5851    1.4060 H         1 <0>         0.0518
     33 H4         -0.0692   -2.4202   -2.0966 H         1 <0>         0.1255
     34 H5          1.0635   -3.4599   -0.1783 H         1 <0>         0.1327
     35 H6          1.1800   -2.2815    1.9763 H         1 <0>         0.1587
     36 H7          0.0960    1.0746    2.5361 H         1 <0>         0.4092
     37 H8          0.5325    1.0325    4.8316 H         1 <0>         0.3978
     38 H9          0.1874   -1.6168    6.0104 H         1 <0>         0.0995
     39 H10         2.5724   -1.6293    5.3321 H         1 <0>         0.0663
     40 H11         2.8327   -0.1083    6.2192 H         1 <0>         0.0590
     41 H12         2.4125   -1.5942    7.1045 H         1 <0>         0.0699
     42 H13         1.1123    1.9553    6.4294 H         1 <0>         0.1241
     43 H14         0.3935    3.3111    8.3535 H         1 <0>         0.1562
     44 H15        -1.2721   -0.1790   10.1786 H         1 <0>         0.1285
     45 H16        -0.5570   -1.5244    8.2458 H         1 <0>         0.1310
     46 H17        -2.5406    1.6220   11.5355 H         1 <0>         0.0832
     47 H18        -0.9435    0.9842   12.0281 H         1 <0>         0.0888
     48 H19        -2.2458    3.0018   13.4178 H         1 <0>         0.0985
     49 H20        -0.4561    2.8787   13.3450 H         1 <0>         0.0873
     50 H21        -2.3194    4.6765   11.7608 H         1 <0>         0.1114
     51 H22        -0.6438    4.9924   12.3106 H         1 <0>         0.1091
     52 H23        -1.1649   -1.6302   -3.3657 H         1 <0>         0.4019
     53 H24        -3.1541    0.2135   -4.1534 H         1 <0>         0.0615
     54 H25        -1.5853    0.7825   -4.7725 H         1 <0>         0.0617
     55 H26        -2.2131   -0.8082   -5.2664 H         1 <0>         0.0770
@<TRIPOS>BOND
     1    1    2 1
     2    1   30 1
     3    1   31 1
     4    1   32 1
     5    2    7 ar
     6    2    3 ar
     7    3    4 ar
     8    3   26 1
     9    4    5 ar
    10    4   33 1
    11    5    6 ar
    12    5   34 1
    13    6    7 ar
    14    6   35 1
    15    7    8 1
    16    8    9 am
    17    8   36 1
    18    9   10 2
    19    9   11 am
    20   11   12 1
    21   11   37 1
    22   12   13 1
    23   12   14 1
    24   12   38 1
    25   13   39 1
    26   13   40 1
    27   13   41 1
    28   14   19 ar
    29   14   15 ar
    30   15   16 ar
    31   15   42 1
    32   16   17 ar
    33   16   43 1
    34   17   18 ar
    35   17   20 1
    36   18   19 ar
    37   18   44 1
    38   19   45 1
    39   20   24 am
    40   20   21 1
    41   21   22 1
    42   21   46 1
    43   21   47 1
    44   22   23 1
    45   22   48 1
    46   22   49 1
    47   23   24 1
    48   23   50 1
    49   23   51 1
    50   24   25 2
    51   26   27 2
    52   26   28 am
    53   28   29 1
    54   28   52 1
    55   29   53 1
    56   29   54 1
    57   29   55 1
@<TRIPOS>MOLECULE
ZINC09051172
   50    52     0     0     0
SMALL
USER_CHARGES
1-pyrimidin-2-yl-N-[2-(4-sulfamoylphenyl)ethyl]piperidine-3-carboxamide
@<TRIPOS>ATOM
      1 C1        -11.2985    3.7835    0.4218 C.ar      1 <0>        -0.2592
      2 C2        -11.6242    4.9715   -0.2136 C.ar      1 <0>         0.1759
      3 N1        -10.7026    5.5940   -0.9297 N.ar      1 <0>        -0.5291
      4 C3         -9.4808    5.0941   -1.0428 C.ar      1 <0>         0.4915
      5 N2         -9.1388    3.9582   -0.4526 N.ar      1 <0>        -0.5542
      6 C4        -10.0112    3.2888    0.2825 C.ar      1 <0>         0.1742
      7 N3         -8.5410    5.7717   -1.8000 N.pl3     1 <0>        -0.4572
      8 C5         -9.0253    5.9882   -3.1693 C.3       1 <0>         0.0635
      9 C6         -8.0278    6.8627   -3.9323 C.3       1 <0>        -0.1182
     10 C7         -6.6631    6.1688   -3.9574 C.3       1 <0>        -0.1048
     11 C8         -6.2037    5.9114   -2.5196 C.3       1 <0>        -0.1085
     12 H1         -6.0824    6.8622   -2.0006 H         1 <0>         0.1096
     13 C9         -7.2540    5.0645   -1.7975 C.3       1 <0>         0.0824
     14 C10        -4.8885    5.1758   -2.5357 C.2       1 <0>         0.5234
     15 O1         -4.3690    4.8855   -3.5925 O.2       1 <0>        -0.5310
     16 N4         -4.2897    4.8404   -1.3758 N.am      1 <0>        -0.7316
     17 C11        -3.0112    4.1253   -1.3914 C.3       1 <0>         0.1247
     18 C12        -2.5528    3.8685    0.0455 C.3       1 <0>        -0.1026
     19 C13        -1.2377    3.1328    0.0294 C.ar      1 <0>        -0.0217
     20 C14        -1.2190    1.7507    0.0173 C.ar      1 <0>        -0.1346
     21 C15        -0.0126    1.0758    0.0080 C.ar      1 <0>        -0.0150
     22 C16         1.1750    1.7832    0.0004 C.ar      1 <0>        -0.6772
     23 C17         1.1563    3.1654    0.0081 C.ar      1 <0>        -0.0149
     24 C18        -0.0501    3.8402    0.0223 C.ar      1 <0>        -0.1347
     25 S1          2.7127    0.9231   -0.0184 S.o2      1 <0>         2.7013
     26 O2          3.6803    1.8089    0.5279 O.2       1 <0>        -0.9626
     27 O3          2.4643   -0.3648    0.5283 O.2       1 <0>        -0.9627
     28 N5          3.1252    0.6921   -1.6054 N.pl3     1 <0>        -1.2498
     29 H2        -12.0317    3.2550    1.0130 H         1 <0>         0.1491
     30 H3        -12.6185    5.3837   -0.1254 H         1 <0>         0.1722
     31 H4         -9.7252    2.3659    0.7650 H         1 <0>         0.1695
     32 H5         -9.9945    6.4860   -3.1373 H         1 <0>         0.0982
     33 H6         -9.1270    5.0277   -3.6746 H         1 <0>         0.0464
     34 H7         -7.9360    7.8284   -3.4353 H         1 <0>         0.0785
     35 H8         -8.3798    7.0102   -4.9533 H         1 <0>         0.0829
     36 H9         -5.9387    6.8079   -4.4623 H         1 <0>         0.0785
     37 H10        -6.7462    5.2206   -4.4885 H         1 <0>         0.0718
     38 H11        -7.3641    4.1084   -2.3093 H         1 <0>         0.0594
     39 H12        -6.9367    4.8914   -0.7692 H         1 <0>         0.0917
     40 H13        -4.7052    5.0726   -0.5306 H         1 <0>         0.4028
     41 H14        -2.2644    4.7274   -1.9089 H         1 <0>         0.0726
     42 H15        -3.1333    3.1740   -1.9093 H         1 <0>         0.0724
     43 H16        -3.2997    3.2663    0.5630 H         1 <0>         0.0882
     44 H17        -2.4307    4.8198    0.5634 H         1 <0>         0.0880
     45 H18        -2.1469    1.1980    0.0188 H         1 <0>         0.1360
     46 H19         0.0021   -0.0041    0.0020 H         1 <0>         0.1450
     47 H20         2.0841    3.7181    0.0025 H         1 <0>         0.1451
     48 H21        -0.0647    4.9201    0.0283 H         1 <0>         0.1360
     49 H22         2.5433    1.0174   -2.3101 H         1 <0>         0.4171
     50 H23         3.9486    0.2314   -1.8305 H         1 <0>         0.4219
@<TRIPOS>BOND
     1    1    6 ar
     2    1    2 ar
     3    1   29 1
     4    2    3 ar
     5    2   30 1
     6    3    4 ar
     7    4    5 ar
     8    4    7 1
     9    5    6 ar
    10    6   31 1
    11    7   13 1
    12    7    8 1
    13    8    9 1
    14    8   32 1
    15    8   33 1
    16    9   10 1
    17    9   34 1
    18    9   35 1
    19   10   11 1
    20   10   36 1
    21   10   37 1
    22   11   12 1
    23   11   13 1
    24   11   14 1
    25   13   38 1
    26   13   39 1
    27   14   15 2
    28   14   16 am
    29   16   17 1
    30   16   40 1
    31   17   18 1
    32   17   41 1
    33   17   42 1
    34   18   19 1
    35   18   43 1
    36   18   44 1
    37   19   24 ar
    38   19   20 ar
    39   20   21 ar
    40   20   45 1
    41   21   22 ar
    42   21   46 1
    43   22   23 ar
    44   22   25 1
    45   23   24 ar
    46   23   47 1
    47   24   48 1
    48   25   26 2
    49   25   27 2
    50   25   28 1
    51   28   49 1
    52   28   50 1
@<TRIPOS>MOLECULE
ZINC26913888
   41    44     0     0     0
SMALL
USER_CHARGES
(2S)-2-[(1,1-dioxo-1,2-benzothiazol-3-yl)amino]-N-(1H-indazol-7-yl)propanamide
@<TRIPOS>ATOM
      1 C1         -0.6783    8.0188    1.0697 C.3       1 <0>        -0.1650
      2 C2         -1.3390    7.4019   -0.1647 C.3       1 <0>         0.1306
      3 H1         -0.8329    7.7246   -1.0865 H         1 <0>         0.1339
      4 C3         -1.2973    5.8992   -0.0586 C.2       1 <0>         0.5171
      5 O1         -2.3298    5.2628   -0.0521 O.2       1 <0>        -0.5183
      6 N1         -0.1127    5.2625    0.0292 N.am      1 <0>        -0.6756
      7 C4         -0.0687    3.8634    0.0337 C.ar      1 <0>         0.1176
      8 C5         -1.0764    3.1380    0.6416 C.ar      1 <0>        -0.0717
      9 C6         -1.0420    1.7498    0.6455 C.ar      1 <0>        -0.1421
     10 C7         -0.0108    1.0759    0.0593 C.ar      1 <0>        -0.0497
     11 C8          1.0246    1.7854   -0.5649 C.ar      1 <0>        -0.1667
     12 C9          0.9941    3.1914   -0.5769 C.ar      1 <0>         0.1029
     13 N2          2.1187    3.6027   -1.2463 N.pl3     1 <0>        -0.5137
     14 H2          2.3148    4.6762   -1.3843 H         1 <0>         0.4671
     15 N3          2.8309    2.4633   -1.6405 N.2       1 <0>        -0.2337
     16 C10         2.2016    1.3938   -1.2480 C.2       1 <0>         0.0702
     17 N4         -2.7323    7.8471   -0.2467 N.pl3     1 <0>        -0.6670
     18 C11        -3.0372    9.0491   -0.8474 C.2       1 <0>         0.5199
     19 N5         -2.0979    9.7907   -1.3422 N.2       1 <0>        -0.8938
     20 S1         -2.8635   11.1401   -1.9699 S.o2      1 <0>         2.5836
     21 O2         -2.4850   12.2592   -1.1801 O.2       1 <0>        -0.9418
     22 O3         -2.7271   11.0969   -3.3836 O.2       1 <0>        -0.9427
     23 C12        -4.5456   10.7455   -1.5763 C.ar      1 <0>        -0.6168
     24 C13        -4.4338    9.5016   -0.9392 C.ar      1 <0>        -0.1204
     25 C14        -5.6174    8.9007   -0.4847 C.ar      1 <0>        -0.0506
     26 C15        -6.8311    9.5217   -0.6787 C.ar      1 <0>        -0.0856
     27 C16        -6.9103   10.7467   -1.3163 C.ar      1 <0>        -0.0908
     28 C17        -5.7488   11.3588   -1.7672 C.ar      1 <0>         0.0047
     29 H3         -0.7087    9.1156    0.9923 H         1 <0>         0.0872
     30 H4          0.3678    7.6844    1.1313 H         1 <0>         0.0780
     31 H5         -1.2190    7.6998    1.9730 H         1 <0>         0.0698
     32 H6          0.8196    5.8423    0.0973 H         1 <0>         0.4328
     33 H7         -1.8986    3.6549    1.1140 H         1 <0>         0.1449
     34 H8         -1.8388    1.1974    1.1212 H         1 <0>         0.1311
     35 H9          0.0056   -0.0039    0.0722 H         1 <0>         0.1307
     36 H10         2.5237    0.3767   -1.4152 H         1 <0>         0.1965
     37 H11        -3.5350    7.2218    0.1713 H         1 <0>         0.4486
     38 H12        -5.5769    7.9445    0.0157 H         1 <0>         0.1405
     39 H13        -7.7346    9.0452   -0.3281 H         1 <0>         0.1453
     40 H14        -7.8684   11.2231   -1.4625 H         1 <0>         0.1476
     41 H15        -5.7977   12.3154   -2.2662 H         1 <0>         0.1453
@<TRIPOS>BOND
     1    1    2 1
     2    1   29 1
     3    1   30 1
     4    1   31 1
     5    2    3 1
     6    2    4 1
     7    2   17 1
     8    4    5 2
     9    4    6 am
    10    6    7 1
    11    6   32 1
    12    7   12 ar
    13    7    8 ar
    14    8    9 ar
    15    8   33 1
    16    9   10 ar
    17    9   34 1
    18   10   11 ar
    19   10   35 1
    20   11   16 1
    21   11   12 ar
    22   12   13 1
    23   13   14 1
    24   13   15 1
    25   15   16 2
    26   16   36 1
    27   17   18 1
    28   17   37 1
    29   18   24 1
    30   18   19 2
    31   19   20 1
    32   20   21 2
    33   20   22 2
    34   20   23 1
    35   23   28 ar
    36   23   24 ar
    37   24   25 ar
    38   25   26 ar
    39   25   38 1
    40   26   27 ar
    41   26   39 1
    42   27   28 ar
    43   27   40 1
    44   28   41 1
@<TRIPOS>MOLECULE
ZINC43713708
   47    49     0     0     0
SMALL
USER_CHARGES

@<TRIPOS>ATOM
      1 C1          0.1727    1.5513    0.0413 C.3       1 <0>        -0.1624
      2 C2          0.1159    0.0224    0.0364 C.3       1 <0>         0.1936
      3 H1         -0.9200   -0.3025   -0.0610 H         1 <0>         0.1205
      4 C3          0.9193   -0.5065   -1.1237 C.ar      1 <0>        -0.1006
      5 C4          1.5323   -1.7426   -1.0320 C.ar      1 <0>        -0.0790
      6 C5          2.2690   -2.2301   -2.0938 C.ar      1 <0>        -0.1084
      7 C6          2.3936   -1.4777   -3.2540 C.ar      1 <0>         0.1496
      8 C7          1.7770   -0.2370   -3.3430 C.ar      1 <0>        -0.1300
      9 C8          1.0373    0.2429   -2.2799 C.ar      1 <0>        -0.0844
     10 N1          3.1411   -1.9697   -4.3333 N.pl3     1 <0>        -0.3316
     11 C9          3.3553   -1.3567   -5.5137 C.2       1 <0>         0.2617
     12 N2          4.1003   -2.1421   -6.2486 N.2       1 <0>        -0.5353
     13 C10         4.3806   -3.2584   -5.5770 C.2       1 <0>         0.2094
     14 N3          3.8207   -3.1971   -4.3970 N.2       1 <0>        -0.3144
     15 N4          0.6728   -0.4910    1.2904 N.am      1 <0>        -0.6196
     16 C11         2.0215   -0.0995    1.7075 C.3       1 <0>         0.0722
     17 C12        -0.0557   -1.3234    2.0605 C.2       1 <0>         0.7061
     18 O1         -1.1750   -1.6483    1.7144 O.2       1 <0>        -0.5628
     19 N5          0.4567   -1.7957    3.2141 N.am      1 <0>        -0.6841
     20 C13        -0.3299   -2.5801    4.0568 C.ar      1 <0>         0.1911
     21 C14        -1.2552   -3.4672    3.5158 C.ar      1 <0>        -0.1284
     22 C15        -2.0334   -4.2431    4.3449 C.ar      1 <0>        -0.0364
     23 C16        -1.8928   -4.1394    5.7315 C.ar      1 <0>        -0.1590
     24 C17        -0.9621   -3.2476    6.2716 C.ar      1 <0>        -0.0641
     25 C18        -0.1837   -2.4782    5.4367 C.ar      1 <0>        -0.1559
     26 C19        -2.7257   -4.9693    6.6234 C.2       1 <0>         0.5644
     27 O2         -3.5354   -5.7444    6.1521 O.2       1 <0>        -0.5397
     28 N6         -2.5889   -4.8681    7.9604 N.am      1 <0>        -0.8523
     29 H2          1.2086    1.8761    0.1387 H         1 <0>         0.0645
     30 H3         -0.2417    1.9332   -0.8917 H         1 <0>         0.0770
     31 H4         -0.4085    1.9338    0.8804 H         1 <0>         0.0672
     32 H5          1.4353   -2.3272   -0.1292 H         1 <0>         0.1280
     33 H6          2.7478   -3.1954   -2.0215 H         1 <0>         0.1385
     34 H7          1.8722    0.3505   -4.2442 H         1 <0>         0.1350
     35 H8          0.5540    1.2061   -2.3501 H         1 <0>         0.1417
     36 H9          2.9781   -0.3868   -5.8027 H         1 <0>         0.2233
     37 H10         4.9780   -4.0790   -5.9458 H         1 <0>         0.2246
     38 H11         1.9592    0.7490    2.3887 H         1 <0>         0.0631
     39 H12         2.5029   -0.9367    2.2129 H         1 <0>         0.0660
     40 H13         2.6059    0.1804    0.8310 H         1 <0>         0.0828
     41 H14         1.3726   -1.5898    3.4582 H         1 <0>         0.4096
     42 H15        -1.3634   -3.5468    2.4441 H         1 <0>         0.1485
     43 H16        -2.7520   -4.9309    3.9243 H         1 <0>         0.1405
     44 H17        -0.8512   -3.1648    7.3427 H         1 <0>         0.1307
     45 H18         0.5387   -1.7918    5.8533 H         1 <0>         0.1324
     46 H19        -1.9430   -4.2497    8.3364 H         1 <0>         0.4002
     47 H20        -3.1364   -5.4135    8.5466 H         1 <0>         0.4058
@<TRIPOS>BOND
     1    1    2 1
     2    1   29 1
     3    1   30 1
     4    1   31 1
     5    2    3 1
     6    2    4 1
     7    2   15 1
     8    4    9 ar
     9    4    5 ar
    10    5    6 ar
    11    5   32 1
    12    6    7 ar
    13    6   33 1
    14    7    8 ar
    15    7   10 1
    16    8    9 ar
    17    8   34 1
    18    9   35 1
    19   10   14 1
    20   10   11 1
    21   11   12 2
    22   11   36 1
    23   12   13 1
    24   13   14 2
    25   13   37 1
    26   15   16 1
    27   15   17 am
    28   16   38 1
    29   16   39 1
    30   16   40 1
    31   17   18 2
    32   17   19 am
    33   19   20 1
    34   19   41 1
    35   20   25 ar
    36   20   21 ar
    37   21   22 ar
    38   21   42 1
    39   22   23 ar
    40   22   43 1
    41   23   24 ar
    42   23   26 1
    43   24   25 ar
    44   24   44 1
    45   25   45 1
    46   26   27 2
    47   26   28 am
    48   28   46 1
    49   28   47 1
@<TRIPOS>MOLECULE
ZINC45882595
   46    48     0     0     0
SMALL
USER_CHARGES

@<TRIPOS>ATOM
      1 C1          0.3516    1.1094    1.1190 C.3       1 <0>        -0.0900
      2 C2          0.2914   -0.3821    0.9126 C.2       1 <0>         0.0848
      3 C3         -0.8278   -1.1146    0.7738 C.2       1 <0>        -0.2896
      4 C4         -0.4494   -2.4651    0.6008 C.2       1 <0>         0.3281
      5 N1          0.8575   -2.5239    0.6371 N.2       1 <0>        -0.3428
      6 O1          1.3457   -1.2086    0.8296 O.3       1 <0>        -0.0647
      7 N2         -1.3145   -3.5432    0.4231 N.am      1 <0>        -0.6083
      8 C5         -2.6470   -3.3421    0.4055 C.2       1 <0>         0.5223
      9 O2         -3.0936   -2.2223    0.5444 O.2       1 <0>        -0.4812
     10 C6         -3.5743   -4.4976    0.2151 C.2       1 <0>         0.5189
     11 O3         -3.1277   -5.6175    0.0762 O.2       1 <0>        -0.5055
     12 N3         -4.9068   -4.2966    0.1975 N.am      1 <0>        -0.6884
     13 C7         -5.8162   -5.4298    0.0107 C.3       1 <0>         0.1861
     14 C8         -5.9860   -5.7064   -1.4845 C.3       1 <0>        -0.1618
     15 C9         -7.1569   -5.1033    0.6165 C.ar      1 <0>        -0.1149
     16 C10        -7.6891   -3.8352    0.4715 C.ar      1 <0>        -0.0912
     17 C11        -8.9175   -3.5328    1.0255 C.ar      1 <0>        -0.1157
     18 C12        -9.6186   -4.5038    1.7285 C.ar      1 <0>         0.1525
     19 C13        -9.0815   -5.7764    1.8720 C.ar      1 <0>        -0.1408
     20 C14        -7.8548   -6.0739    1.3114 C.ar      1 <0>        -0.0819
     21 N4        -10.8631   -4.2004    2.2914 N.am      1 <0>        -0.6720
     22 C15       -11.6853   -3.3265    1.6777 C.2       1 <0>         0.5443
     23 O4        -11.3896   -2.8761    0.5911 O.2       1 <0>        -0.5161
     24 C16       -12.9722   -2.9090    2.3415 C.3       1 <0>        -0.2004
     25 C17       -14.2810   -3.3816    1.7054 C.3       1 <0>        -0.1504
     26 C18       -13.8624   -1.9142    1.5939 C.3       1 <0>        -0.1439
     27 H1          1.3925    1.4243    1.1927 H         1 <0>         0.0874
     28 H2         -0.1213    1.6124    0.2755 H         1 <0>         0.0988
     29 H3         -0.1729    1.3705    2.0382 H         1 <0>         0.0987
     30 H4         -1.8393   -0.7367    0.7917 H         1 <0>         0.1832
     31 H5         -0.9575   -4.4383    0.3121 H         1 <0>         0.4351
     32 H6         -5.2638   -3.4015    0.3085 H         1 <0>         0.4142
     33 H7         -5.4022   -6.3122    0.4987 H         1 <0>         0.1051
     34 H8         -6.4000   -4.8241   -1.9725 H         1 <0>         0.0637
     35 H9         -5.0163   -5.9426   -1.9227 H         1 <0>         0.0675
     36 H10        -6.6626   -6.5496   -1.6235 H         1 <0>         0.0755
     37 H11        -7.1434   -3.0805   -0.0754 H         1 <0>         0.1258
     38 H12        -9.3323   -2.5420    0.9125 H         1 <0>         0.1373
     39 H13        -9.6241   -6.5337    2.4185 H         1 <0>         0.1303
     40 H14        -7.4385   -7.0646    1.4192 H         1 <0>         0.1319
     41 H15       -11.1342   -4.6191    3.1234 H         1 <0>         0.4138
     42 H16       -12.9383   -2.8358    3.4285 H         1 <0>         0.1286
     43 H17       -14.2112   -3.9946    0.8067 H         1 <0>         0.1009
     44 H18       -15.1084   -3.6196    2.3739 H         1 <0>         0.1082
     45 H19       -14.4144   -1.1868    2.1891 H         1 <0>         0.1071
     46 H20       -13.5173   -1.5618    0.6219 H         1 <0>         0.1097
@<TRIPOS>BOND
     1    1    2 1
     2    1   27 1
     3    1   28 1
     4    1   29 1
     5    2    6 1
     6    2    3 2
     7    3    4 1
     8    3   30 1
     9    4    5 2
    10    4    7 1
    11    5    6 1
    12    7    8 am
    13    7   31 1
    14    8    9 2
    15    8   10 1
    16   10   11 2
    17   10   12 am
    18   12   13 1
    19   12   32 1
    20   13   14 1
    21   13   15 1
    22   13   33 1
    23   14   34 1
    24   14   35 1
    25   14   36 1
    26   15   20 ar
    27   15   16 ar
    28   16   17 ar
    29   16   37 1
    30   17   18 ar
    31   17   38 1
    32   18   19 ar
    33   18   21 1
    34   19   20 ar
    35   19   39 1
    36   20   40 1
    37   21   22 am
    38   21   41 1
    39   22   23 2
    40   22   24 1
    41   24   26 1
    42   24   25 1
    43   24   42 1
    44   25   26 1
    45   25   43 1
    46   25   44 1
    47   26   45 1
    48   26   46 1
@<TRIPOS>MOLECULE
ZINC66240778
   48    50     0     0     0
SMALL
USER_CHARGES

@<TRIPOS>ATOM
      1 C1         -0.0184    1.5028    0.0103 C.3       1 <0>        -0.0743
      2 C2          0.0021   -0.0041    0.0020 C.2       1 <0>         0.0761
      3 C3          0.0080   -0.8179   -1.1355 C.2       1 <0>        -0.2679
      4 C4          0.0279   -2.1072   -0.7249 C.2       1 <0>         0.0830
      5 N1          0.0343   -2.1090    0.6245 N.pl3     1 <0>        -0.3697
      6 N2          0.0231   -0.7768    1.0576 N.2       1 <0>        -0.2913
      7 C5          0.0548   -3.2948    1.4847 C.3       1 <0>         0.1231
      8 C6          1.5043   -3.6875    1.7773 C.3       1 <0>         0.1259
      9 H1          2.0335   -2.8340    2.2010 H         1 <0>         0.1024
     10 C7          1.5270   -4.8478    2.7743 C.3       1 <0>        -0.1633
     11 N3          2.1592   -4.0997    0.5333 N.am      1 <0>        -0.7240
     12 C8          3.4984   -4.0065    0.4139 C.2       1 <0>         0.5629
     13 O1          4.1630   -3.5803    1.3385 O.2       1 <0>        -0.5255
     14 C9          4.1584   -4.4219   -0.8398 C.ar      1 <0>        -0.1376
     15 C10         3.3956   -4.9065   -1.9054 C.ar      1 <0>        -0.0653
     16 C11         4.0144   -5.2926   -3.0734 C.ar      1 <0>        -0.1107
     17 C12         5.3970   -5.2007   -3.1931 C.ar      1 <0>         0.1855
     18 C13         6.1594   -4.7188   -2.1343 C.ar      1 <0>        -0.1536
     19 C14         5.5467   -4.3259   -0.9653 C.ar      1 <0>        -0.0283
     20 N4          6.0217   -5.5938   -4.3796 N.pl3     1 <0>        -0.3492
     21 C15         7.1247   -5.0189   -4.9263 C.2       1 <0>         0.4340
     22 C16         7.4087   -5.7161   -6.0973 C.2       1 <0>        -0.2543
     23 C17         6.4296   -6.7290   -6.2247 C.2       1 <0>         0.1439
     24 N5          5.6218   -6.6507   -5.2047 N.2       1 <0>        -0.2874
     25 C18         8.4880   -5.4567   -7.0019 C.1       1 <0>         0.2922
     26 N6          9.3443   -5.2510   -7.7196 N.1       1 <0>        -0.4358
     27 N7          7.8298   -3.9460   -4.4173 N.pl3     1 <0>        -0.8317
     28 C19         0.0401   -3.3230   -1.6152 C.3       1 <0>        -0.1027
     29 H2          1.0042    1.8801    0.0026 H         1 <0>         0.0766
     30 H3         -0.5455    1.8639   -0.8728 H         1 <0>         0.0778
     31 H4         -0.5286    1.8543    0.9071 H         1 <0>         0.0727
     32 H5         -0.0021   -0.4776   -2.1604 H         1 <0>         0.1462
     33 H6         -0.4577   -3.0734    2.4209 H         1 <0>         0.1151
     34 H7         -0.4500   -4.1185    0.9800 H         1 <0>         0.0986
     35 H8          0.9977   -5.7013    2.3506 H         1 <0>         0.0628
     36 H9          2.5596   -5.1276    2.9828 H         1 <0>         0.0716
     37 H10         1.0397   -4.5411    3.6999 H         1 <0>         0.0744
     38 H11         1.6290   -4.4397   -0.2043 H         1 <0>         0.3961
     39 H12         2.3220   -4.9784   -1.8131 H         1 <0>         0.1343
     40 H13         3.4255   -5.6676   -3.8974 H         1 <0>         0.1475
     41 H14         7.2328   -4.6487   -2.2306 H         1 <0>         0.1389
     42 H15         6.1389   -3.9480   -0.1451 H         1 <0>         0.1504
     43 H16         6.3648   -7.4476   -7.0283 H         1 <0>         0.2036
     44 H17         7.5464   -3.5284   -3.5889 H         1 <0>         0.4107
     45 H18         8.6084   -3.6100   -4.8882 H         1 <0>         0.4246
     46 H19         1.0706   -3.6023   -1.8347 H         1 <0>         0.0757
     47 H20        -0.4602   -4.1488   -1.1093 H         1 <0>         0.0722
     48 H21        -0.4812   -3.0975   -2.5455 H         1 <0>         0.0937
@<TRIPOS>BOND
     1    1    2 1
     2    1   29 1
     3    1   30 1
     4    1   31 1
     5    2    6 2
     6    2    3 1
     7    3    4 2
     8    3   32 1
     9    4    5 1
    10    4   28 1
    11    5    6 1
    12    5    7 1
    13    7    8 1
    14    7   33 1
    15    7   34 1
    16    8    9 1
    17    8   10 1
    18    8   11 1
    19   10   35 1
    20   10   36 1
    21   10   37 1
    22   11   12 am
    23   11   38 1
    24   12   13 2
    25   12   14 1
    26   14   19 ar
    27   14   15 ar
    28   15   16 ar
    29   15   39 1
    30   16   17 ar
    31   16   40 1
    32   17   18 ar
    33   17   20 1
    34   18   19 ar
    35   18   41 1
    36   19   42 1
    37   20   24 1
    38   20   21 1
    39   21   22 2
    40   21   27 1
    41   22   23 1
    42   22   25 1
    43   23   24 2
    44   23   43 1
    45   25   26 3
    46   27   44 1
    47   27   45 1
    48   28   46 1
    49   28   47 1
    50   28   48 1
@<TRIPOS>MOLECULE
ZINC02537114
   30    32     0     0     0
SMALL
USER_CHARGES
7-(4-fluorophenyl)pyrazolo[1,5-a]pyrimidine-2-carbohydrazide
@<TRIPOS>ATOM
      1 C1         -3.6920    1.7110   -0.0713 C.ar      1 <0>        -0.0561
      2 C2         -4.8842    1.0186   -0.0752 C.ar      1 <0>        -0.1584
      3 C3         -4.8860   -0.3642    0.0220 C.ar      1 <0>         0.1280
      4 C4         -3.6903   -1.0592    0.1170 C.ar      1 <0>        -0.1577
      5 C5         -2.4919   -0.3776    0.1161 C.ar      1 <0>        -0.0508
      6 C6         -2.4840    1.0157    0.0188 C.ar      1 <0>        -0.0981
      7 C7         -1.2036    1.7513    0.0172 C.2       1 <0>         0.2418
      8 C8         -0.0126    1.0758    0.0080 C.2       1 <0>        -0.2126
      9 C9          1.1843    1.7983    0.0004 C.2       1 <0>         0.1887
     10 N1          1.1692    3.1111    0.0072 N.2       1 <0>        -0.4572
     11 C10         0.0136    3.7910    0.0219 C.2       1 <0>         0.2660
     12 N2         -1.1871    3.1263    0.0303 N.pl3     1 <0>        -0.2987
     13 N3         -2.2089    4.0821    0.0459 N.2       1 <0>        -0.2929
     14 C11        -1.6629    5.2878    0.0471 C.2       1 <0>         0.0805
     15 C12        -0.2707    5.1476    0.0323 C.2       1 <0>        -0.1964
     16 C13        -2.4009    6.5691    0.0621 C.2       1 <0>         0.6019
     17 O1         -1.7921    7.6212    0.0622 O.2       1 <0>        -0.5000
     18 N4         -3.7486    6.5704    0.0756 N.am      1 <0>        -0.5610
     19 N5         -4.4304    7.7541    0.0894 N.3       1 <0>        -0.5986
     20 F1         -6.0574   -1.0372    0.0238 F         1 <0>        -0.1306
     21 H1         -3.6920    2.7887   -0.1419 H         1 <0>         0.1636
     22 H2         -5.8187    1.5549   -0.1493 H         1 <0>         0.1446
     23 H3         -3.6976   -2.1365    0.1921 H         1 <0>         0.1475
     24 H4         -1.5609   -0.9200    0.1908 H         1 <0>         0.1455
     25 H5          0.0021   -0.0041    0.0020 H         1 <0>         0.1729
     26 H6          2.1278    1.2729   -0.0114 H         1 <0>         0.1884
     27 H7          0.4513    5.9507    0.0298 H         1 <0>         0.1772
     28 H8         -4.2345    5.7309    0.0755 H         1 <0>         0.4078
     29 H9         -5.4271    7.5972    0.0985 H         1 <0>         0.3631
     30 H10        -4.1471    8.3254    0.8714 H         1 <0>         0.3515
@<TRIPOS>BOND
     1    1    6 ar
     2    1    2 ar
     3    1   21 1
     4    2    3 ar
     5    2   22 1
     6    3    4 ar
     7    3   20 1
     8    4    5 ar
     9    4   23 1
    10    5    6 ar
    11    5   24 1
    12    6    7 1
    13    7   12 1
    14    7    8 2
    15    8    9 1
    16    8   25 1
    17    9   10 2
    18    9   26 1
    19   10   11 1
    20   11   15 2
    21   11   12 1
    22   12   13 1
    23   13   14 2
    24   14   15 1
    25   14   16 1
    26   15   27 1
    27   16   17 2
    28   16   18 am
    29   18   19 1
    30   18   28 1
    31   19   29 1
    32   19   30 1
@<TRIPOS>MOLECULE
ZINC36991047
   35    37     0     0     0
SMALL
USER_CHARGES

@<TRIPOS>ATOM
      1 C1         -0.0167    1.3773    0.0096 C.ar      1 <0>        -0.0414
      2 C2          1.1686    2.0873    0.0021 C.ar      1 <0>        -0.1979
      3 C3          2.3833    1.4131   -0.0136 C.ar      1 <0>         0.2439
      4 C4          2.4047    0.0251   -0.0213 C.ar      1 <0>        -0.2071
      5 C5          1.2131   -0.6838   -0.0132 C.ar      1 <0>         0.1769
      6 C6          0.0021   -0.0041    0.0020 C.ar      1 <0>        -0.1863
      7 N1          1.2307   -2.0864   -0.0214 N.pl3     1 <0>        -0.4299
      8 C7          2.3279   -2.8948   -0.0312 C.2       1 <0>         0.1597
      9 N2          1.8991   -4.1276   -0.0355 N.2       1 <0>        -0.2900
     10 N3          0.6138   -4.1438   -0.0292 N.2       1 <0>        -0.2905
     11 C8          0.1542   -2.9221   -0.0153 C.2       1 <0>         0.1630
     12 N4          3.5814    2.1310   -0.0221 N.pl3     1 <0>        -0.7386
     13 C9          3.5578    3.5958   -0.0145 C.3       1 <0>         0.1669
     14 C10         4.9702    4.1210   -0.0261 C.ar      1 <0>        -0.1048
     15 C11         5.6308    4.3500    1.1666 C.ar      1 <0>        -0.0905
     16 C12         6.9265    4.8318    1.1612 C.ar      1 <0>        -0.1316
     17 C13         7.5662    5.0859   -0.0414 C.ar      1 <0>         0.0919
     18 C14         6.9015    4.8550   -1.2419 C.ar      1 <0>         0.0797
     19 C15         5.6045    4.3675   -1.2295 C.ar      1 <0>        -0.1098
     20 O1          7.5251    5.1029   -2.4247 O.3       1 <0>        -0.4862
     21 O2          8.8407    5.5603   -0.0484 O.3       1 <0>        -0.4873
     22 H1         -0.9597    1.9034    0.0260 H         1 <0>         0.1358
     23 H2          1.1509    3.1671    0.0081 H         1 <0>         0.1302
     24 H3          3.3476   -0.5015   -0.0338 H         1 <0>         0.1296
     25 H4         -0.9262   -0.5561    0.0079 H         1 <0>         0.1300
     26 H5          3.3594   -2.5751   -0.0352 H         1 <0>         0.2204
     27 H6         -0.8850   -2.6285   -0.0031 H         1 <0>         0.2232
     28 H7          4.4292    1.6596   -0.0331 H         1 <0>         0.4031
     29 H8          3.0292    3.9552   -0.8973 H         1 <0>         0.0745
     30 H9          3.0472    3.9462    0.8825 H         1 <0>         0.0758
     31 H10         5.1333    4.1523    2.1046 H         1 <0>         0.1334
     32 H11         7.4401    5.0105    2.0944 H         1 <0>         0.1376
     33 H12         5.0877    4.1839   -2.1598 H         1 <0>         0.1359
     34 H13         8.0132    4.3466   -2.7781 H         1 <0>         0.3895
     35 H14         9.5174    4.8697   -0.0615 H         1 <0>         0.3909
@<TRIPOS>BOND
     1    1    6 ar
     2    1    2 ar
     3    1   22 1
     4    2    3 ar
     5    2   23 1
     6    3    4 ar
     7    3   12 1
     8    4    5 ar
     9    4   24 1
    10    5    6 ar
    11    5    7 1
    12    6   25 1
    13    7   11 1
    14    7    8 1
    15    8    9 2
    16    8   26 1
    17    9   10 1
    18   10   11 2
    19   11   27 1
    20   12   13 1
    21   12   28 1
    22   13   14 1
    23   13   29 1
    24   13   30 1
    25   14   19 ar
    26   14   15 ar
    27   15   16 ar
    28   15   31 1
    29   16   17 ar
    30   16   32 1
    31   17   18 ar
    32   17   21 1
    33   18   19 ar
    34   18   20 1
    35   19   33 1
    36   20   34 1
    37   21   35 1
@<TRIPOS>MOLECULE
ZINC50014840
   35    36     0     0     0
SMALL
USER_CHARGES

@<TRIPOS>ATOM
      1 C1         -0.0184    1.5028    0.0103 C.3       1 <0>        -0.1443
      2 C2          0.0021   -0.0041    0.0020 C.2       1 <0>         0.2349
      3 C3          0.0079   -0.7958   -1.0953 C.2       1 <0>        -0.8334
      4 C4          0.0284   -2.1267   -0.6656 C.2       1 <0>         0.1667
      5 N1          0.0347   -2.1338    0.6427 N.2       1 <0>        -0.2880
      6 N2          0.0237   -0.8054    1.0876 N.pl3     1 <0>        -0.4624
      7 H1          0.0286   -0.5133    2.0125 H         1 <0>         0.4429
      8 C5          0.0404   -3.3426   -1.5559 C.3       1 <0>        -0.1132
      9 S1         -0.0081   -0.2472   -2.7696 S.o2      1 <0>         2.7160
     10 O1         -0.5477   -1.3118   -3.5407 O.2       1 <0>        -0.9508
     11 O2         -0.5775    1.0548   -2.7649 O.2       1 <0>        -0.9477
     12 N3          1.5692   -0.0722   -3.2427 N.pl3     1 <0>        -0.9475
     13 C6          2.2821   -1.2004   -3.8471 C.3       1 <0>         0.0888
     14 C7          2.2216    1.1539   -3.0649 C.ar      1 <0>         0.0561
     15 C8          2.2637    2.0755   -4.1001 C.ar      1 <0>        -0.0523
     16 C9          2.9080    3.2859   -3.9223 C.ar      1 <0>        -0.1667
     17 C10         3.5116    3.5814   -2.7140 C.ar      1 <0>        -0.0610
     18 C11         3.4744    2.6682   -1.6764 C.ar      1 <0>        -0.1921
     19 C12         2.8258    1.4541   -1.8443 C.ar      1 <0>         0.2183
     20 N4          2.7823    0.5301   -0.7932 N.pl3     1 <0>        -0.8793
     21 H2          1.0042    1.8801    0.0026 H         1 <0>         0.1019
     22 H3         -0.5455    1.8639   -0.8728 H         1 <0>         0.1265
     23 H4         -0.5286    1.8543    0.9071 H         1 <0>         0.0842
     24 H5          1.0708   -3.6217   -1.7759 H         1 <0>         0.0863
     25 H6         -0.4595   -4.1685   -1.0497 H         1 <0>         0.0856
     26 H7         -0.4815   -3.1172   -2.4858 H         1 <0>         0.1127
     27 H8          2.1462   -1.1788   -4.9284 H         1 <0>         0.0671
     28 H9          3.3441   -1.1266   -3.6129 H         1 <0>         0.0752
     29 H10         1.8865   -2.1351   -3.4498 H         1 <0>         0.0750
     30 H11         1.7936    1.8478   -5.0454 H         1 <0>         0.1272
     31 H12         2.9403    4.0024   -4.7297 H         1 <0>         0.1264
     32 H13         4.0139    4.5281   -2.5803 H         1 <0>         0.1261
     33 H14         3.9472    2.9021   -0.7340 H         1 <0>         0.1250
     34 H15         2.3314   -0.3203   -0.9134 H         1 <0>         0.3973
     35 H16         3.2030    0.7404    0.0551 H         1 <0>         0.3985
@<TRIPOS>BOND
     1    1    2 1
     2    1   21 1
     3    1   22 1
     4    1   23 1
     5    2    6 1
     6    2    3 2
     7    3    4 1
     8    3    9 1
     9    4    5 2
    10    4    8 1
    11    5    6 1
    12    6    7 1
    13    8   24 1
    14    8   25 1
    15    8   26 1
    16    9   10 2
    17    9   11 2
    18    9   12 1
    19   12   13 1
    20   12   14 1
    21   13   27 1
    22   13   28 1
    23   13   29 1
    24   14   19 ar
    25   14   15 ar
    26   15   16 ar
    27   15   30 1
    28   16   17 ar
    29   16   31 1
    30   17   18 ar
    31   17   32 1
    32   18   19 ar
    33   18   33 1
    34   19   20 1
    35   20   34 1
    36   20   35 1
@<TRIPOS>MOLECULE
ZINC51117017
   39    40     0     0     0
SMALL
USER_CHARGES

@<TRIPOS>ATOM
      1 C1          0.0979    1.5144   -0.5093 C.3       1 <0>        -0.1443
      2 C2          0.1071   -0.0156   -0.5073 C.3       1 <0>         0.0713
      3 H1          0.4004   -0.3792   -1.4921 H         1 <0>         0.0690
      4 C3         -1.2938   -0.5356   -0.1656 C.3       1 <0>         0.0827
      5 N1         -1.2165   -1.9941    0.0141 N.am      1 <0>        -0.6043
      6 C4         -0.1810   -2.5261    0.9141 C.3       1 <0>         0.0712
      7 C5          1.1658   -1.9090    0.5199 C.3       1 <0>         0.1003
      8 O1          1.0366   -0.4861    0.4717 O.3       1 <0>        -0.3651
      9 C6          2.2256   -2.2912    1.5551 C.3       1 <0>        -0.1382
     10 C7          1.5833   -2.4302   -0.8567 C.3       1 <0>        -0.1788
     11 C8         -2.0685   -2.8183   -0.6271 C.2       1 <0>         0.5663
     12 O2         -2.9593   -2.3573   -1.3131 O.2       1 <0>        -0.5149
     13 C9         -1.9190   -4.2866   -0.4956 C.ar      1 <0>        -0.0214
     14 C10        -1.7474   -4.8797    0.7561 C.ar      1 <0>        -0.2132
     15 C11        -1.6115   -6.2613    0.8335 C.ar      1 <0>         0.4320
     16 N2         -1.6438   -7.0065   -0.2600 N.ar      1 <0>        -0.5097
     17 C12        -1.8044   -6.4796   -1.4593 C.ar      1 <0>         0.2311
     18 C13        -1.9520   -5.1154   -1.6224 C.ar      1 <0>        -0.1702
     19 Cl1        -1.8373   -7.5160   -2.8515 Cl        1 <0>        -0.0157
     20 N3         -1.4394   -6.8668    2.0731 N.pl3     1 <0>        -0.5663
     21 N4         -1.3052   -8.2235    2.1579 N.3       1 <0>        -0.5964
     22 H2          1.0947    1.8834   -0.7505 H         1 <0>         0.0698
     23 H3         -0.6123    1.8724   -1.2547 H         1 <0>         0.0761
     24 H4         -0.1954    1.8773    0.4758 H         1 <0>         0.0671
     25 H5         -1.6436   -0.0703    0.7559 H         1 <0>         0.0813
     26 H6         -1.9807   -0.3019   -0.9791 H         1 <0>         0.1048
     27 H7         -0.4187   -2.2611    1.9444 H         1 <0>         0.0830
     28 H8         -0.1308   -3.6105    0.8157 H         1 <0>         0.1042
     29 H9          2.3210   -3.3763    1.5939 H         1 <0>         0.0729
     30 H10         3.1829   -1.8521    1.2742 H         1 <0>         0.0716
     31 H11         1.9279   -1.9174    2.5348 H         1 <0>         0.0676
     32 H12         0.8285   -2.1553   -1.5935 H         1 <0>         0.0614
     33 H13         2.5409   -1.9910   -1.1363 H         1 <0>         0.0699
     34 H14         1.6778   -3.5155   -0.8210 H         1 <0>         0.0676
     35 H15        -1.7202   -4.2750    1.6505 H         1 <0>         0.1458
     36 H16        -2.0872   -4.6939   -2.6075 H         1 <0>         0.1515
     37 H17        -1.4147   -6.3257    2.8778 H         1 <0>         0.4152
     38 H18        -0.5404   -8.5477    1.5851 H         1 <0>         0.3468
     39 H19        -1.1885   -8.5161    3.1164 H         1 <0>         0.3583
@<TRIPOS>BOND
     1    1    2 1
     2    1   22 1
     3    1   23 1
     4    1   24 1
     5    2    3 1
     6    2    8 1
     7    2    4 1
     8    4    5 1
     9    4   25 1
    10    4   26 1
    11    5    6 1
    12    5   11 am
    13    6    7 1
    14    6   27 1
    15    6   28 1
    16    7    8 1
    17    7    9 1
    18    7   10 1
    19    9   29 1
    20    9   30 1
    21    9   31 1
    22   10   32 1
    23   10   33 1
    24   10   34 1
    25   11   12 2
    26   11   13 1
    27   13   18 ar
    28   13   14 ar
    29   14   15 ar
    30   14   35 1
    31   15   16 ar
    32   15   20 1
    33   16   17 ar
    34   17   18 ar
    35   17   19 1
    36   18   36 1
    37   20   21 1
    38   20   37 1
    39   21   38 1
    40   21   39 1
@<TRIPOS>MOLECULE
ZINC58370049
   28    29     0     0     0
SMALL
USER_CHARGES

@<TRIPOS>ATOM
      1 C1         -0.0170    1.4017    0.0097 C.2       1 <0>        -0.1566
      2 C2          1.1378    2.0944    0.0024 C.2       1 <0>        -0.1039
      3 S1          2.3748    0.8074   -0.0162 S.3       1 <0>         0.1062
      4 C3          1.2856   -0.5910   -0.0133 C.ar      1 <0>        -0.2343
      5 C4          0.0021   -0.0041    0.0020 C.ar      1 <0>         0.1806
      6 N1         -1.0392   -0.8734    0.0068 N.ar      1 <0>        -0.4990
      7 C5         -0.8475   -2.1671   -0.0023 C.ar      1 <0>         0.3163
      8 N2          0.3483   -2.7286   -0.0167 N.ar      1 <0>        -0.5097
      9 C6          1.4436   -1.9664   -0.0225 C.ar      1 <0>         0.2220
     10 S2          3.0493   -2.6916   -0.0421 S.3       1 <0>        -0.0294
     11 C7          2.7247   -4.4763   -0.0490 C.3       1 <0>        -0.0926
     12 C8          4.0526   -5.2361   -0.0661 C.3       1 <0>        -0.1260
     13 C9          3.7830   -6.7188   -0.0718 C.2       1 <0>         0.5232
     14 O1          2.6416   -7.1274   -0.0630 O.2       1 <0>        -0.4571
     15 N3          4.8107   -7.5906   -0.0866 N.am      1 <0>        -0.6911
     16 C10         4.5696   -8.9166   -0.0917 C.2       1 <0>         0.6953
     17 O2          3.4253   -9.3262   -0.0829 O.2       1 <0>        -0.5313
     18 N4          5.5973   -9.7884   -0.1065 N.am      1 <0>        -0.8566
     19 H1         -0.9603    1.9274    0.0261 H         1 <0>         0.1549
     20 H2          1.2805    3.1649    0.0065 H         1 <0>         0.2066
     21 H3         -1.7141   -2.8116    0.0025 H         1 <0>         0.2043
     22 H4          2.1628   -4.7469    0.8450 H         1 <0>         0.1083
     23 H5          2.1456   -4.7369   -0.9349 H         1 <0>         0.1083
     24 H6          4.6146   -4.9656   -0.9600 H         1 <0>         0.1137
     25 H7          4.6318   -4.9755    0.8198 H         1 <0>         0.1137
     26 H8          5.7240   -7.2637   -0.0936 H         1 <0>         0.4121
     27 H9          6.5105   -9.4615   -0.1135 H         1 <0>         0.4004
     28 H10         5.4238  -10.7427   -0.1102 H         1 <0>         0.4216
@<TRIPOS>BOND
     1    1    5 1
     2    1    2 2
     3    1   19 1
     4    2    3 1
     5    2   20 1
     6    3    4 1
     7    4    9 ar
     8    4    5 ar
     9    5    6 ar
    10    6    7 ar
    11    7    8 ar
    12    7   21 1
    13    8    9 ar
    14    9   10 1
    15   10   11 1
    16   11   12 1
    17   11   22 1
    18   11   23 1
    19   12   13 1
    20   12   24 1
    21   12   25 1
    22   13   14 2
    23   13   15 am
    24   15   16 am
    25   15   26 1
    26   16   17 2
    27   16   18 am
    28   18   27 1
    29   18   28 1
@<TRIPOS>MOLECULE
ZINC09421745
   30    32     0     0     0
SMALL
USER_CHARGES

@<TRIPOS>ATOM
      1 C1         -0.0158    1.3159    0.0093 C.2       1 <0>         0.0623
      2 C2          1.1833    1.9485    0.0012 C.2       1 <0>        -0.2416
      3 S1          2.2958    0.5522   -0.0169 S.3       1 <0>         0.1097
      4 C3          1.1373   -0.6686   -0.0124 C.2       1 <0>         0.2684
      5 N1          0.0021   -0.0041    0.0020 N.2       1 <0>        -0.5212
      6 N2          1.3325   -2.0448   -0.0216 N.am      1 <0>        -0.6229
      7 C4          0.2716   -2.8760   -0.0160 C.2       1 <0>         0.5136
      8 O1         -0.8535   -2.4232   -0.0028 O.2       1 <0>        -0.4584
      9 C5          0.4833   -4.3680   -0.0260 C.3       1 <0>        -0.1230
     10 C6         -0.8732   -5.0756   -0.0169 C.3       1 <0>        -0.0861
     11 S2         -0.6184   -6.8716   -0.0289 S.3       1 <0>        -0.0392
     12 C7         -2.2512   -7.5338   -0.0169 C.ar      1 <0>         0.2195
     13 C8         -2.4616   -8.9149   -0.0165 C.ar      1 <0>        -0.0545
     14 C9         -3.7809   -9.3949   -0.0068 C.ar      1 <0>         0.3243
     15 N3         -3.7072  -10.7392   -0.0090 N.2       1 <0>        -0.4826
     16 C10        -2.4578  -11.1127   -0.0191 C.2       1 <0>         0.3184
     17 N4         -1.6491  -10.0292   -0.0242 N.pl3     1 <0>        -0.5698
     18 H1         -0.6792  -10.0346   -0.0324 H         1 <0>         0.4355
     19 N5         -4.7851   -8.5115    0.0014 N.ar      1 <0>        -0.4704
     20 C11        -4.5394   -7.2189    0.0004 C.ar      1 <0>         0.3841
     21 N6         -3.3116   -6.7294   -0.0025 N.ar      1 <0>        -0.5023
     22 Cl1        -5.8787   -6.1143    0.0114 Cl        1 <0>         0.0435
     23 H2         -0.9443    1.8674    0.0255 H         1 <0>         0.1773
     24 H3          1.4045    3.0055    0.0045 H         1 <0>         0.2005
     25 H4          2.2323   -2.4069   -0.0322 H         1 <0>         0.4274
     26 H5          1.0345   -4.6507   -0.9228 H         1 <0>         0.1130
     27 H6          1.0515   -4.6603    0.8570 H         1 <0>         0.1130
     28 H7         -1.4245   -4.7929    0.8800 H         1 <0>         0.1110
     29 H8         -1.4415   -4.7833   -0.8999 H         1 <0>         0.1111
     30 H9         -2.1186  -12.1380   -0.0230 H         1 <0>         0.2393
@<TRIPOS>BOND
     1    1    5 1
     2    1    2 2
     3    1   23 1
     4    2    3 1
     5    2   24 1
     6    3    4 1
     7    4    5 2
     8    4    6 1
     9    6    7 am
    10    6   25 1
    11    7    8 2
    12    7    9 1
    13    9   10 1
    14    9   26 1
    15    9   27 1
    16   10   11 1
    17   10   28 1
    18   10   29 1
    19   11   12 1
    20   12   21 ar
    21   12   13 ar
    22   13   17 1
    23   13   14 ar
    24   14   15 1
    25   14   19 ar
    26   15   16 2
    27   16   17 1
    28   16   30 1
    29   17   18 1
    30   19   20 ar
    31   20   21 ar
    32   20   22 1
@<TRIPOS>MOLECULE
ZINC40725276
   49    52     0     0     0
SMALL
USER_CHARGES

@<TRIPOS>ATOM
      1 C1         -0.0051    1.5984    0.6713 C.ar      1 <0>        -0.1114
      2 C2          1.2083    2.2458    0.5322 C.ar      1 <0>        -0.1195
      3 C3          2.3640    1.5132    0.3355 C.ar      1 <0>        -0.0871
      4 C4          2.3062    0.1332    0.2783 C.ar      1 <0>        -0.1118
      5 C5          1.0928   -0.5142    0.4183 C.ar      1 <0>        -0.1004
      6 C6         -0.0630    0.2185    0.6136 C.ar      1 <0>        -0.1220
      7 C7          3.5659   -0.6654    0.0629 C.3       1 <0>         0.1687
      8 N1          4.1667   -0.9889    1.3593 N.pl3     1 <0>        -0.5485
      9 C8          3.8123   -2.1628    2.0168 C.ar      1 <0>         0.4068
     10 C9          3.0286   -3.1089    1.3641 C.ar      1 <0>        -0.2307
     11 C10         2.6841   -4.2715    2.0293 C.ar      1 <0>        -0.0352
     12 C11         3.1367   -4.4497    3.3301 C.ar      1 <0>        -0.2236
     13 C12         3.9112   -3.4691    3.9168 C.ar      1 <0>         0.1462
     14 N2          4.2286   -2.3719    3.2562 N.ar      1 <0>        -0.5249
     15 C13         5.0915   -0.1224    1.9329 C.ar      1 <0>         0.3457
     16 C14         6.4431   -0.2021    1.5932 C.ar      1 <0>         0.1373
     17 C15         7.3287    0.6919    2.1980 C.ar      1 <0>         0.3505
     18 N3          6.8543    1.5794    3.0689 N.ar      1 <0>        -0.4918
     19 C16         5.5702    1.6210    3.3618 C.ar      1 <0>         0.2556
     20 N4          4.7006    0.7992    2.8099 N.ar      1 <0>        -0.4714
     21 N5          8.6847    0.6552    1.8957 N.pl3     1 <0>        -0.6560
     22 C17         9.2229    1.3883    0.7389 C.3       1 <0>         0.1138
     23 C18        10.4177    2.2251    1.2100 C.3       1 <0>         0.0458
     24 O1         11.3357    1.3823    1.9107 O.3       1 <0>        -0.3798
     25 C19        10.7999    0.7929    3.0978 C.3       1 <0>         0.0459
     26 C20         9.6255   -0.1127    2.7266 C.3       1 <0>         0.1133
     27 N6          6.8995   -1.1555    0.6690 N.pl3     1 <0>        -0.8500
     28 H1         -0.9074    2.1706    0.8294 H         1 <0>         0.1218
     29 H2          1.2535    3.3239    0.5769 H         1 <0>         0.1216
     30 H3          3.3119    2.0189    0.2262 H         1 <0>         0.1131
     31 H4          1.0476   -1.5923    0.3733 H         1 <0>         0.1198
     32 H5         -1.0110   -0.2872    0.7226 H         1 <0>         0.1219
     33 H6          3.3255   -1.5875   -0.4663 H         1 <0>         0.0964
     34 H7          4.2704   -0.0803   -0.5282 H         1 <0>         0.0875
     35 H8          2.6934   -2.9376    0.3518 H         1 <0>         0.1336
     36 H9          2.0765   -5.0237    1.5482 H         1 <0>         0.1350
     37 H10         2.8850   -5.3462    3.8772 H         1 <0>         0.1329
     38 H11         4.2653   -3.6036    4.9282 H         1 <0>         0.1542
     39 H12         5.2192    2.3541    4.0729 H         1 <0>         0.1934
     40 H13         9.5480    0.6815   -0.0246 H         1 <0>         0.0641
     41 H14         8.4542    2.0437    0.3296 H         1 <0>         0.0769
     42 H15        10.9155    2.6673    0.3470 H         1 <0>         0.1008
     43 H16        10.0691    3.0155    1.8747 H         1 <0>         0.0569
     44 H17        11.5726    0.2048    3.5930 H         1 <0>         0.1011
     45 H18        10.4527    1.5781    3.7694 H         1 <0>         0.0572
     46 H19         9.1233   -0.4508    3.6330 H         1 <0>         0.0783
     47 H20         9.9919   -0.9732    2.1667 H         1 <0>         0.0634
     48 H21         6.2644   -1.7188    0.1997 H         1 <0>         0.4000
     49 H22         7.8499   -1.2508    0.4998 H         1 <0>         0.4046
@<TRIPOS>BOND
     1    1    6 ar
     2    1    2 ar
     3    1   28 1
     4    2    3 ar
     5    2   29 1
     6    3    4 ar
     7    3   30 1
     8    4    5 ar
     9    4    7 1
    10    5    6 ar
    11    5   31 1
    12    6   32 1
    13    7    8 1
    14    7   33 1
    15    7   34 1
    16    8    9 1
    17    8   15 1
    18    9   14 ar
    19    9   10 ar
    20   10   11 ar
    21   10   35 1
    22   11   12 ar
    23   11   36 1
    24   12   13 ar
    25   12   37 1
    26   13   14 ar
    27   13   38 1
    28   15   20 ar
    29   15   16 ar
    30   16   17 ar
    31   16   27 1
    32   17   18 ar
    33   17   21 1
    34   18   19 ar
    35   19   20 ar
    36   19   39 1
    37   21   26 1
    38   21   22 1
    39   22   23 1
    40   22   40 1
    41   22   41 1
    42   23   24 1
    43   23   42 1
    44   23   43 1
    45   24   25 1
    46   25   26 1
    47   25   44 1
    48   25   45 1
    49   26   46 1
    50   26   47 1
    51   27   48 1
    52   27   49 1
@<TRIPOS>MOLECULE
ZINC54216530
   38    40     0     0     0
SMALL
USER_CHARGES

@<TRIPOS>ATOM
      1 C1         -0.4163    1.7420   -2.1445 C.3       1 <0>         0.0249
      2 O1         -0.4955    0.3155   -2.1157 O.3       1 <0>        -0.3150
      3 C2          0.4879   -0.3699   -2.7555 C.ar      1 <0>         0.1412
      4 C3          1.5109    0.3196   -3.3928 C.ar      1 <0>        -0.2092
      5 C4          2.5101   -0.3729   -4.0433 C.ar      1 <0>        -0.0434
      6 C5          2.4927   -1.7673   -4.0604 C.ar      1 <0>        -0.0620
      7 C6          1.4640   -2.4567   -3.4189 C.ar      1 <0>        -0.0525
      8 C7          0.4707   -1.7582   -2.7658 C.ar      1 <0>        -0.1509
      9 C8          3.5647   -2.5148   -4.7590 C.2       1 <0>         0.1697
     10 C9          4.1383   -3.8052   -4.3533 C.2       1 <0>        -0.2608
     11 C10         5.1027   -4.1152   -5.3002 C.2       1 <0>         0.1645
     12 N1          5.1269   -3.1220   -6.2005 N.pl3     1 <0>        -0.4554
     13 H1          5.7117   -3.0840   -6.9734 H         1 <0>         0.4450
     14 N2          4.1790   -2.1528   -5.8618 N.2       1 <0>        -0.2839
     15 C11         3.7669   -4.6021   -3.1862 C.2       1 <0>         0.1488
     16 C12         3.5741   -5.9632   -3.3128 C.2       1 <0>        -0.1668
     17 C13         3.4671   -6.7829   -2.1435 C.1       1 <0>         0.2446
     18 N3          3.3822   -7.4332   -1.2159 N.1       1 <0>        -0.4031
     19 C14         3.4787   -6.5708   -4.6472 C.2       1 <0>         0.5697
     20 O2          3.4433   -5.8634   -5.6366 O.2       1 <0>        -0.4519
     21 N4          3.4305   -7.9115   -4.7753 N.am      1 <0>        -0.6203
     22 C15         3.3403   -8.4858   -6.0366 C.2       1 <0>         0.2732
     23 N5          3.2971   -7.8861   -7.2069 N.2       1 <0>        -0.5192
     24 C16         3.2109   -8.5804   -8.3265 C.2       1 <0>         0.0618
     25 C17         3.1695   -9.9306   -8.2126 C.2       1 <0>        -0.2428
     26 S1          3.2674  -10.1182   -6.4397 S.3       1 <0>         0.1092
     27 H2          0.5154    2.0637   -1.6791 H         1 <0>         0.0579
     28 H3         -0.4440    2.0867   -3.1782 H         1 <0>         0.0578
     29 H4         -1.2599    2.1638   -1.5982 H         1 <0>         0.1022
     30 H5          1.5237    1.3994   -3.3792 H         1 <0>         0.1336
     31 H6          3.3051    0.1640   -4.5394 H         1 <0>         0.1318
     32 H7          1.4476   -3.5365   -3.4303 H         1 <0>         0.1326
     33 H8         -0.3239   -2.2915   -2.2651 H         1 <0>         0.1372
     34 H9          5.7240   -4.9985   -5.3103 H         1 <0>         0.1803
     35 H10         3.6432   -4.1263   -2.2246 H         1 <0>         0.1517
     36 H11         3.4587   -8.4754   -3.9865 H         1 <0>         0.4240
     37 H12         3.1746   -8.0943   -9.2902 H         1 <0>         0.1759
     38 H13         3.1005  -10.6850   -8.9823 H         1 <0>         0.1995
@<TRIPOS>BOND
     1    1    2 1
     2    1   27 1
     3    1   28 1
     4    1   29 1
     5    2    3 1
     6    3    8 ar
     7    3    4 ar
     8    4    5 ar
     9    4   30 1
    10    5    6 ar
    11    5   31 1
    12    6    7 ar
    13    6    9 1
    14    7    8 ar
    15    7   32 1
    16    8   33 1
    17    9   14 2
    18    9   10 1
    19   10   11 2
    20   10   15 1
    21   11   12 1
    22   11   34 1
    23   12   13 1
    24   12   14 1
    25   15   16 2
    26   15   35 1
    27   16   17 1
    28   16   19 1
    29   17   18 3
    30   19   20 2
    31   19   21 am
    32   21   22 1
    33   21   36 1
    34   22   26 1
    35   22   23 2
    36   23   24 1
    37   24   25 2
    38   24   37 1
    39   25   26 1
    40   25   38 1
@<TRIPOS>MOLECULE
ZINC47578589
   39    41     0     0     0
SMALL
USER_CHARGES

@<TRIPOS>ATOM
      1 C1         -0.0167    1.3771    0.0096 C.ar      1 <0>        -0.1738
      2 C2          1.1844    2.0725    0.0019 C.ar      1 <0>        -0.0352
      3 C3          2.3653    1.3504   -0.0133 C.ar      1 <0>        -0.1468
      4 C4          2.3085   -0.0378   -0.0202 C.ar      1 <0>         0.3742
      5 N1          1.1435   -0.6647   -0.0124 N.ar      1 <0>        -0.4978
      6 C5          0.0021   -0.0041    0.0020 C.ar      1 <0>         0.1399
      7 N2          3.4941   -0.7794   -0.0360 N.pl3     1 <0>        -0.3394
      8 C6          3.6642   -2.0414    0.4065 C.2       1 <0>         0.2903
      9 N3          4.9152   -2.3721    0.2151 N.2       1 <0>        -0.5348
     10 C7          5.5718   -1.3555   -0.3435 C.2       1 <0>         0.2109
     11 N4          4.7435   -0.3601   -0.5216 N.2       1 <0>        -0.2898
     12 C8          3.6945    2.0604   -0.0226 C.3       1 <0>         0.1973
     13 N5          4.2250    2.0857   -1.3880 N.am      1 <0>        -0.7223
     14 C9          5.4115    2.6735   -1.6392 C.2       1 <0>         0.7127
     15 O1          6.0417    3.1827   -0.7326 O.2       1 <0>        -0.5912
     16 N6          5.8995    2.6969   -2.8952 N.am      1 <0>        -0.7439
     17 C10         7.1893    3.3358   -3.1682 C.3       1 <0>         0.1821
     18 C11         7.5034    3.2255   -4.6380 C.ar      1 <0>        -0.1056
     19 C12         8.2000    2.1310   -5.1155 C.ar      1 <0>        -0.0858
     20 C13         8.4884    2.0293   -6.4634 C.ar      1 <0>        -0.1123
     21 C14         8.0797    3.0232   -7.3348 C.ar      1 <0>        -0.0273
     22 C15         7.3826    4.1183   -6.8564 C.ar      1 <0>        -0.1126
     23 C16         7.0899    4.2161   -5.5091 C.ar      1 <0>        -0.0868
     24 Cl1         8.4421    2.8964   -9.0278 Cl        1 <0>        -0.0658
     25 H1         -0.9558    1.9101    0.0259 H         1 <0>         0.1497
     26 H2          1.1974    3.1524    0.0072 H         1 <0>         0.1502
     27 H3         -0.9298   -0.5499    0.0083 H         1 <0>         0.1733
     28 H4          2.9013   -2.6691    0.8429 H         1 <0>         0.2248
     29 H5          6.6184   -1.3556   -0.6098 H         1 <0>         0.2226
     30 H6          3.5635    3.0816    0.3353 H         1 <0>         0.0763
     31 H7          4.3923    1.5338    0.6285 H         1 <0>         0.0813
     32 H8          3.7222    1.6795   -2.1113 H         1 <0>         0.3929
     33 H9          5.3968    2.2906   -3.6185 H         1 <0>         0.3959
     34 H10         7.1411    4.3872   -2.8849 H         1 <0>         0.0771
     35 H11         7.9699    2.8395   -2.5917 H         1 <0>         0.0777
     36 H12         8.5192    1.3555   -4.4350 H         1 <0>         0.1350
     37 H13         9.0329    1.1744   -6.8362 H         1 <0>         0.1363
     38 H14         7.0637    4.8946   -7.5361 H         1 <0>         0.1361
     39 H15         6.5416    5.0686   -5.1362 H         1 <0>         0.1347
@<TRIPOS>BOND
     1    1    6 ar
     2    1    2 ar
     3    1   25 1
     4    2    3 ar
     5    2   26 1
     6    3    4 ar
     7    3   12 1
     8    4    5 ar
     9    4    7 1
    10    5    6 ar
    11    6   27 1
    12    7   11 1
    13    7    8 1
    14    8    9 2
    15    8   28 1
    16    9   10 1
    17   10   11 2
    18   10   29 1
    19   12   13 1
    20   12   30 1
    21   12   31 1
    22   13   14 am
    23   13   32 1
    24   14   15 2
    25   14   16 am
    26   16   17 1
    27   16   33 1
    28   17   18 1
    29   17   34 1
    30   17   35 1
    31   18   23 ar
    32   18   19 ar
    33   19   20 ar
    34   19   36 1
    35   20   21 ar
    36   20   37 1
    37   21   22 ar
    38   21   24 1
    39   22   23 ar
    40   22   38 1
    41   23   39 1
@<TRIPOS>MOLECULE
ZINC66639054
   47    48     0     0     0
SMALL
USER_CHARGES

@<TRIPOS>ATOM
      1 C1         -0.6501    0.7836    0.1403 C.3       1 <0>        -0.1832
      2 C2         -0.4694   -0.7233   -0.0528 C.3       1 <0>         0.1418
      3 C3         -1.8376   -1.3805   -0.2456 C.3       1 <0>        -0.1834
      4 N1          0.3608   -0.9681   -1.2348 N.pl3     1 <0>        -0.4811
      5 C4          1.5630   -1.6316   -1.2492 C.2       1 <0>         0.2654
      6 N2          2.0107   -1.6586   -2.4632 N.2       1 <0>        -0.2736
      7 N3          1.0866   -0.9972   -3.2838 N.pl3     1 <0>        -0.4676
      8 C5          0.0721   -0.5856   -2.4949 C.2       1 <0>         0.4733
      9 S1         -1.3226    0.2689   -3.0004 S.2       1 <0>        -0.5522
     10 C6          2.2489   -2.2297   -0.0481 C.3       1 <0>         0.2047
     11 N4          3.5082   -2.8518   -0.4644 N.am      1 <0>        -0.7140
     12 C7          4.2963   -3.4542    0.4482 C.2       1 <0>         0.6041
     13 O1          4.0042   -3.4097    1.6280 O.2       1 <0>        -0.5312
     14 C8          5.5102   -4.1657    0.0170 C.2       1 <0>        -0.0460
     15 C9          5.9265   -4.3848   -1.2846 C.2       1 <0>        -0.1753
     16 C10         7.1227   -5.0975   -1.1754 C.2       1 <0>         0.0410
     17 N5          7.3710   -5.2723    0.0975 N.2       1 <0>        -0.2619
     18 N6          6.4549   -4.7370    0.8213 N.pl3     1 <0>        -0.2537
     19 C11         6.4257   -4.7418    2.2860 C.3       1 <0>         0.0865
     20 C12         7.9756   -5.5802   -2.3203 C.3       1 <0>         0.0160
     21 C13         8.7339   -4.3971   -2.9255 C.3       1 <0>        -0.1382
     22 C14         8.9756   -6.6190   -1.8086 C.3       1 <0>        -0.1366
     23 C15         7.0832   -6.2145   -3.3890 C.3       1 <0>        -0.1393
     24 H1          0.3246    1.2518    0.2776 H         1 <0>         0.0587
     25 H2         -1.1359    1.2069   -0.7389 H         1 <0>         0.1015
     26 H3         -1.2678    0.9658    1.0197 H         1 <0>         0.0854
     27 H4          0.0163   -1.1466    0.8264 H         1 <0>         0.1092
     28 H5         -2.3233   -0.9572   -1.1248 H         1 <0>         0.1016
     29 H6         -1.7089   -2.4541   -0.3832 H         1 <0>         0.0587
     30 H7         -2.4553   -1.1983    0.6338 H         1 <0>         0.0854
     31 H8          1.1608   -0.8636   -4.2417 H         1 <0>         0.4710
     32 H9          2.4544   -1.4458    0.6808 H         1 <0>         0.1151
     33 H10         1.6025   -2.9835    0.4015 H         1 <0>         0.1143
     34 H11         3.7749   -2.8302   -1.3967 H         1 <0>         0.4179
     35 H12         5.4315   -4.0714   -2.1919 H         1 <0>         0.1597
     36 H13         5.8363   -5.5898    2.6349 H         1 <0>         0.0873
     37 H14         7.4427   -4.8240    2.6695 H         1 <0>         0.0966
     38 H15         5.9763   -3.8153    2.6435 H         1 <0>         0.1058
     39 H16         9.3697   -3.9452   -2.1641 H         1 <0>         0.0565
     40 H17         9.3508   -4.7462   -3.7535 H         1 <0>         0.0645
     41 H18         8.0215   -3.6570   -3.2900 H         1 <0>         0.0579
     42 H19         8.4354   -7.4618   -1.3775 H         1 <0>         0.0561
     43 H20         9.5925   -6.9681   -2.6367 H         1 <0>         0.0590
     44 H21         9.6114   -6.1671   -1.0472 H         1 <0>         0.0611
     45 H22         6.3708   -5.4744   -3.7535 H         1 <0>         0.0587
     46 H23         7.7001   -6.5636   -4.2171 H         1 <0>         0.0649
     47 H24         6.5430   -7.0573   -2.9579 H         1 <0>         0.0572
@<TRIPOS>BOND
     1    1    2 1
     2    1   24 1
     3    1   25 1
     4    1   26 1
     5    2    3 1
     6    2   27 1
     7    2    4 1
     8    3   28 1
     9    3   29 1
    10    3   30 1
    11    4    8 1
    12    4    5 1
    13    5   10 1
    14    5    6 2
    15    6    7 1
    16    7    8 1
    17    7   31 1
    18    8    9 2
    19   10   11 1
    20   10   32 1
    21   10   33 1
    22   11   12 am
    23   11   34 1
    24   12   13 2
    25   12   14 1
    26   14   18 1
    27   14   15 2
    28   15   16 1
    29   15   35 1
    30   16   17 2
    31   16   20 1
    32   17   18 1
    33   18   19 1
    34   19   36 1
    35   19   37 1
    36   19   38 1
    37   20   21 1
    38   20   22 1
    39   20   23 1
    40   21   39 1
    41   21   40 1
    42   21   41 1
    43   22   42 1
    44   22   43 1
    45   22   44 1
    46   23   45 1
    47   23   46 1
    48   23   47 1
@<TRIPOS>MOLECULE
ZINC00101172
   39    41     0     0     0
SMALL
USER_CHARGES
2-[(hydroxy-oxo-BLAHyl)methylamino]propanoic acid
@<TRIPOS>ATOM
      1 C1         -0.2728    4.0070    7.3380 C.3       1 <0>        -0.1578
      2 C2         -1.6691    4.6231    7.2304 C.3       1 <0>        -0.0223
      3 H1         -2.3490    4.1024    7.9047 H         1 <0>         0.1396
      4 C3         -1.6055    6.0806    7.6079 C.2       1 <0>         0.4577
      5 O1         -1.9319    6.9264    6.8091 O.co2     1 <0>        -0.6214
      6 C4         -2.7852    3.1863    5.6327 C.3       1 <0>         0.0526
      7 C5         -3.2707    3.0925    4.2091 C.ar      1 <0>        -0.1979
      8 C6         -4.5534    3.5030    3.8834 C.ar      1 <0>         0.1960
      9 C7         -5.0115    3.4195    2.5703 C.ar      1 <0>        -0.1613
     10 C8         -4.2019    2.9326    1.5850 C.ar      1 <0>        -0.0122
     11 C9         -2.9034    2.5140    1.8959 C.ar      1 <0>        -0.1376
     12 C10        -2.4356    2.5948    3.2208 C.ar      1 <0>         0.1811
     13 O2         -1.1826    2.1872    3.5147 O.3       1 <0>        -0.2735
     14 C11        -0.3635    1.7025    2.5698 C.2       1 <0>         0.5247
     15 O3          0.7579    1.3464    2.8845 O.2       1 <0>        -0.4418
     16 C12        -0.7625    1.5945    1.2204 C.2       1 <0>        -0.2226
     17 C13        -2.0123    1.9874    0.8593 C.2       1 <0>         0.0054
     18 C14        -2.2209    1.7833   -0.6234 C.3       1 <0>        -0.0912
     19 C15        -0.8011    1.6179   -1.2084 C.3       1 <0>        -0.1198
     20 C16        -0.0127    1.0858    0.0080 C.3       1 <0>        -0.0631
     21 O4         -5.3705    3.9901    4.8518 O.3       1 <0>        -0.4855
     22 H2          0.0881    4.1016    8.3622 H         1 <0>         0.1092
     23 H3         -0.3188    2.9527    7.0650 H         1 <0>         0.0690
     24 H4          0.4071    4.5276    6.6637 H         1 <0>         0.0728
     25 H5         -3.6294    3.0717    6.3127 H         1 <0>         0.1453
     26 H6         -2.0572    2.3972    5.8210 H         1 <0>         0.1383
     27 H7         -6.0138    3.7423    2.3303 H         1 <0>         0.1542
     28 H8         -4.5622    2.8711    0.5687 H         1 <0>         0.1530
     29 H9         -2.7115    2.6532   -1.0602 H         1 <0>         0.0922
     30 H10        -2.8120    0.8855   -0.8043 H         1 <0>         0.1013
     31 H11        -0.4031    2.5765   -1.5412 H         1 <0>         0.0817
     32 H12        -0.7969    0.8931   -2.0224 H         1 <0>         0.0908
     33 H13         0.0021   -0.0041    0.0020 H         1 <0>         0.0898
     34 H14         1.0045    1.4775    0.0004 H         1 <0>         0.0870
     35 H15        -5.3065    4.9470    4.9758 H         1 <0>         0.4097
     36 O5         -1.1863    6.4393    8.8316 O.co2     1 <0>        -0.6978
     37 N1         -2.1546    4.5031    5.8426 N.4       1 <0>        -0.4980
     38 H16        -1.3631    4.6064    5.1968 H         1 <0>         0.4239
     39 H17        -2.8440    5.2418    5.6599 H         1 <0>         0.4282
@<TRIPOS>BOND
     1    1    2 1
     2    1   22 1
     3    1   23 1
     4    1   24 1
     5    2    3 1
     6    2    4 1
     7    2   37 1
     8    4    5 2
     9    4   36 1
    10    6    7 1
    11    6   25 1
    12    6   26 1
    13    6   37 1
    14    7   12 ar
    15    7    8 ar
    16    8    9 ar
    17    8   21 1
    18    9   10 ar
    19    9   27 1
    20   10   11 ar
    21   10   28 1
    22   11   17 1
    23   11   12 ar
    24   12   13 1
    25   13   14 1
    26   14   15 2
    27   14   16 1
    28   16   20 1
    29   16   17 2
    30   17   18 1
    31   18   19 1
    32   18   29 1
    33   18   30 1
    34   19   20 1
    35   19   31 1
    36   19   32 1
    37   20   33 1
    38   20   34 1
    39   21   35 1
    40   37   38 1
    41   37   39 1
@<TRIPOS>MOLECULE
ZINC36771197
   35    36     0     0     0
SMALL
USER_CHARGES

@<TRIPOS>ATOM
      1 C1         -0.0178    1.4608    0.0101 C.3       1 <0>         0.0800
      2 N1          0.0021   -0.0041    0.0020 N.pl3     1 <0>        -0.9960
      3 C2          0.0241   -0.7433    1.2666 C.3       1 <0>         0.1703
      4 C3         -1.3844   -0.9091    1.7762 C.ar      1 <0>        -0.1721
      5 C4         -1.9467    0.0462    2.6093 C.ar      1 <0>        -0.0585
      6 C5         -3.2454   -0.1480    3.0537 C.ar      1 <0>        -0.1782
      7 C6         -3.9318   -1.2794    2.6545 C.ar      1 <0>         0.1035
      8 N2         -3.3650   -2.1674    1.8615 N.ar      1 <0>        -0.4849
      9 C7         -2.1339   -2.0123    1.4146 C.ar      1 <0>         0.1183
     10 S1         -0.0004   -0.8243   -1.4366 S.o2      1 <0>         2.6898
     11 O1         -0.5312   -2.1147   -1.1675 O.2       1 <0>        -0.9492
     12 O2         -0.5723    0.0488   -2.4009 O.2       1 <0>        -0.9498
     13 C8          1.6818   -1.0594   -1.9051 C.ar      1 <0>        -0.6361
     14 C9          2.3221   -0.1078   -2.6771 C.ar      1 <0>        -0.0631
     15 C10         3.6424   -0.2866   -3.0475 C.ar      1 <0>        -0.1157
     16 C11         4.3273   -1.4213   -2.6453 C.ar      1 <0>         0.0816
     17 C12         3.6829   -2.3807   -1.8674 C.ar      1 <0>         0.1779
     18 C13         2.3598   -2.1920   -1.4952 C.ar      1 <0>        -0.0896
     19 N3          4.3699   -3.5295   -1.4584 N.pl3     1 <0>        -0.8698
     20 O3          5.6257   -1.5987   -3.0093 O.3       1 <0>        -0.4912
     21 H1          1.0048    1.8381    0.0023 H         1 <0>         0.0605
     22 H2         -0.5450    1.8219   -0.8730 H         1 <0>         0.0855
     23 H3         -0.5280    1.8123    0.9069 H         1 <0>         0.0777
     24 H4          0.4703   -1.7247    1.1061 H         1 <0>         0.0948
     25 H5          0.6131   -0.1919    1.9996 H         1 <0>         0.0948
     26 H6         -1.3861    0.9206    2.9052 H         1 <0>         0.1342
     27 H7         -3.7148    0.5754    3.7039 H         1 <0>         0.1364
     28 H8         -4.9439   -1.4381    2.9963 H         1 <0>         0.1567
     29 H9         -1.7049   -2.7585    0.7622 H         1 <0>         0.1703
     30 H10         1.7896    0.7774   -2.9920 H         1 <0>         0.1418
     31 H11         4.1394    0.4585   -3.6509 H         1 <0>         0.1401
     32 H12         1.8586   -2.9316   -0.8884 H         1 <0>         0.1427
     33 H13         5.2959   -3.6585   -1.7165 H         1 <0>         0.4046
     34 H14         3.9199   -4.1966   -0.9168 H         1 <0>         0.4030
     35 H15         6.2637   -1.2318   -2.3819 H         1 <0>         0.3896
@<TRIPOS>BOND
     1    1    2 1
     2    1   21 1
     3    1   22 1
     4    1   23 1
     5    2    3 1
     6    2   10 1
     7    3    4 1
     8    3   24 1
     9    3   25 1
    10    4    9 ar
    11    4    5 ar
    12    5    6 ar
    13    5   26 1
    14    6    7 ar
    15    6   27 1
    16    7    8 ar
    17    7   28 1
    18    8    9 ar
    19    9   29 1
    20   10   11 2
    21   10   12 2
    22   10   13 1
    23   13   18 ar
    24   13   14 ar
    25   14   15 ar
    26   14   30 1
    27   15   16 ar
    28   15   31 1
    29   16   17 ar
    30   16   20 1
    31   17   18 ar
    32   17   19 1
    33   18   32 1
    34   19   33 1
    35   19   34 1
    36   20   35 1
@<TRIPOS>MOLECULE
ZINC40378744
   30    31     0     0     0
SMALL
USER_CHARGES

@<TRIPOS>ATOM
      1 C1         -0.0231    1.3658    0.0400 C.ar      1 <0>        -0.0222
      2 C2          1.1607    2.0809    0.0254 C.ar      1 <0>        -0.1059
      3 C3          2.3712    1.4150   -0.0003 C.ar      1 <0>        -0.0144
      4 C4          2.3976    0.0251   -0.0110 C.ar      1 <0>         0.1400
      5 C5          1.2070   -0.6887    0.0042 C.ar      1 <0>        -0.0198
      6 C6          0.0003   -0.0165    0.0294 C.ar      1 <0>        -0.6529
      7 S1         -1.5111   -0.9221    0.0482 S.o2      1 <0>         2.7043
      8 O1         -1.2103   -2.2031    0.5846 O.2       1 <0>        -0.9550
      9 O2         -2.4900   -0.0667    0.6218 O.2       1 <0>        -0.9572
     10 N1         -1.9576   -1.1621   -1.5283 N.pl3     1 <0>        -1.2471
     11 N2          3.6211   -0.6527   -0.0375 N.am      1 <0>        -0.6622
     12 C7          3.6886   -1.9020   -0.5386 C.2       1 <0>         0.5642
     13 O3          2.7106   -2.4018   -1.0587 O.2       1 <0>        -0.4985
     14 C8          4.9549   -2.6657   -0.4555 C.ar      1 <0>        -0.0930
     15 C9          6.0903   -2.1116    0.1439 C.ar      1 <0>        -0.1417
     16 C10         7.2504   -2.8595    0.2002 C.ar      1 <0>         0.1019
     17 N3          7.2955   -4.0776   -0.3015 N.ar      1 <0>        -0.4625
     18 C11         6.2487   -4.6372   -0.8748 C.ar      1 <0>         0.1025
     19 C12         5.0467   -3.9631   -0.9691 C.ar      1 <0>        -0.1086
     20 Cl1         3.8569    2.3128   -0.0198 Cl        1 <0>        -0.0441
     21 H1         -0.9679    1.8885    0.0642 H         1 <0>         0.1578
     22 H2          1.1389    3.1606    0.0337 H         1 <0>         0.1537
     23 H3          1.2240   -1.7686   -0.0044 H         1 <0>         0.1752
     24 H4         -1.4042   -0.8182   -2.2469 H         1 <0>         0.4180
     25 H5         -2.7726   -1.6467   -1.7332 H         1 <0>         0.4232
     26 H6          4.4208   -0.2235    0.3048 H         1 <0>         0.4170
     27 H7          6.0608   -1.1139    0.5563 H         1 <0>         0.1383
     28 H8          8.1326   -2.4402    0.6611 H         1 <0>         0.1667
     29 H9          6.3309   -5.6379   -1.2727 H         1 <0>         0.1691
     30 H10         4.1919   -4.4294   -1.4363 H         1 <0>         0.1534
@<TRIPOS>BOND
     1    1    6 ar
     2    1    2 ar
     3    1   21 1
     4    2    3 ar
     5    2   22 1
     6    3    4 ar
     7    3   20 1
     8    4    5 ar
     9    4   11 1
    10    5    6 ar
    11    5   23 1
    12    6    7 1
    13    7    8 2
    14    7    9 2
    15    7   10 1
    16   10   24 1
    17   10   25 1
    18   11   12 am
    19   11   26 1
    20   12   13 2
    21   12   14 1
    22   14   19 ar
    23   14   15 ar
    24   15   16 ar
    25   15   27 1
    26   16   17 ar
    27   16   28 1
    28   17   18 ar
    29   18   19 ar
    30   18   29 1
    31   19   30 1
@<TRIPOS>MOLECULE
ZINC50252669
   41    42     0     0     0
SMALL
USER_CHARGES

@<TRIPOS>ATOM
      1 C1         -0.0184    1.5028    0.0103 C.3       1 <0>        -0.1087
      2 C2          0.0021   -0.0041    0.0020 C.2       1 <0>         0.1672
      3 C3          0.0080   -0.8179   -1.1355 C.2       1 <0>        -0.8209
      4 C4          0.0279   -2.1072   -0.7249 C.2       1 <0>         0.2128
      5 N1          0.0343   -2.1090    0.6245 N.pl3     1 <0>        -0.3597
      6 N2          0.0231   -0.7768    1.0576 N.2       1 <0>        -0.2941
      7 C5          0.0548   -3.2948    1.4847 C.3       1 <0>         0.0893
      8 C6          0.0401   -3.3230   -1.6152 C.3       1 <0>        -0.1422
      9 S1         -0.0085   -0.2626   -2.8076 S.o2      1 <0>         2.7255
     10 O1         -0.5486   -1.3241   -3.5827 O.2       1 <0>        -0.9617
     11 O2         -0.5776    1.0394   -2.7975 O.2       1 <0>        -0.9587
     12 N3          1.5687   -0.0862   -3.2805 N.pl3     1 <0>        -1.1111
     13 C7          2.4430   -1.2585   -3.3669 C.3       1 <0>         0.1985
     14 H1          1.8388   -2.1514   -3.5271 H         1 <0>         0.0956
     15 C8          3.2320   -1.4035   -2.0641 C.3       1 <0>        -0.1695
     16 C9          3.4008   -1.0870   -4.5177 C.ar      1 <0>        -0.1481
     17 C10         3.9735    0.1480   -4.7605 C.ar      1 <0>        -0.0593
     18 C11         4.8516    0.3086   -5.8142 C.ar      1 <0>        -0.1960
     19 C12         5.1594   -0.7723   -6.6307 C.ar      1 <0>         0.2180
     20 C13         4.5823   -2.0115   -6.3840 C.ar      1 <0>        -0.1954
     21 C14         3.7093   -2.1665   -5.3251 C.ar      1 <0>        -0.0585
     22 N4          6.0467   -0.6133   -7.6976 N.pl3     1 <0>        -0.8783
     23 H2          1.0042    1.8801    0.0026 H         1 <0>         0.0853
     24 H3         -0.5455    1.8639   -0.8728 H         1 <0>         0.1113
     25 H4         -0.5286    1.8543    0.9071 H         1 <0>         0.0819
     26 H5          1.0875   -3.5746    1.6932 H         1 <0>         0.0832
     27 H6         -0.4577   -3.0734    2.4209 H         1 <0>         0.0960
     28 H7         -0.4500   -4.1185    0.9800 H         1 <0>         0.0934
     29 H8          1.0706   -3.6020   -1.8350 H         1 <0>         0.0958
     30 H9         -0.4598   -4.1489   -1.1091 H         1 <0>         0.0854
     31 H10        -0.4816   -3.0976   -2.5453 H         1 <0>         0.1270
     32 H11         1.9136    0.7934   -3.5003 H         1 <0>         0.4172
     33 H12         2.5392   -1.5274   -1.2317 H         1 <0>         0.0581
     34 H13         3.8825   -2.2757   -2.1284 H         1 <0>         0.0698
     35 H14         3.8362   -0.5105   -1.9039 H         1 <0>         0.0660
     36 H15         3.7335    0.9880   -4.1255 H         1 <0>         0.1206
     37 H16         5.2983    1.2735   -6.0035 H         1 <0>         0.1210
     38 H17         4.8191   -2.8538   -7.0171 H         1 <0>         0.1216
     39 H18         3.2637   -3.1307   -5.1301 H         1 <0>         0.1243
     40 H19         6.4488    0.2526   -7.8691 H         1 <0>         0.3987
     41 H20         6.2609   -1.3688   -8.2670 H         1 <0>         0.3988
@<TRIPOS>BOND
     1    1    2 1
     2    1   23 1
     3    1   24 1
     4    1   25 1
     5    2    6 2
     6    2    3 1
     7    3    4 2
     8    3    9 1
     9    4    5 1
    10    4    8 1
    11    5    6 1
    12    5    7 1
    13    7   26 1
    14    7   27 1
    15    7   28 1
    16    8   29 1
    17    8   30 1
    18    8   31 1
    19    9   10 2
    20    9   11 2
    21    9   12 1
    22   12   13 1
    23   12   32 1
    24   13   14 1
    25   13   15 1
    26   13   16 1
    27   15   33 1
    28   15   34 1
    29   15   35 1
    30   16   21 ar
    31   16   17 ar
    32   17   18 ar
    33   17   36 1
    34   18   19 ar
    35   18   37 1
    36   19   20 ar
    37   19   22 1
    38   20   21 ar
    39   20   38 1
    40   21   39 1
    41   22   40 1
    42   22   41 1
@<TRIPOS>MOLECULE
ZINC55187510
   37    38     0     0     0
SMALL
USER_CHARGES

@<TRIPOS>ATOM
      1 C1          0.4708    1.4909    0.9403 C.3       1 <0>         0.0864
      2 N1          0.3709    0.0409    0.7565 N.am      1 <0>        -0.7320
      3 C2         -0.8183   -0.5764    0.9018 C.2       1 <0>         0.5570
      4 O1         -1.8080    0.0699    1.1853 O.2       1 <0>        -0.5352
      5 C3         -0.9192   -2.0397    0.7163 C.ar      1 <0>        -0.1338
      6 C4          0.2164   -2.7856    0.3964 C.ar      1 <0>        -0.0890
      7 C5          0.1155   -4.1507    0.2252 C.ar      1 <0>        -0.1007
      8 C6         -1.1079   -4.7806    0.3694 C.ar      1 <0>        -0.0816
      9 C7         -2.2375   -4.0470    0.6860 C.ar      1 <0>        -0.1127
     10 C8         -2.1492   -2.6821    0.8661 C.ar      1 <0>        -0.0622
     11 C9         -1.2107   -6.2722    0.1804 C.3       1 <0>         0.1513
     12 N2         -0.9888   -6.9434    1.4635 N.am      1 <0>        -0.5959
     13 C10        -2.1216   -7.2243    2.3489 C.3       1 <0>         0.0910
     14 C11         0.2577   -7.3027    1.8293 C.2       1 <0>         0.5907
     15 O2          1.2093   -6.9821    1.1427 O.2       1 <0>        -0.5319
     16 C12         0.4674   -8.0827    3.0596 C.2       1 <0>         0.0408
     17 C13         1.7368   -8.3402    3.5127 C.2       1 <0>        -0.1571
     18 S1          1.3792   -9.2890    4.9851 S.3       1 <0>         0.0078
     19 C14        -0.4025   -9.2501    4.8543 C.2       1 <0>         0.3785
     20 N3         -0.5746   -8.5455    3.7542 N.2       1 <0>        -0.5564
     21 N4         -1.3529   -9.8086    5.6922 N.pl3     1 <0>        -0.7943
     22 H1          1.5022    1.8068    0.7836 H         1 <0>         0.0778
     23 H2         -0.1764    1.9937    0.2217 H         1 <0>         0.0622
     24 H3          0.1610    1.7511    1.9525 H         1 <0>         0.0618
     25 H4          1.1606   -0.4748    0.5303 H         1 <0>         0.4021
     26 H5          1.1718   -2.2950    0.2829 H         1 <0>         0.1257
     27 H6          0.9934   -4.7291   -0.0224 H         1 <0>         0.1375
     28 H7         -3.1896   -4.5447    0.7969 H         1 <0>         0.1293
     29 H8         -3.0308   -2.1113    1.1180 H         1 <0>         0.1366
     30 H9         -2.2030   -6.5234   -0.1942 H         1 <0>         0.0918
     31 H10        -0.4579   -6.6003   -0.5364 H         1 <0>         0.0961
     32 H11        -2.4719   -8.2424    2.1789 H         1 <0>         0.0586
     33 H12        -1.8069   -7.1169    3.3869 H         1 <0>         0.0938
     34 H13        -2.9290   -6.5226    2.1396 H         1 <0>         0.0574
     35 H14         2.6895   -8.0500    3.0948 H         1 <0>         0.2068
     36 H15        -1.0751  -10.3034    6.4789 H         1 <0>         0.4228
     37 H16        -2.2964   -9.7051    5.4924 H         1 <0>         0.4190
@<TRIPOS>BOND
     1    1    2 1
     2    1   22 1
     3    1   23 1
     4    1   24 1
     5    2    3 am
     6    2   25 1
     7    3    4 2
     8    3    5 1
     9    5   10 ar
    10    5    6 ar
    11    6    7 ar
    12    6   26 1
    13    7    8 ar
    14    7   27 1
    15    8    9 ar
    16    8   11 1
    17    9   10 ar
    18    9   28 1
    19   10   29 1
    20   11   12 1
    21   11   30 1
    22   11   31 1
    23   12   13 1
    24   12   14 am
    25   13   32 1
    26   13   33 1
    27   13   34 1
    28   14   15 2
    29   14   16 1
    30   16   20 1
    31   16   17 2
    32   17   18 1
    33   17   35 1
    34   18   19 1
    35   19   20 2
    36   19   21 1
    37   21   36 1
    38   21   37 1
@<TRIPOS>MOLECULE
ZINC05145878
   51    53     0     0     0
SMALL
USER_CHARGES
methyl [2-(4-acetylbenzoyl)amino-6-methyl-4,5,6,7-tetrahydrobenzothiophen-3-yl]carbonylaminoformate
@<TRIPOS>ATOM
      1 C1         -0.0067    1.5291    0.0104 C.3       1 <0>        -0.1478
      2 C2          0.0088   -0.0007   -0.0010 C.3       1 <0>        -0.0876
      3 H1         -1.0144   -0.3764   -0.0065 H         1 <0>         0.0774
      4 C3          0.7381   -0.5160    1.2431 C.3       1 <0>        -0.1135
      5 C4          0.5462   -2.0283    1.3696 C.3       1 <0>        -0.0626
      6 C5          0.9381   -2.6844    0.0513 C.2       1 <0>        -0.0632
      7 C6          1.0160   -1.9636   -1.0883 C.2       1 <0>        -0.2025
      8 S1          1.4962   -3.1302   -2.3304 S.3       1 <0>         0.2508
      9 C7          1.5925   -4.5570   -1.3522 C.2       1 <0>         0.0782
     10 C8          1.2507   -4.0967   -0.0869 C.2       1 <0>        -0.2311
     11 C9          1.2068   -5.0012    1.0646 C.2       1 <0>         0.5892
     12 O1          0.1743   -5.5818    1.3431 O.2       1 <0>        -0.4472
     13 N1          2.3098   -5.1902    1.8155 N.am      1 <0>        -0.6575
     14 C10         2.2694   -6.0223    2.8750 C.2       1 <0>         0.6379
     15 O2          1.2387   -6.6019    3.1530 O.2       1 <0>        -0.5048
     16 O3          3.3710   -6.2111    3.6250 O.3       1 <0>        -0.3646
     17 C11         3.2543   -7.1211    4.7504 C.3       1 <0>         0.0527
     18 N2          1.9285   -5.8438   -1.7380 N.am      1 <0>        -0.6172
     19 C12         2.2344   -6.1033   -3.0247 C.2       1 <0>         0.5562
     20 O4          2.2153   -5.2079   -3.8463 O.2       1 <0>        -0.4847
     21 C13         2.5935   -7.4785   -3.4371 C.ar      1 <0>        -0.1080
     22 C14         2.6208   -8.5054   -2.4918 C.ar      1 <0>        -0.0966
     23 C15         2.9502   -9.7868   -2.8754 C.ar      1 <0>        -0.0786
     24 C16         3.2676  -10.0567   -4.2100 C.ar      1 <0>        -0.1374
     25 C17         3.2451   -9.0263   -5.1549 C.ar      1 <0>        -0.0670
     26 C18         2.9102   -7.7467   -4.7700 C.ar      1 <0>        -0.0612
     27 C19         3.6252  -11.4261   -4.6207 C.2       1 <0>         0.3908
     28 O5          3.8023  -11.6808   -5.7926 O.2       1 <0>        -0.4453
     29 C20         3.7708  -12.5099   -3.5837 C.3       1 <0>        -0.1937
     30 C21         0.7497   -0.4987   -1.2504 C.3       1 <0>        -0.0316
     31 H2          1.0173    1.9028    0.0109 H         1 <0>         0.0575
     32 H3         -0.5262    1.8939   -0.8757 H         1 <0>         0.0583
     33 H4         -0.5221    1.8806    0.9042 H         1 <0>         0.0588
     34 H5          1.8015   -0.2918    1.1583 H         1 <0>         0.0686
     35 H6          0.3352   -0.0246    2.1286 H         1 <0>         0.0722
     36 H7          1.1788   -2.4112    2.1705 H         1 <0>         0.0711
     37 H8         -0.4981   -2.2468    1.5927 H         1 <0>         0.0817
     38 H9          3.1329   -4.7274    1.5935 H         1 <0>         0.4225
     39 H10         2.4919   -6.7537    5.4372 H         1 <0>         0.0684
     40 H11         2.9723   -8.1104    4.3900 H         1 <0>         0.0679
     41 H12         4.2112   -7.1824    5.2688 H         1 <0>         0.1100
     42 H13         1.9437   -6.5584   -1.0823 H         1 <0>         0.4186
     43 H14         2.3796   -8.2960   -1.4601 H         1 <0>         0.1307
     44 H15         2.9673  -10.5819   -2.1446 H         1 <0>         0.1459
     45 H16         3.4897   -9.2336   -6.1862 H         1 <0>         0.1468
     46 H17         2.8924   -6.9508   -5.4998 H         1 <0>         0.1492
     47 H18         3.5112  -12.1506   -2.6873 H         1 <0>         0.0755
     48 H19         3.1230  -13.3480   -3.8408 H         1 <0>         0.0978
     49 H20         4.8068  -12.8473   -3.5538 H         1 <0>         0.0998
     50 H21         0.1327   -0.3332   -2.1336 H         1 <0>         0.0831
     51 H22         1.6934    0.0366   -1.3555 H         1 <0>         0.0859
@<TRIPOS>BOND
     1    1    2 1
     2    1   31 1
     3    1   32 1
     4    1   33 1
     5    2    3 1
     6    2   30 1
     7    2    4 1
     8    4    5 1
     9    4   34 1
    10    4   35 1
    11    5    6 1
    12    5   36 1
    13    5   37 1
    14    6   10 1
    15    6    7 2
    16    7    8 1
    17    7   30 1
    18    8    9 1
    19    9   10 2
    20    9   18 1
    21   10   11 1
    22   11   12 2
    23   11   13 am
    24   13   14 am
    25   13   38 1
    26   14   15 2
    27   14   16 1
    28   16   17 1
    29   17   39 1
    30   17   40 1
    31   17   41 1
    32   18   19 am
    33   18   42 1
    34   19   20 2
    35   19   21 1
    36   21   26 ar
    37   21   22 ar
    38   22   23 ar
    39   22   43 1
    40   23   24 ar
    41   23   44 1
    42   24   25 ar
    43   24   27 1
    44   25   26 ar
    45   25   45 1
    46   26   46 1
    47   27   28 2
    48   27   29 1
    49   29   47 1
    50   29   48 1
    51   29   49 1
    52   30   50 1
    53   30   51 1
@<TRIPOS>MOLECULE
ZINC25147515
   55    58     0     0     0
SMALL
USER_CHARGES
6-[[4-[2-(p-tolyl)ethyl]-1-piperidyl]sulfonyl]-1,4-dihydroquinoxaline-2,3-dione
@<TRIPOS>ATOM
      1 C1        -10.2631    9.7283   -7.5880 C.3       1 <0>        -0.1187
      2 C2         -9.0528    9.0651   -6.9828 C.ar      1 <0>        -0.0908
      3 C3         -8.5140    9.5515   -5.8063 C.ar      1 <0>        -0.1186
      4 C4         -7.4044    8.9426   -5.2506 C.ar      1 <0>        -0.1140
      5 C5         -6.8337    7.8471   -5.8712 C.ar      1 <0>        -0.0875
      6 C6         -7.3693    7.3639   -7.0504 C.ar      1 <0>        -0.1142
      7 C7         -8.4816    7.9701   -7.6038 C.ar      1 <0>        -0.1196
      8 C8         -5.6240    7.1833   -5.2653 C.3       1 <0>        -0.0826
      9 C9         -6.0747    6.0820   -4.3035 C.3       1 <0>        -0.1095
     10 C10        -4.8465    5.4081   -3.6885 C.3       1 <0>        -0.0861
     11 C11        -5.2926    4.2268   -2.8237 C.3       1 <0>        -0.1290
     12 C12        -4.0587    3.5335   -2.2375 C.3       1 <0>         0.1142
     13 N1         -3.2495    4.5315   -1.5248 N.pl3     1 <0>        -0.9940
     14 C13        -2.8472    5.7529   -2.2354 C.3       1 <0>         0.1143
     15 C14        -4.0900    6.4187   -2.8234 C.3       1 <0>        -0.1311
     16 S1         -2.8053    4.2875    0.0517 S.o2      1 <0>         2.6921
     17 O1         -3.7552    3.3883    0.6069 O.2       1 <0>        -0.9508
     18 O2         -2.5567    5.5717    0.6071 O.2       1 <0>        -0.9486
     19 C15        -1.2608    3.4397    0.0325 C.ar      1 <0>        -0.6712
     20 C16        -0.0782    4.1604    0.0250 C.ar      1 <0>        -0.0078
     21 C17         1.1354    3.5043    0.0100 C.ar      1 <0>        -0.1396
     22 C18         1.1751    2.1143    0.0022 C.ar      1 <0>         0.1778
     23 C19        -0.0168    1.3878    0.0097 C.ar      1 <0>         0.1000
     24 C20        -1.2339    2.0602    0.0307 C.ar      1 <0>        -0.0175
     25 N2          0.0021   -0.0041    0.0020 N.am      1 <0>        -0.6475
     26 H1         -0.9429   -0.5670    0.0079 H         1 <0>         0.4535
     27 C21         1.1778   -0.6643   -0.0127 C.2       1 <0>         0.5082
     28 O3          1.1994   -1.8787   -0.0198 O.2       1 <0>        -0.4656
     29 C22         2.4514    0.1120   -0.0206 C.2       1 <0>         0.5092
     30 O4          3.5208   -0.4639   -0.0342 O.2       1 <0>        -0.4608
     31 N3          2.4035    1.4596   -0.0129 N.am      1 <0>        -0.6501
     32 H2          3.3369    2.0416   -0.0186 H         1 <0>         0.4539
     33 H3        -10.5714   10.5747   -6.9568 H         1 <0>         0.0651
     34 H4        -11.0856    9.0008   -7.6533 H         1 <0>         0.0695
     35 H5        -10.0157   10.0934   -8.5957 H         1 <0>         0.0694
     36 H6         -8.9603   10.4070   -5.3211 H         1 <0>         0.1206
     37 H7         -6.9834    9.3226   -4.3315 H         1 <0>         0.1206
     38 H8         -6.9209    6.5107   -7.5375 H         1 <0>         0.1200
     39 H9         -8.9028    7.5899   -8.5227 H         1 <0>         0.1203
     40 H10        -5.0086    6.7434   -6.0639 H         1 <0>         0.0715
     41 H11        -5.0324    7.9304   -4.7159 H         1 <0>         0.0749
     42 H12        -6.6901    6.5219   -3.5049 H         1 <0>         0.0656
     43 H13        -6.6664    5.3349   -4.8529 H         1 <0>         0.0656
     44 H14        -4.1863    5.0461   -4.4905 H         1 <0>         0.0749
     45 H15        -5.9327    4.5915   -2.0069 H         1 <0>         0.0711
     46 H16        -5.8573    3.5129   -3.4413 H         1 <0>         0.0784
     47 H17        -4.3779    2.7451   -1.5400 H         1 <0>         0.0953
     48 H18        -3.4682    3.0865   -3.0508 H         1 <0>         0.0722
     49 H19        -2.3554    6.4411   -1.5322 H         1 <0>         0.0957
     50 H20        -2.1479    5.4933   -3.0439 H         1 <0>         0.0721
     51 H21        -3.7892    7.2776   -3.4413 H         1 <0>         0.0812
     52 H22        -4.7424    6.7642   -2.0079 H         1 <0>         0.0714
     53 H23        -0.1061    5.2400    0.0314 H         1 <0>         0.1518
     54 H24         2.0550    4.0706    0.0046 H         1 <0>         0.1500
     55 H25        -2.1586    1.5024    0.0411 H         1 <0>         0.1545
@<TRIPOS>BOND
     1    1    2 1
     2    1   33 1
     3    1   34 1
     4    1   35 1
     5    2    7 ar
     6    2    3 ar
     7    3    4 ar
     8    3   36 1
     9    4    5 ar
    10    4   37 1
    11    5    6 ar
    12    5    8 1
    13    6    7 ar
    14    6   38 1
    15    7   39 1
    16    8    9 1
    17    8   40 1
    18    8   41 1
    19    9   10 1
    20    9   42 1
    21    9   43 1
    22   10   15 1
    23   10   11 1
    24   10   44 1
    25   11   12 1
    26   11   45 1
    27   11   46 1
    28   12   13 1
    29   12   47 1
    30   12   48 1
    31   13   14 1
    32   13   16 1
    33   14   15 1
    34   14   49 1
    35   14   50 1
    36   15   51 1
    37   15   52 1
    38   16   17 2
    39   16   18 2
    40   16   19 1
    41   19   24 ar
    42   19   20 ar
    43   20   21 ar
    44   20   53 1
    45   21   22 ar
    46   21   54 1
    47   22   31 1
    48   22   23 ar
    49   23   24 ar
    50   23   25 1
    51   24   55 1
    52   25   26 1
    53   25   27 am
    54   27   28 2
    55   27   29 1
    56   29   30 2
    57   29   31 am
    58   31   32 1
@<TRIPOS>MOLECULE
ZINC40340042
   57    61     0     0     0
SMALL
USER_CHARGES

@<TRIPOS>ATOM
      1 C1         -0.0184    1.5028    0.0103 C.3       1 <0>        -0.1187
      2 C2          0.0021   -0.0041    0.0020 C.ar      1 <0>        -0.0754
      3 C3          0.0057   -0.6866   -1.2010 C.ar      1 <0>        -0.1201
      4 C4          0.0244   -2.0666   -1.2144 C.ar      1 <0>        -0.0860
      5 C5          0.0396   -2.7721   -0.0132 C.ar      1 <0>        -0.0181
      6 C6          0.0359   -2.0797    1.1956 C.ar      1 <0>        -0.0898
      7 C7          0.0229   -0.6995    1.1975 C.ar      1 <0>        -0.1190
      8 C8          0.0593   -4.2565   -0.0214 C.2       1 <0>         0.1174
      9 C9          0.7168   -5.0809    0.8977 C.2       1 <0>        -0.1696
     10 C10         0.4568   -6.3766    0.4946 C.2       1 <0>        -0.0603
     11 N1         -0.3258   -6.2773   -0.6207 N.pl3     1 <0>        -0.3330
     12 H1         -0.6690   -7.0287   -1.1291 H         1 <0>         0.4538
     13 N2         -0.5446   -5.0402   -0.8929 N.2       1 <0>        -0.2432
     14 C11         1.1224   -7.2967    1.4235 C.2       1 <0>         0.5986
     15 O1          1.0877   -8.5099    1.3433 O.2       1 <0>        -0.5116
     16 N3          1.7772   -6.6085    2.3759 N.am      1 <0>        -0.5958
     17 C12         1.5787   -5.1748    2.1269 C.3       1 <0>         0.2514
     18 H2          1.0736   -4.7131    2.9753 H         1 <0>         0.1123
     19 C13         2.9050   -4.5021    1.8831 C.ar      1 <0>        -0.1065
     20 C14         3.8855   -5.1524    1.1569 C.ar      1 <0>        -0.0757
     21 C15         5.1023   -4.5382    0.9323 C.ar      1 <0>        -0.1484
     22 C16         5.3399   -3.2674    1.4358 C.ar      1 <0>         0.1169
     23 C17         4.3542   -2.6168    2.1637 C.ar      1 <0>        -0.1420
     24 C18         3.1372   -3.2333    2.3811 C.ar      1 <0>        -0.0779
     25 O2          6.5362   -2.6612    1.2167 O.3       1 <0>        -0.4992
     26 C19         2.5543   -7.1894    3.4736 C.3       1 <0>         0.1439
     27 C20         4.0070   -7.3718    3.0293 C.3       1 <0>         0.0269
     28 N4          4.7862   -7.9543    4.1300 N.3       1 <0>        -0.5326
     29 C21         4.8874   -7.0166    5.2577 C.3       1 <0>         0.0130
     30 C22         5.6540   -7.6843    6.4025 C.3       1 <0>         0.0632
     31 O3          6.9371   -8.1032    5.9298 O.3       1 <0>        -0.3843
     32 C23         6.8759   -9.0176    4.8319 C.3       1 <0>         0.0637
     33 C24         6.1217   -8.3633    3.6712 C.3       1 <0>         0.0198
     34 H3          1.0042    1.8801    0.0026 H         1 <0>         0.0723
     35 H4         -0.5455    1.8639   -0.8728 H         1 <0>         0.0678
     36 H5         -0.5286    1.8543    0.9071 H         1 <0>         0.0680
     37 H6         -0.0065   -0.1386   -2.1316 H         1 <0>         0.1255
     38 H7          0.0268   -2.5986   -2.1543 H         1 <0>         0.1260
     39 H8          0.0477   -2.6219    2.1296 H         1 <0>         0.1223
     40 H9          0.0244   -0.1617    2.1340 H         1 <0>         0.1266
     41 H10         3.7001   -6.1417    0.7651 H         1 <0>         0.1206
     42 H11         5.8681   -5.0468    0.3657 H         1 <0>         0.1285
     43 H12         4.5368   -1.6276    2.5568 H         1 <0>         0.1324
     44 H13         2.3680   -2.7255    2.9439 H         1 <0>         0.1304
     45 H14         6.5665   -2.1315    0.4082 H         1 <0>         0.3937
     46 H15         2.5190   -6.5236    4.3359 H         1 <0>         0.0885
     47 H16         2.1330   -8.1575    3.7445 H         1 <0>         0.1009
     48 H17         4.0424   -8.0376    2.1670 H         1 <0>         0.0799
     49 H18         4.4284   -6.4037    2.7584 H         1 <0>         0.0573
     50 H19         5.4182   -6.1196    4.9388 H         1 <0>         0.0459
     51 H20         3.8875   -6.7470    5.5978 H         1 <0>         0.0871
     52 H21         5.7811   -6.9734    7.2188 H         1 <0>         0.0989
     53 H22         5.0961   -8.5510    6.7572 H         1 <0>         0.0611
     54 H23         7.8867   -9.2709    4.5123 H         1 <0>         0.0993
     55 H24         6.3535   -9.9230    5.1410 H         1 <0>         0.0615
     56 H25         6.0228   -9.0768    2.8532 H         1 <0>         0.0870
     57 H26         6.6723   -7.4879    3.3269 H         1 <0>         0.0450
@<TRIPOS>BOND
     1    1    2 1
     2    1   34 1
     3    1   35 1
     4    1   36 1
     5    2    7 ar
     6    2    3 ar
     7    3    4 ar
     8    3   37 1
     9    4    5 ar
    10    4   38 1
    11    5    6 ar
    12    5    8 1
    13    6    7 ar
    14    6   39 1
    15    7   40 1
    16    8   13 2
    17    8    9 1
    18    9   17 1
    19    9   10 2
    20   10   11 1
    21   10   14 1
    22   11   12 1
    23   11   13 1
    24   14   15 2
    25   14   16 am
    26   16   17 1
    27   16   26 1
    28   17   18 1
    29   17   19 1
    30   19   24 ar
    31   19   20 ar
    32   20   21 ar
    33   20   41 1
    34   21   22 ar
    35   21   42 1
    36   22   23 ar
    37   22   25 1
    38   23   24 ar
    39   23   43 1
    40   24   44 1
    41   25   45 1
    42   26   27 1
    43   26   46 1
    44   26   47 1
    45   27   28 1
    46   27   48 1
    47   27   49 1
    48   28   33 1
    49   28   29 1
    50   29   30 1
    51   29   50 1
    52   29   51 1
    53   30   31 1
    54   30   52 1
    55   30   53 1
    56   31   32 1
    57   32   33 1
    58   32   54 1
    59   32   55 1
    60   33   56 1
    61   33   57 1
@<TRIPOS>MOLECULE
ZINC53616450
   49    52     0     0     0
SMALL
USER_CHARGES

@<TRIPOS>ATOM
      1 C1         -0.3926    1.3199    0.2838 C.3       1 <0>        -0.1153
      2 C2         -0.1870   -0.1613    0.0973 C.ar      1 <0>        -0.1248
      3 C3         -0.3265   -0.7249   -1.1566 C.ar      1 <0>        -0.0822
      4 C4         -0.1394   -2.0823   -1.3317 C.ar      1 <0>        -0.1278
      5 C5          0.1904   -2.8855   -0.2467 C.ar      1 <0>         0.1567
      6 C6          0.3316   -2.3226    1.0135 C.ar      1 <0>        -0.1494
      7 C7          0.1481   -0.9577    1.1851 C.ar      1 <0>         0.1595
      8 N1          0.2952   -0.3855    2.4527 N.am      1 <0>        -0.6617
      9 C8          0.0533   -1.1207    3.5561 C.2       1 <0>         0.5625
     10 O1         -0.2159   -2.3019    3.4527 O.2       1 <0>        -0.5125
     11 C9          0.1152   -0.4917    4.8904 C.ar      1 <0>        -0.1435
     12 C10         0.4187    0.8668    5.0108 C.ar      1 <0>        -0.0600
     13 C11         0.4756    1.4501    6.2571 C.ar      1 <0>        -0.1188
     14 C12         0.2314    0.6888    7.3947 C.ar      1 <0>         0.1830
     15 C13        -0.0710   -0.6634    7.2788 C.ar      1 <0>        -0.1418
     16 C14        -0.1353   -1.2522    6.0354 C.ar      1 <0>        -0.0260
     17 N2          0.2905    1.2846    8.6588 N.pl3     1 <0>        -0.3387
     18 C15         0.0852    0.6818    9.8470 C.2       1 <0>         0.2674
     19 N3          0.2312    1.5798   10.7870 N.2       1 <0>        -0.5319
     20 C16         0.5281    2.7599   10.2432 C.2       1 <0>         0.2145
     21 N4          0.5817    2.6287    8.9436 N.2       1 <0>        -0.3124
     22 N5          0.3792   -4.2596   -0.4248 N.am      1 <0>        -0.6676
     23 C17         0.9501   -4.7205   -1.5553 C.2       1 <0>         0.5612
     24 O2          1.2255   -3.9505   -2.4547 O.2       1 <0>        -0.5151
     25 C18         1.2414   -6.1623   -1.7016 C.ar      1 <0>        -0.1391
     26 C19         0.9211   -7.0500   -0.6730 C.ar      1 <0>        -0.0857
     27 C20         1.1957   -8.3944   -0.8159 C.ar      1 <0>        -0.1263
     28 C21         1.7871   -8.8633   -1.9756 C.ar      1 <0>        -0.0898
     29 C22         2.1075   -7.9887   -2.9987 C.ar      1 <0>        -0.1268
     30 C23         1.8326   -6.6429   -2.8712 C.ar      1 <0>        -0.0565
     31 H1          0.5550    1.8391    0.1403 H         1 <0>         0.0720
     32 H2         -1.1185    1.6806   -0.4449 H         1 <0>         0.0743
     33 H3         -0.7629    1.5114    1.2909 H         1 <0>         0.0614
     34 H4         -0.5828   -0.1029   -2.0015 H         1 <0>         0.1319
     35 H5         -0.2499   -2.5199   -2.3129 H         1 <0>         0.1402
     36 H6          0.5879   -2.9446    1.8584 H         1 <0>         0.1541
     37 H7          0.5713    0.5405    2.5377 H         1 <0>         0.4119
     38 H8          0.6088    1.4586    4.1276 H         1 <0>         0.1371
     39 H9          0.7105    2.5001    6.3510 H         1 <0>         0.1480
     40 H10        -0.2601   -1.2517    8.1645 H         1 <0>         0.1431
     41 H11        -0.3749   -2.3015    5.9457 H         1 <0>         0.1523
     42 H12        -0.1577   -0.3599    9.9966 H         1 <0>         0.2260
     43 H13         0.7015    3.6758   10.7886 H         1 <0>         0.2267
     44 H14         0.0992   -4.8811    0.2654 H         1 <0>         0.4117
     45 H15         0.4598   -6.6851    0.2328 H         1 <0>         0.1262
     46 H16         0.9488   -9.0822   -0.0208 H         1 <0>         0.1314
     47 H17         1.9999   -9.9168   -2.0824 H         1 <0>         0.1297
     48 H18         2.5693   -8.3612   -3.9011 H         1 <0>         0.1325
     49 H19         2.0785   -5.9619   -3.6726 H         1 <0>         0.1379
@<TRIPOS>BOND
     1    1    2 1
     2    1   31 1
     3    1   32 1
     4    1   33 1
     5    2    7 ar
     6    2    3 ar
     7    3    4 ar
     8    3   34 1
     9    4    5 ar
    10    4   35 1
    11    5    6 ar
    12    5   22 1
    13    6    7 ar
    14    6   36 1
    15    7    8 1
    16    8    9 am
    17    8   37 1
    18    9   10 2
    19    9   11 1
    20   11   16 ar
    21   11   12 ar
    22   12   13 ar
    23   12   38 1
    24   13   14 ar
    25   13   39 1
    26   14   15 ar
    27   14   17 1
    28   15   16 ar
    29   15   40 1
    30   16   41 1
    31   17   21 1
    32   17   18 1
    33   18   19 2
    34   18   42 1
    35   19   20 1
    36   20   21 2
    37   20   43 1
    38   22   23 am
    39   22   44 1
    40   23   24 2
    41   23   25 1
    42   25   30 ar
    43   25   26 ar
    44   26   27 ar
    45   26   45 1
    46   27   28 ar
    47   27   46 1
    48   28   29 ar
    49   28   47 1
    50   29   30 ar
    51   29   48 1
    52   30   49 1
@<TRIPOS>MOLECULE
ZINC63531725
   44    47     0     0     0
SMALL
USER_CHARGES

@<TRIPOS>ATOM
      1 C1         -0.0166    1.3734    0.0096 C.ar      1 <0>        -0.1347
      2 C2          1.1694    2.0960    0.0021 C.ar      1 <0>        -0.0722
      3 C3          2.3868    1.4533   -0.0134 C.ar      1 <0>        -0.1079
      4 C4          2.4319    0.0576   -0.0213 C.ar      1 <0>         0.1469
      5 C5          1.2238   -0.6740   -0.0133 C.ar      1 <0>        -0.1957
      6 C6          0.0021   -0.0041    0.0020 C.ar      1 <0>        -0.0425
      7 C7          1.3057   -2.1421   -0.0225 C.2       1 <0>         0.5470
      8 O1          0.3025   -2.8315   -0.0167 O.2       1 <0>        -0.5053
      9 N1          2.5401   -2.6970   -0.0382 N.am      1 <0>        -0.5497
     10 C8          3.6503   -1.9141   -0.0445 C.2       1 <0>         0.3717
     11 N2          3.6091   -0.6164   -0.0371 N.2       1 <0>        -0.5167
     12 C9          2.6802   -4.1553   -0.0479 C.3       1 <0>         0.1101
     13 C10         2.7144   -4.6547   -1.4937 C.3       1 <0>        -0.1564
     14 C11         2.8586   -6.1547   -1.5038 C.2       1 <0>         0.5287
     15 O2          2.9272   -6.7644   -0.4575 O.2       1 <0>        -0.5218
     16 N3          2.9112   -6.8188   -2.6754 N.am      1 <0>        -0.6410
     17 C12         3.0443   -8.2039   -2.6847 C.2       1 <0>         0.3368
     18 C13         3.1171   -9.0136   -3.8037 C.2       1 <0>        -0.2393
     19 C14         3.2476  -10.3408   -3.3516 C.2       1 <0>         0.0896
     20 N4          3.2530  -10.3299   -2.0455 N.2       1 <0>        -0.2824
     21 N5          3.1325   -9.0081   -1.6017 N.pl3     1 <0>        -0.4558
     22 H1          3.1139   -8.7189   -0.6760 H         1 <0>         0.4521
     23 C15         3.0663   -8.5670   -5.2171 C.ar      1 <0>         0.0183
     24 C16         2.0560   -7.7057   -5.6427 C.ar      1 <0>        -0.1246
     25 C17         2.0132   -7.2927   -6.9586 C.ar      1 <0>        -0.0981
     26 C18         2.9702   -7.7318   -7.8558 C.ar      1 <0>        -0.1163
     27 C19         3.9756   -8.5873   -7.4396 C.ar      1 <0>        -0.0267
     28 C20         4.0314   -9.0021   -6.1230 C.ar      1 <0>        -0.1018
     29 Cl1         5.1721   -9.1346   -8.5722 Cl        1 <0>        -0.0665
     30 H2         -0.9617    1.8959    0.0260 H         1 <0>         0.1354
     31 H3          1.1363    3.1755    0.0083 H         1 <0>         0.1366
     32 H4          3.3025    2.0258   -0.0198 H         1 <0>         0.1413
     33 H5         -0.9234   -0.5607    0.0082 H         1 <0>         0.1386
     34 H6          4.6169   -2.3958   -0.0567 H         1 <0>         0.2023
     35 H7          3.6061   -4.4347    0.4550 H         1 <0>         0.1095
     36 H8          1.8343   -4.6051    0.4719 H         1 <0>         0.1119
     37 H9          1.7886   -4.3753   -1.9966 H         1 <0>         0.1135
     38 H10         3.5603   -4.2049   -2.0136 H         1 <0>         0.1135
     39 H11         2.8563   -6.3313   -3.5121 H         1 <0>         0.4302
     40 H12         3.3290  -11.2173   -3.9774 H         1 <0>         0.1924
     41 H13         1.3077   -7.3626   -4.9436 H         1 <0>         0.1248
     42 H14         1.2308   -6.6255   -7.2889 H         1 <0>         0.1340
     43 H15         2.9326   -7.4061   -8.8849 H         1 <0>         0.1339
     44 H16         4.8189   -9.6658   -5.7977 H         1 <0>         0.1362
@<TRIPOS>BOND
     1    1    6 ar
     2    1    2 ar
     3    1   30 1
     4    2    3 ar
     5    2   31 1
     6    3    4 ar
     7    3   32 1
     8    4   11 1
     9    4    5 ar
    10    5    6 ar
    11    5    7 1
    12    6   33 1
    13    7    8 2
    14    7    9 am
    15    9   10 1
    16    9   12 1
    17   10   11 2
    18   10   34 1
    19   12   13 1
    20   12   35 1
    21   12   36 1
    22   13   14 1
    23   13   37 1
    24   13   38 1
    25   14   15 2
    26   14   16 am
    27   16   17 1
    28   16   39 1
    29   17   21 1
    30   17   18 2
    31   18   19 1
    32   18   23 1
    33   19   20 2
    34   19   40 1
    35   20   21 1
    36   21   22 1
    37   23   28 ar
    38   23   24 ar
    39   24   25 ar
    40   24   41 1
    41   25   26 ar
    42   25   42 1
    43   26   27 ar
    44   26   43 1
    45   27   28 ar
    46   27   29 1
    47   28   44 1
@<TRIPOS>MOLECULE
ZINC04281752
   35    36     0     0     0
SMALL
USER_CHARGES
2-(4-acetylbenzoyl)amino-N-methyl-thiophene-3-carboxamide
@<TRIPOS>ATOM
      1 C1          4.9825    0.0876   -0.1582 C.3       1 <0>        -0.1936
      2 C2          3.6916   -0.6804   -0.0363 C.2       1 <0>         0.3914
      3 O1          3.7115   -1.8894    0.0505 O.2       1 <0>        -0.4470
      4 C3          2.4051    0.0383   -0.0225 C.ar      1 <0>        -0.1391
      5 C4          1.2038   -0.6773   -0.0258 C.ar      1 <0>        -0.0690
      6 C5          0.0019   -0.0044   -0.0125 C.ar      1 <0>        -0.0628
      7 C6         -0.0171    1.3914    0.0043 C.ar      1 <0>        -0.1079
      8 C7          1.1816    2.1070    0.0075 C.ar      1 <0>        -0.0942
      9 C8          2.3847    1.4362   -0.0057 C.ar      1 <0>        -0.0794
     10 C9         -1.3091    2.1132    0.0124 C.2       1 <0>         0.5508
     11 O2         -2.3530    1.4908    0.0045 O.2       1 <0>        -0.4904
     12 N1         -1.3281    3.4608    0.0286 N.am      1 <0>        -0.6061
     13 C10        -2.5374    4.1364    0.0362 C.2       1 <0>         0.1169
     14 C11        -2.7599    5.5086    0.0583 C.2       1 <0>        -0.2599
     15 C12        -4.1364    5.9429    0.0583 C.2       1 <0>        -0.1067
     16 C13        -5.0823    4.9863    0.0467 C.2       1 <0>        -0.2355
     17 S1         -4.1382    3.4765    0.0282 S.3       1 <0>         0.2314
     18 C14        -1.6509    6.4674    0.0768 C.2       1 <0>         0.5861
     19 O3         -0.5011    6.0682    0.0729 O.2       1 <0>        -0.5619
     20 N2         -1.9046    7.7909    0.0980 N.am      1 <0>        -0.7284
     21 C15        -0.7965    8.7490    0.1164 C.3       1 <0>         0.0869
     22 H1          4.7901    1.0687   -0.1357 H         1 <0>         0.0760
     23 H2          5.6399   -0.1728    0.6713 H         1 <0>         0.0972
     24 H3          5.4684   -0.1658   -1.1004 H         1 <0>         0.0994
     25 H4          1.2183   -1.7571   -0.0384 H         1 <0>         0.1458
     26 H5         -0.9261   -0.5569   -0.0146 H         1 <0>         0.1482
     27 H6          1.1656    3.1868    0.0205 H         1 <0>         0.1376
     28 H7          3.3120    1.9900   -0.0029 H         1 <0>         0.1459
     29 H8         -0.4950    3.9575    0.0349 H         1 <0>         0.4337
     30 H9         -4.3960    6.9911    0.0712 H         1 <0>         0.1404
     31 H10        -6.1557    5.1054    0.0477 H         1 <0>         0.1910
     32 H11        -2.8210    8.1091    0.1010 H         1 <0>         0.4030
     33 H12        -1.1939    9.7639    0.1322 H         1 <0>         0.0772
     34 H13        -0.1877    8.5833    1.0052 H         1 <0>         0.0615
     35 H14        -0.1834    8.6127   -0.7745 H         1 <0>         0.0615
@<TRIPOS>BOND
     1    1    2 1
     2    1   22 1
     3    1   23 1
     4    1   24 1
     5    2    3 2
     6    2    4 1
     7    4    9 ar
     8    4    5 ar
     9    5    6 ar
    10    5   25 1
    11    6    7 ar
    12    6   26 1
    13    7    8 ar
    14    7   10 1
    15    8    9 ar
    16    8   27 1
    17    9   28 1
    18   10   11 2
    19   10   12 am
    20   12   13 1
    21   12   29 1
    22   13   17 1
    23   13   14 2
    24   14   15 1
    25   14   18 1
    26   15   16 2
    27   15   30 1
    28   16   17 1
    29   16   31 1
    30   18   19 2
    31   18   20 am
    32   20   21 1
    33   20   32 1
    34   21   33 1
    35   21   34 1
    36   21   35 1
@<TRIPOS>MOLECULE
ZINC36777427
   40    41     0     0     0
SMALL
USER_CHARGES

@<TRIPOS>ATOM
      1 C1          0.5825    1.3935   -0.1248 C.3       1 <0>        -0.1138
      2 C2          0.4086   -0.1022   -0.1849 C.ar      1 <0>         0.0124
      3 C3          0.2636   -0.7314   -1.4080 C.ar      1 <0>        -0.1094
      4 C4          0.1040   -2.1017   -1.4667 C.ar      1 <0>        -0.1316
      5 C5          0.0892   -2.8485   -0.2953 C.ar      1 <0>         0.1803
      6 C6          0.2351   -2.2135    0.9313 C.ar      1 <0>        -0.0567
      7 C7          0.3999   -0.8431    0.9825 C.ar      1 <0>        -0.6382
      8 S1          0.5923   -0.0373    2.5376 S.o2      1 <0>         2.6901
      9 O1          1.1082   -1.0087    3.4373 O.2       1 <0>        -0.9559
     10 O2          1.2581    1.1911    2.2789 O.2       1 <0>        -0.9490
     11 N1         -0.9239    0.3510    3.0787 N.pl3     1 <0>        -0.9944
     12 C8         -1.5989   -0.5138    4.0497 C.3       1 <0>         0.0859
     13 C9         -1.5903    1.5592    2.5863 C.3       1 <0>         0.1626
     14 C10        -2.4864    1.2023    1.4285 C.ar      1 <0>         0.0971
     15 C11        -3.8279    0.9564    1.6533 C.ar      1 <0>        -0.1552
     16 C12        -4.6435    0.6289    0.5813 C.ar      1 <0>        -0.0754
     17 C13        -4.0768    0.5606   -0.6825 C.ar      1 <0>        -0.1688
     18 C14        -2.7276    0.8195   -0.8303 C.ar      1 <0>         0.1060
     19 N2         -1.9828    1.1335    0.2118 N.ar      1 <0>        -0.4604
     20 C15         0.2191   -3.0195    2.2046 C.3       1 <0>        -0.1303
     21 N3         -0.0725   -4.2347   -0.3510 N.pl3     1 <0>        -0.8808
     22 H1          1.6434    1.6383   -0.1763 H         1 <0>         0.0681
     23 H2          0.0622    1.8538   -0.9647 H         1 <0>         0.0677
     24 H3          0.1677    1.7702    0.8101 H         1 <0>         0.0859
     25 H4          0.2748   -0.1502   -2.3182 H         1 <0>         0.1270
     26 H5         -0.0095   -2.5923   -2.4221 H         1 <0>         0.1235
     27 H6         -1.2793   -0.2475    5.0571 H         1 <0>         0.0661
     28 H7         -2.6777   -0.3832    3.9643 H         1 <0>         0.0760
     29 H8         -1.3419   -1.5541    3.8500 H         1 <0>         0.0739
     30 H9         -2.1874    1.9965    3.3865 H         1 <0>         0.1039
     31 H10        -0.8408    2.2790    2.2573 H         1 <0>         0.1128
     32 H11        -4.2353    1.0183    2.6516 H         1 <0>         0.1336
     33 H12        -5.6952    0.4312    0.7270 H         1 <0>         0.1336
     34 H13        -4.6824    0.3080   -1.5403 H         1 <0>         0.1331
     35 H14        -2.2786    0.7684   -1.8113 H         1 <0>         0.1538
     36 H15         1.2421   -3.2521    2.5002 H         1 <0>         0.0892
     37 H16        -0.2649   -2.4433    2.9932 H         1 <0>         0.0790
     38 H17        -0.3315   -3.9459    2.0413 H         1 <0>         0.0620
     39 H18        -0.1746   -4.6771   -1.2082 H         1 <0>         0.3977
     40 H19        -0.0827   -4.7551    0.4675 H         1 <0>         0.3982
@<TRIPOS>BOND
     1    1    2 1
     2    1   22 1
     3    1   23 1
     4    1   24 1
     5    2    7 ar
     6    2    3 ar
     7    3    4 ar
     8    3   25 1
     9    4    5 ar
    10    4   26 1
    11    5    6 ar
    12    5   21 1
    13    6    7 ar
    14    6   20 1
    15    7    8 1
    16    8    9 2
    17    8   10 2
    18    8   11 1
    19   11   12 1
    20   11   13 1
    21   12   27 1
    22   12   28 1
    23   12   29 1
    24   13   14 1
    25   13   30 1
    26   13   31 1
    27   14   19 ar
    28   14   15 ar
    29   15   16 ar
    30   15   32 1
    31   16   17 ar
    32   16   33 1
    33   17   18 ar
    34   17   34 1
    35   18   19 ar
    36   18   35 1
    37   20   36 1
    38   20   37 1
    39   20   38 1
    40   21   39 1
    41   21   40 1
@<TRIPOS>MOLECULE
ZINC42859288
   34    35     0     0     0
SMALL
USER_CHARGES

@<TRIPOS>ATOM
      1 C1          0.2798    1.3206   -0.3028 C.3       1 <0>        -0.1703
      2 C2          0.5086   -0.1677   -0.2422 C.ar      1 <0>        -0.0400
      3 C3          0.6897   -0.8860   -1.4102 C.ar      1 <0>        -0.0954
      4 C4          0.8996   -2.2498   -1.3583 C.ar      1 <0>        -0.1426
      5 C5          0.9287   -2.9004   -0.1310 C.ar      1 <0>         0.1943
      6 C6          0.7465   -2.1760    1.0399 C.ar      1 <0>        -0.0703
      7 C7          0.5426   -0.8111    0.9811 C.ar      1 <0>        -0.6154
      8 S1          0.3185    0.1100    2.4664 S.o2      1 <0>         2.6925
      9 O1         -0.8231    0.9322    2.2660 O.2       1 <0>        -0.9549
     10 O2          0.4097   -0.8188    3.5379 O.2       1 <0>        -0.9548
     11 N1          1.6160    1.1287    2.6113 N.pl3     1 <0>        -0.9906
     12 C8          1.5007    2.5265    2.1880 C.3       1 <0>         0.0738
     13 C9          2.8791    0.6321    3.1628 C.3       1 <0>         0.1903
     14 C10         3.7896    0.2153    2.0366 C.2       1 <0>         0.0338
     15 C11         4.7297    1.0568    1.5353 C.2       1 <0>        -0.2109
     16 S2          5.4565    0.0238    0.2730 S.3       1 <0>         0.1034
     17 C12         4.5032   -1.3420    0.5151 C.2       1 <0>         0.0363
     18 N2          3.7133   -0.9848    1.4968 N.2       1 <0>        -0.4951
     19 N3          1.1403   -4.2799   -0.0750 N.pl3     1 <0>        -0.8784
     20 H1          1.2244    1.8402   -0.1418 H         1 <0>         0.0775
     21 H2         -0.1194    1.5873   -1.2813 H         1 <0>         0.0791
     22 H3         -0.4309    1.6107    0.4710 H         1 <0>         0.1031
     23 H4          0.6666   -0.3797   -2.3639 H         1 <0>         0.1261
     24 H5          1.0406   -2.8102   -2.2707 H         1 <0>         0.1240
     25 H6          0.7681   -2.6787    1.9955 H         1 <0>         0.1365
     26 H7          1.2566    3.1480    3.0495 H         1 <0>         0.0651
     27 H8          2.4472    2.8555    1.7592 H         1 <0>         0.0723
     28 H9          0.7125    2.6159    1.4404 H         1 <0>         0.0889
     29 H10         3.3571    1.4211    3.7434 H         1 <0>         0.1049
     30 H11         2.6824   -0.2248    3.8070 H         1 <0>         0.1089
     31 H12         4.9710    2.0700    1.8208 H         1 <0>         0.1963
     32 H13         4.5373   -2.2855   -0.0092 H         1 <0>         0.2122
     33 H14         1.2671   -4.7848   -0.8934 H         1 <0>         0.3985
     34 H15         1.1604   -4.7330    0.7825 H         1 <0>         0.4007
@<TRIPOS>BOND
     1    1    2 1
     2    1   20 1
     3    1   21 1
     4    1   22 1
     5    2    7 ar
     6    2    3 ar
     7    3    4 ar
     8    3   23 1
     9    4    5 ar
    10    4   24 1
    11    5    6 ar
    12    5   19 1
    13    6    7 ar
    14    6   25 1
    15    7    8 1
    16    8    9 2
    17    8   10 2
    18    8   11 1
    19   11   12 1
    20   11   13 1
    21   12   26 1
    22   12   27 1
    23   12   28 1
    24   13   14 1
    25   13   29 1
    26   13   30 1
    27   14   18 1
    28   14   15 2
    29   15   16 1
    30   15   31 1
    31   16   17 1
    32   17   18 2
    33   17   32 1
    34   19   33 1
    35   19   34 1
@<TRIPOS>MOLECULE
ZINC49188681
   33    34     0     0     0
SMALL
USER_CHARGES

@<TRIPOS>ATOM
      1 C1          0.7597    1.4245    0.0467 C.3       1 <0>        -0.1311
      2 C2          0.1857    0.0344    0.1426 C.2       1 <0>         0.2147
      3 C3         -0.2694   -0.7137   -0.8891 C.2       1 <0>        -0.8141
      4 C4         -0.7146   -1.9346   -0.3719 C.2       1 <0>         0.1404
      5 N1         -0.5333   -1.9201    0.9238 N.2       1 <0>        -0.2777
      6 N2          0.0388   -0.6896    1.2719 N.pl3     1 <0>        -0.4570
      7 H1          0.2840   -0.4071    2.1668 H         1 <0>         0.4415
      8 S1         -0.2968   -0.2342   -2.5844 S.o2      1 <0>         2.7222
      9 O1          0.8463    0.5834   -2.7937 O.2       1 <0>        -0.9599
     10 O2         -0.5366   -1.4156   -3.3367 O.2       1 <0>        -0.9623
     11 N3         -1.6199    0.7388   -2.7967 N.pl3     1 <0>        -1.1095
     12 C5         -1.7001    2.0274   -2.1045 C.3       1 <0>         0.1480
     13 H2         -1.0568    2.0080   -1.2249 H         1 <0>         0.0893
     14 C6         -1.2418    3.1420   -3.0471 C.3       1 <0>        -0.1759
     15 C7         -3.1453    2.2859   -1.6738 C.3       1 <0>        -0.0724
     16 C8         -3.5563    1.2579   -0.6513 C.2       1 <0>        -0.1127
     17 C9         -4.1302    0.0646   -1.0478 C.2       1 <0>        -0.1514
     18 C10        -4.4884   -0.8386   -0.1027 C.2       1 <0>        -0.1658
     19 S2         -4.0127   -0.0058    1.4030 S.3       1 <0>         0.0337
     20 C11        -3.3635    1.4873    0.6706 C.2       1 <0>        -0.1844
     21 H3          1.8473    1.3662    0.0023 H         1 <0>         0.1057
     22 H4          0.3849    1.9111   -0.8537 H         1 <0>         0.1028
     23 H5          0.4623    2.0016    0.9223 H         1 <0>         0.0880
     24 H6         -1.1359   -2.7485   -0.9433 H         1 <0>         0.1952
     25 H7         -2.3418    0.4554   -3.3793 H         1 <0>         0.4179
     26 H8         -0.2122    2.9579   -3.3540 H         1 <0>         0.0741
     27 H9         -1.8852    3.1614   -3.9268 H         1 <0>         0.0653
     28 H10        -1.3015    4.1008   -2.5321 H         1 <0>         0.0690
     29 H11        -3.2220    3.2822   -1.2384 H         1 <0>         0.0870
     30 H12        -3.8010    2.2173   -2.5418 H         1 <0>         0.0822
     31 H13        -4.2911   -0.1448   -2.0950 H         1 <0>         0.1331
     32 H14        -4.9438   -1.8098   -0.2281 H         1 <0>         0.1841
     33 H15        -2.9305    2.3500    1.1552 H         1 <0>         0.1803
@<TRIPOS>BOND
     1    1    2 1
     2    1   21 1
     3    1   22 1
     4    1   23 1
     5    2    6 1
     6    2    3 2
     7    3    4 1
     8    3    8 1
     9    4    5 2
    10    4   24 1
    11    5    6 1
    12    6    7 1
    13    8    9 2
    14    8   10 2
    15    8   11 1
    16   11   12 1
    17   11   25 1
    18   12   13 1
    19   12   14 1
    20   12   15 1
    21   14   26 1
    22   14   27 1
    23   14   28 1
    24   15   16 1
    25   15   29 1
    26   15   30 1
    27   16   20 2
    28   16   17 1
    29   17   18 2
    30   17   31 1
    31   18   19 1
    32   18   32 1
    33   19   20 1
    34   20   33 1
@<TRIPOS>MOLECULE
ZINC57866262
   38    41     0     0     0
SMALL
USER_CHARGES

@<TRIPOS>ATOM
      1 C1         -0.0166    1.3748    0.0096 C.ar      1 <0>        -0.0509
      2 C2          1.1861    2.0879    0.0019 C.ar      1 <0>         0.0634
      3 C3          2.4052    1.3911   -0.0135 C.ar      1 <0>         0.0576
      4 C4          2.4124    0.0028   -0.0206 C.ar      1 <0>        -0.0969
      5 C5          1.2188   -0.6929   -0.0125 C.ar      1 <0>         0.0560
      6 C6          0.0021   -0.0041    0.0020 C.ar      1 <0>         0.0309
      7 O1         -1.0137   -0.9179    0.0057 O.3       1 <0>        -0.3044
      8 C7         -0.4182   -2.1571   -0.4212 C.3       1 <0>         0.2136
      9 O2          0.9586   -2.0338   -0.0168 O.3       1 <0>        -0.3049
     10 N1          3.3953    2.3557   -0.0179 N.pl3     1 <0>        -0.4831
     11 C8          2.7782    3.5687   -0.0053 C.2       1 <0>         0.3033
     12 N2          1.4868    3.4128    0.0062 N.2       1 <0>        -0.4797
     13 C9          3.4875    4.8983   -0.0045 C.3       1 <0>        -0.0484
     14 C10         2.7990    5.9631    0.8657 C.3       1 <0>        -0.1197
     15 C11         3.1308    6.9728   -0.2458 C.3       1 <0>        -0.1415
     16 C12         3.1445    5.7802   -1.2167 C.3       1 <0>        -0.1217
     17 C13         4.8406    2.1166   -0.0327 C.3       1 <0>         0.1225
     18 C14         5.3303    2.0415   -1.4803 C.3       1 <0>        -0.1332
     19 C15         6.8170    1.7956   -1.4955 C.2       1 <0>         0.2862
     20 S1          7.6187    1.6574   -0.1190 S.2       1 <0>        -0.4394
     21 N3          7.4709    1.6921   -2.6695 N.pl3     1 <0>        -0.7760
     22 H1         -0.9585    1.9029    0.0259 H         1 <0>         0.1440
     23 H2          3.3501   -0.5328   -0.0327 H         1 <0>         0.1348
     24 H3         -0.8897   -3.0015    0.0816 H         1 <0>         0.1345
     25 H4         -0.4924   -2.2646   -1.5033 H         1 <0>         0.0866
     26 H5          4.5578    4.8070    0.1801 H         1 <0>         0.1097
     27 H6          1.7303    5.7947    0.9978 H         1 <0>         0.0992
     28 H7          3.3166    6.1613    1.8043 H         1 <0>         0.0734
     29 H8          2.3298    7.6858   -0.4413 H         1 <0>         0.0758
     30 H9          4.1036    7.4497   -0.1264 H         1 <0>         0.0833
     31 H10         3.9409    5.8308   -1.9591 H         1 <0>         0.0695
     32 H11         2.1701    5.5618   -1.6538 H         1 <0>         0.0928
     33 H12         5.3491    2.9325    0.4809 H         1 <0>         0.1153
     34 H13         5.0586    1.1765    0.4739 H         1 <0>         0.1118
     35 H14         4.8218    1.2256   -1.9939 H         1 <0>         0.1063
     36 H15         5.1123    2.9816   -1.9869 H         1 <0>         0.1075
     37 H16         6.9846    1.7759   -3.5046 H         1 <0>         0.3999
     38 H17         8.4279    1.5338   -2.6793 H         1 <0>         0.4218
@<TRIPOS>BOND
     1    1    6 ar
     2    1    2 ar
     3    1   22 1
     4    2   12 1
     5    2    3 ar
     6    3    4 ar
     7    3   10 1
     8    4    5 ar
     9    4   23 1
    10    5    9 1
    11    5    6 ar
    12    6    7 1
    13    7    8 1
    14    8    9 1
    15    8   24 1
    16    8   25 1
    17   10   11 1
    18   10   17 1
    19   11   12 2
    20   11   13 1
    21   13   16 1
    22   13   14 1
    23   13   26 1
    24   14   15 1
    25   14   27 1
    26   14   28 1
    27   15   16 1
    28   15   29 1
    29   15   30 1
    30   16   31 1
    31   16   32 1
    32   17   18 1
    33   17   33 1
    34   17   34 1
    35   18   19 1
    36   18   35 1
    37   18   36 1
    38   19   20 2
    39   19   21 1
    40   21   37 1
    41   21   38 1
@<TRIPOS>MOLECULE
ZINC03410272
   42    45     0     0     0
SMALL
USER_CHARGES

@<TRIPOS>ATOM
      1 C1         -2.1911    6.9527    0.3305 C.3       1 <0>         0.0670
      2 N1         -3.0532    5.7778    0.1802 N.pl3     1 <0>        -0.4551
      3 C2         -4.4246    5.7613    0.0715 C.2       1 <0>         0.2226
      4 N2         -4.7867    4.5050   -0.0458 N.2       1 <0>        -0.2534
      5 N3         -3.7501    3.7457   -0.0236 N.2       1 <0>        -0.2899
      6 C3         -2.6629    4.4702    0.1182 C.2       1 <0>         0.1433
      7 S1         -1.0094    3.8677    0.2046 S.3       1 <0>         0.0915
      8 C4         -1.3144    2.0898    0.0552 C.3       1 <0>        -0.1494
      9 C5         -0.0029    1.3492    0.1052 C.2       1 <0>         0.5357
     10 O1          1.0362    1.9633    0.2245 O.2       1 <0>        -0.5012
     11 N4          0.0158    0.0048    0.0116 N.am      1 <0>        -0.6609
     12 C6          1.2386   -0.6761   -0.0510 C.ar      1 <0>         0.1526
     13 C7          1.3561   -1.8222   -0.8258 C.ar      1 <0>        -0.1292
     14 C8          2.5626   -2.4925   -0.8918 C.ar      1 <0>        -0.0802
     15 C9          3.6557   -2.0284   -0.1781 C.ar      1 <0>         0.0201
     16 C10         3.5394   -0.8819    0.6042 C.ar      1 <0>         0.0529
     17 C11         2.3310   -0.2082    0.6661 C.ar      1 <0>        -0.1032
     18 O2          4.7429   -0.6360    1.1997 O.3       1 <0>        -0.3053
     19 C12         5.4806   -1.8685    1.0998 C.3       1 <0>         0.2129
     20 O3          4.9331   -2.5007   -0.0723 O.3       1 <0>        -0.3074
     21 C13        -5.3210    6.9365    0.0840 C.ar      1 <0>        -0.0585
     22 C14        -5.0191    8.0570   -0.6915 C.ar      1 <0>        -0.0695
     23 C15        -5.8597    9.1506   -0.6755 C.ar      1 <0>        -0.1279
     24 C16        -7.0013    9.1396    0.1067 C.ar      1 <0>        -0.0708
     25 C17        -7.3083    8.0337    0.8782 C.ar      1 <0>        -0.1530
     26 C18        -6.4780    6.9287    0.8680 C.ar      1 <0>         0.1437
     27 F1         -6.7815    5.8463    1.6172 F         1 <0>        -0.1213
     28 H1         -1.9703    7.3694   -0.6522 H         1 <0>         0.0905
     29 H2         -2.7003    7.7018    0.9368 H         1 <0>         0.0975
     30 H3         -1.2612    6.6610    0.8187 H         1 <0>         0.0990
     31 H4         -1.8115    1.8849   -0.8930 H         1 <0>         0.1347
     32 H5         -1.9496    1.7598    0.8772 H         1 <0>         0.1338
     33 H6         -0.8174   -0.4913   -0.0124 H         1 <0>         0.4200
     34 H7          0.5045   -2.1884   -1.3800 H         1 <0>         0.1445
     35 H8          2.6529   -3.3813   -1.4986 H         1 <0>         0.1429
     36 H9          2.2387    0.6808    1.2724 H         1 <0>         0.1525
     37 H10         5.3141   -2.4871    1.9817 H         1 <0>         0.0865
     38 H11         6.5437   -1.6688    0.9660 H         1 <0>         0.1338
     39 H12        -4.1288    8.0679   -1.3027 H         1 <0>         0.1335
     40 H13        -5.6264   10.0178   -1.2754 H         1 <0>         0.1390
     41 H14        -7.6554    9.9990    0.1149 H         1 <0>         0.1407
     42 H15        -8.2008    8.0318    1.4864 H         1 <0>         0.1455
@<TRIPOS>BOND
     1    1    2 1
     2    1   28 1
     3    1   29 1
     4    1   30 1
     5    2    6 1
     6    2    3 1
     7    3    4 2
     8    3   21 1
     9    4    5 1
    10    5    6 2
    11    6    7 1
    12    7    8 1
    13    8    9 1
    14    8   31 1
    15    8   32 1
    16    9   10 2
    17    9   11 am
    18   11   12 1
    19   11   33 1
    20   12   17 ar
    21   12   13 ar
    22   13   14 ar
    23   13   34 1
    24   14   15 ar
    25   14   35 1
    26   15   20 1
    27   15   16 ar
    28   16   17 ar
    29   16   18 1
    30   17   36 1
    31   18   19 1
    32   19   20 1
    33   19   37 1
    34   19   38 1
    35   21   26 ar
    36   21   22 ar
    37   22   23 ar
    38   22   39 1
    39   23   24 ar
    40   23   40 1
    41   24   25 ar
    42   24   41 1
    43   25   26 ar
    44   25   42 1
    45   26   27 1
@<TRIPOS>MOLECULE
ZINC15240827
   47    50     0     0     0
SMALL
USER_CHARGES
(4Z)-2-(4-ethoxyphenyl)-4-[(pyrazin-2-ylamino)methylene]isoquinoline-1,3-dione
@<TRIPOS>ATOM
      1 C1          5.7404   -1.2903   -0.4904 C.3       1 <0>        -0.1531
      2 C2          4.4783   -0.4582   -0.7260 C.3       1 <0>         0.0522
      3 O1          3.5633   -0.6650    0.3520 O.3       1 <0>        -0.3126
      4 C3          2.3824    0.0064    0.2966 C.ar      1 <0>         0.1442
      5 C4          1.4484   -0.1487    1.3107 C.ar      1 <0>        -0.1425
      6 C5          0.2491    0.5333    1.2552 C.ar      1 <0>        -0.0515
      7 C6         -0.0221    1.3743    0.1844 C.ar      1 <0>         0.0734
      8 C7          0.9130    1.5292   -0.8301 C.ar      1 <0>        -0.0503
      9 C8          2.1120    0.8467   -0.7736 C.ar      1 <0>        -0.2003
     10 N1         -1.2424    2.0628    0.1246 N.am      1 <0>        -0.5067
     11 C9         -2.3731    1.3534   -0.0237 C.2       1 <0>         0.5664
     12 O2         -2.3125    0.1410   -0.1019 O.2       1 <0>        -0.4846
     13 C10        -3.6813    2.0167   -0.0934 C.ar      1 <0>        -0.1581
     14 C11        -4.8598    1.2857   -0.2473 C.ar      1 <0>        -0.0328
     15 C12        -6.0684    1.9451   -0.3081 C.ar      1 <0>        -0.1412
     16 C13        -6.1264    3.3283   -0.2178 C.ar      1 <0>        -0.0671
     17 C14        -4.9728    4.0701   -0.0653 C.ar      1 <0>        -0.1401
     18 C15        -3.7444    3.4228   -0.0019 C.ar      1 <0>         0.0405
     19 C16        -2.4793    4.1690    0.1612 C.2       1 <0>        -0.2806
     20 C17        -2.4736    5.5427    0.2564 C.2       1 <0>         0.2545
     21 N2         -1.2933    6.2201    0.2540 N.pl3     1 <0>        -0.6018
     22 C18        -1.2794    7.5951    0.4720 C.ar      1 <0>         0.3063
     23 C19        -2.4723    8.2792    0.6926 C.ar      1 <0>         0.0161
     24 N3         -2.4547    9.5823    0.8992 N.ar      1 <0>        -0.4021
     25 C20        -1.3063   10.2383    0.8969 C.ar      1 <0>         0.0175
     26 C21        -0.1205    9.5626    0.6782 C.ar      1 <0>         0.1007
     27 N4         -0.1294    8.2562    0.4755 N.ar      1 <0>        -0.4682
     28 C22        -1.2295    3.4020    0.2236 C.2       1 <0>         0.5781
     29 O3         -0.1702    3.9859    0.3618 O.2       1 <0>        -0.5136
     30 H1          6.4384   -1.1325   -1.3127 H         1 <0>         0.0798
     31 H2          6.2073   -0.9850    0.4461 H         1 <0>         0.0672
     32 H3          5.4748   -2.3461   -0.4367 H         1 <0>         0.0674
     33 H4          4.0114   -0.7635   -1.6625 H         1 <0>         0.0639
     34 H5          4.7439    0.5976   -0.7797 H         1 <0>         0.0639
     35 H6          1.6595   -0.8028    2.1438 H         1 <0>         0.1397
     36 H7         -0.4778    0.4127    2.0448 H         1 <0>         0.1316
     37 H8          0.7025    2.1830   -1.6635 H         1 <0>         0.1265
     38 H9          2.8394    0.9671   -1.5628 H         1 <0>         0.1355
     39 H10        -4.8249    0.2086   -0.3185 H         1 <0>         0.1409
     40 H11        -6.9803    1.3790   -0.4276 H         1 <0>         0.1343
     41 H12        -7.0823    3.8286   -0.2669 H         1 <0>         0.1339
     42 H13        -5.0241    5.1466    0.0041 H         1 <0>         0.1314
     43 H14        -3.4059    6.0825    0.3330 H         1 <0>         0.1748
     44 H15        -0.4617    5.7449    0.1005 H         1 <0>         0.4363
     45 H16        -3.4103    7.7440    0.6943 H         1 <0>         0.1711
     46 H17        -1.2951   11.3050    1.0659 H         1 <0>         0.1783
     47 H18         0.8152   10.1020    0.6767 H         1 <0>         0.1809
@<TRIPOS>BOND
     1    1    2 1
     2    1   30 1
     3    1   31 1
     4    1   32 1
     5    2    3 1
     6    2   33 1
     7    2   34 1
     8    3    4 1
     9    4    9 ar
    10    4    5 ar
    11    5    6 ar
    12    5   35 1
    13    6    7 ar
    14    6   36 1
    15    7    8 ar
    16    7   10 1
    17    8    9 ar
    18    8   37 1
    19    9   38 1
    20   10   28 am
    21   10   11 am
    22   11   12 2
    23   11   13 1
    24   13   18 ar
    25   13   14 ar
    26   14   15 ar
    27   14   39 1
    28   15   16 ar
    29   15   40 1
    30   16   17 ar
    31   16   41 1
    32   17   18 ar
    33   17   42 1
    34   18   19 1
    35   19   20 2
    36   19   28 1
    37   20   21 1
    38   20   43 1
    39   21   22 1
    40   21   44 1
    41   22   27 ar
    42   22   23 ar
    43   23   24 ar
    44   23   45 1
    45   24   25 ar
    46   25   26 ar
    47   25   46 1
    48   26   27 ar
    49   26   47 1
    50   28   29 2
@<TRIPOS>MOLECULE
ZINC39537044
   50    53     0     0     0
SMALL
USER_CHARGES

@<TRIPOS>ATOM
      1 C1         -0.7138    1.4564    0.0375 C.3       1 <0>        -0.1199
      2 C2         -0.3624   -0.0087    0.0055 C.ar      1 <0>        -0.0568
      3 C3         -0.3569   -0.6856   -1.2126 C.ar      1 <0>        -0.1025
      4 C4         -0.0432   -2.0111   -1.2744 C.ar      1 <0>        -0.0566
      5 C5          0.2778   -2.7010   -0.1006 C.ar      1 <0>        -0.0695
      6 C6          0.6217   -4.1232   -0.1200 C.ar      1 <0>        -0.0603
      7 C7          0.9266   -4.7217    1.0932 C.ar      1 <0>        -0.1210
      8 C8          0.8933   -3.9518    2.2699 C.ar      1 <0>         0.2125
      9 N1          0.5802   -2.6702    2.2632 N.ar      1 <0>        -0.4441
     10 C9          0.2744   -2.0176    1.1427 C.ar      1 <0>         0.1412
     11 C10        -0.0503   -0.6474    1.1657 C.ar      1 <0>        -0.0972
     12 C11         1.2183   -4.5980    3.5524 C.2       1 <0>        -0.0854
     13 C12         1.5668   -5.8859    3.7750 C.2       1 <0>        -0.0360
     14 N2          1.7869   -6.0957    5.0814 N.2       1 <0>        -0.1721
     15 N3          1.6330   -5.1051    5.7988 N.2       1 <0>        -0.1517
     16 C13         1.2477   -3.9743    4.9372 C.3       1 <0>        -0.0542
     17 C14         0.6429   -4.8919   -1.3834 C.2       1 <0>         0.5751
     18 O1          1.4679   -4.6341   -2.2379 O.2       1 <0>        -0.5102
     19 N4         -0.2527   -5.8783   -1.5872 N.am      1 <0>        -0.7180
     20 C15        -0.2318   -6.6397   -2.8386 C.3       1 <0>         0.1300
     21 H1          0.7983   -6.7576   -3.1749 H         1 <0>         0.1099
     22 C16        -1.0339   -5.8909   -3.9047 C.3       1 <0>        -0.1696
     23 C17        -0.8536   -8.0184   -2.6071 C.3       1 <0>         0.1255
     24 N5         -0.0185   -8.7807   -1.6756 N.pl3     1 <0>        -0.3750
     25 C18        -0.4317   -9.3546   -0.5263 C.2       1 <0>         0.0484
     26 C19         0.6377   -9.9605    0.0398 C.2       1 <0>        -0.2690
     27 C20         1.7422   -9.7496   -0.7921 C.2       1 <0>         0.0461
     28 N6          1.3487   -9.0476   -1.8237 N.2       1 <0>        -0.2887
     29 C21        -0.0428   -2.7289   -2.5995 C.3       1 <0>        -0.1317
     30 H2          0.1916    2.0500   -0.0888 H         1 <0>         0.0783
     31 H3         -1.4108    1.6806   -0.7699 H         1 <0>         0.0725
     32 H4         -1.1763    1.6982    0.9944 H         1 <0>         0.0729
     33 H5         -0.6046   -0.1535   -2.1193 H         1 <0>         0.1339
     34 H6          1.1868   -5.7691    1.1343 H         1 <0>         0.1467
     35 H7         -0.0550   -0.1067    2.1006 H         1 <0>         0.1417
     36 H8          1.6553   -6.6405    3.0074 H         1 <0>         0.1787
     37 H9          1.9912   -3.1788    4.9862 H         1 <0>         0.1577
     38 H10         0.2618   -3.6000    5.2128 H         1 <0>         0.1571
     39 H11        -0.9111   -6.0840   -0.9052 H         1 <0>         0.4007
     40 H12        -0.5909   -4.9087   -4.0695 H         1 <0>         0.0740
     41 H13        -1.0183   -6.4574   -4.8358 H         1 <0>         0.0758
     42 H14        -2.0640   -5.7730   -3.5683 H         1 <0>         0.0631
     43 H15        -1.8523   -7.9005   -2.1868 H         1 <0>         0.1025
     44 H16        -0.9192   -8.5512   -3.5558 H         1 <0>         0.1041
     45 H17        -1.4358   -9.3337   -0.1292 H         1 <0>         0.1722
     46 H18         0.6383  -10.5094    0.9699 H         1 <0>         0.1484
     47 H19         2.7454  -10.1085   -0.6158 H         1 <0>         0.1828
     48 H20         0.9770   -2.7897   -2.9795 H         1 <0>         0.0977
     49 H21        -0.4422   -3.7345   -2.4681 H         1 <0>         0.0734
     50 H22        -0.6630   -2.1815   -3.3094 H         1 <0>         0.0667
@<TRIPOS>BOND
     1    1    2 1
     2    1   30 1
     3    1   31 1
     4    1   32 1
     5    2   11 ar
     6    2    3 ar
     7    3    4 ar
     8    3   33 1
     9    4    5 ar
    10    4   29 1
    11    5   10 ar
    12    5    6 ar
    13    6    7 ar
    14    6   17 1
    15    7    8 ar
    16    7   34 1
    17    8    9 ar
    18    8   12 1
    19    9   10 ar
    20   10   11 ar
    21   11   35 1
    22   12   16 1
    23   12   13 2
    24   13   14 1
    25   13   36 1
    26   14   15 2
    27   15   16 1
    28   16   37 1
    29   16   38 1
    30   17   18 2
    31   17   19 am
    32   19   20 1
    33   19   39 1
    34   20   21 1
    35   20   22 1
    36   20   23 1
    37   22   40 1
    38   22   41 1
    39   22   42 1
    40   23   24 1
    41   23   43 1
    42   23   44 1
    43   24   28 1
    44   24   25 1
    45   25   26 2
    46   25   45 1
    47   26   27 1
    48   26   46 1
    49   27   28 2
    50   27   47 1
    51   29   48 1
    52   29   49 1
    53   29   50 1
@<TRIPOS>MOLECULE
ZINC49505019
   36    39     0     0     0
SMALL
USER_CHARGES

@<TRIPOS>ATOM
      1 C1         -0.0184    1.5028    0.0103 C.3       1 <0>        -0.0835
      2 C2          0.0021   -0.0041    0.0020 C.2       1 <0>         0.1023
      3 C3          0.0065   -0.7504   -1.1707 C.2       1 <0>        -0.2480
      4 S1          0.0322   -2.4006   -0.4905 S.3       1 <0>         0.3145
      5 N1          0.0345   -2.0046    1.0820 N.2       1 <0>        -0.1784
      6 N2          0.0227   -0.7194    1.0995 N.2       1 <0>        -0.2661
      7 C4         -0.0063   -0.3064   -2.5737 C.2       1 <0>         0.6114
      8 O1         -0.0237    0.8812   -2.8356 O.2       1 <0>        -0.5029
      9 N3          0.0013   -1.2157   -3.5684 N.am      1 <0>        -0.7198
     10 C5         -0.0115   -0.7738   -4.9651 C.3       1 <0>         0.1262
     11 C6          0.0007   -1.9950   -5.8866 C.3       1 <0>        -0.0785
     12 C7         -0.0125   -1.5404   -7.3234 C.2       1 <0>         0.0934
     13 C8          1.1381   -1.4273   -7.9900 C.2       1 <0>        -0.1759
     14 S2          0.5759   -0.8738   -9.5927 S.3       1 <0>         0.1860
     15 C9         -1.1636   -0.8409   -9.2308 C.2       1 <0>         0.2282
     16 N4         -1.2092   -1.2525   -7.9336 N.pl3     1 <0>        -0.3455
     17 N5         -2.5913   -1.2435   -7.6108 N.2       1 <0>        -0.2837
     18 C10        -3.2483   -0.8527   -8.6818 C.2       1 <0>         0.3472
     19 N6         -2.3702   -0.6019   -9.6625 N.2       1 <0>        -0.4765
     20 C11        -4.7154   -0.7032   -8.7829 C.2       1 <0>        -0.1089
     21 C12        -5.4707   -0.3100   -9.8552 C.2       1 <0>        -0.0904
     22 C13        -6.8394   -0.2446   -9.7128 C.2       1 <0>        -0.1657
     23 C14        -7.3966   -0.5707   -8.5184 C.2       1 <0>        -0.1560
     24 S3         -5.9644   -0.9958   -7.5411 S.3       1 <0>         0.1100
     25 H1          1.0042    1.8801    0.0026 H         1 <0>         0.0914
     26 H2         -0.5455    1.8639   -0.8728 H         1 <0>         0.1007
     27 H3         -0.5286    1.8543    0.9071 H         1 <0>         0.0862
     28 H4          0.0151   -2.1629   -3.3596 H         1 <0>         0.4033
     29 H5         -0.9104   -0.1864   -5.1521 H         1 <0>         0.0778
     30 H6          0.8693   -0.1622   -5.1607 H         1 <0>         0.0831
     31 H7          0.8996   -2.5824   -5.6996 H         1 <0>         0.1075
     32 H8         -0.8802   -2.6066   -5.6910 H         1 <0>         0.0961
     33 H9          2.1449   -1.6199   -7.6498 H         1 <0>         0.2286
     34 H10        -5.0023   -0.0556  -10.7945 H         1 <0>         0.1469
     35 H11        -7.4613    0.0624  -10.5407 H         1 <0>         0.1446
     36 H12        -8.4385   -0.5756   -8.2340 H         1 <0>         0.1945
@<TRIPOS>BOND
     1    1    2 1
     2    1   25 1
     3    1   26 1
     4    1   27 1
     5    2    6 1
     6    2    3 2
     7    3    4 1
     8    3    7 1
     9    4    5 1
    10    5    6 2
    11    7    8 2
    12    7    9 am
    13    9   10 1
    14    9   28 1
    15   10   11 1
    16   10   29 1
    17   10   30 1
    18   11   12 1
    19   11   31 1
    20   11   32 1
    21   12   16 1
    22   12   13 2
    23   13   14 1
    24   13   33 1
    25   14   15 1
    26   15   19 2
    27   15   16 1
    28   16   17 1
    29   17   18 2
    30   18   19 1
    31   18   20 1
    32   20   24 1
    33   20   21 2
    34   21   22 1
    35   21   34 1
    36   22   23 2
    37   22   35 1
    38   23   24 1
    39   23   36 1
@<TRIPOS>MOLECULE
ZINC62313498
   50    53     0     0     0
SMALL
USER_CHARGES

@<TRIPOS>ATOM
      1 C1          1.2197    1.4072   -0.1435 C.3       1 <0>        -0.1206
      2 C2          0.9710   -0.0790   -0.1182 C.ar      1 <0>        -0.0775
      3 C3          1.1163   -0.8216   -1.2766 C.ar      1 <0>        -0.1108
      4 C4          0.8896   -2.1823   -1.2601 C.ar      1 <0>        -0.1241
      5 C5          0.5136   -2.8095   -0.0720 C.ar      1 <0>        -0.0272
      6 C6          0.3693   -2.0555    1.0924 C.ar      1 <0>        -0.0891
      7 C7          0.6039   -0.6958    1.0641 C.ar      1 <0>        -0.0791
      8 C8          0.4544    0.1194    2.3227 C.3       1 <0>        -0.1196
      9 C9          0.2684   -4.2689   -0.0474 C.2       1 <0>         0.0570
     10 C10         0.2941   -5.0811    1.0517 C.2       1 <0>        -0.1552
     11 C11         0.0014   -6.3753    0.5697 C.2       1 <0>        -0.0187
     12 N1         -0.1766   -6.2784   -0.7331 N.2       1 <0>        -0.2524
     13 N2         -0.0323   -5.0608   -1.1160 N.pl3     1 <0>        -0.2724
     14 C12        -0.1671   -4.5926   -2.4976 C.3       1 <0>         0.0769
     15 C13        -0.0883   -7.6101    1.3759 C.2       1 <0>         0.6172
     16 O1          0.0988   -7.5671    2.5764 O.2       1 <0>        -0.5207
     17 N3         -0.3774   -8.7842    0.7806 N.am      1 <0>        -0.7200
     18 C14        -0.4663  -10.0085    1.5801 C.3       1 <0>         0.2235
     19 C15        -0.7990  -11.1720    0.6818 C.2       1 <0>         0.1415
     20 N4          0.0574  -11.9446    0.0739 N.2       1 <0>        -0.2529
     21 N5         -0.5745  -12.8341   -0.6080 N.2       1 <0>        -0.2748
     22 C16        -1.8662  -12.6580   -0.4571 C.2       1 <0>         0.2236
     23 O2         -2.0322  -11.6044    0.3672 O.3       1 <0>        -0.2128
     24 C17        -2.9394  -13.4678   -1.0722 C.ar      1 <0>        -0.0339
     25 C18        -4.2782  -13.1596   -0.8266 C.ar      1 <0>        -0.0812
     26 C19        -5.2749  -13.9189   -1.4041 C.ar      1 <0>        -0.1210
     27 C20        -4.9495  -14.9841   -2.2248 C.ar      1 <0>        -0.0896
     28 C21        -3.6243  -15.2953   -2.4720 C.ar      1 <0>        -0.1203
     29 C22        -2.6181  -14.5401   -1.9056 C.ar      1 <0>        -0.0636
     30 H1          2.2697    1.6036    0.0733 H         1 <0>         0.0739
     31 H2          0.9726    1.8002   -1.1297 H         1 <0>         0.0682
     32 H3          0.5966    1.8926    0.6076 H         1 <0>         0.0714
     33 H4          1.4074   -0.3349   -2.1958 H         1 <0>         0.1277
     34 H5          1.0026   -2.7608   -2.1651 H         1 <0>         0.1264
     35 H6          0.0781   -2.5353    2.0152 H         1 <0>         0.1307
     36 H7         -0.5717    0.4782    2.4035 H         1 <0>         0.0736
     37 H8          0.6917   -0.5004    3.1874 H         1 <0>         0.0700
     38 H9          1.1351    0.9700    2.2876 H         1 <0>         0.0717
     39 H10         0.4960   -4.7935    2.0729 H         1 <0>         0.1674
     40 H11         0.8173   -4.5474   -2.9636 H         1 <0>         0.0906
     41 H12        -0.8014   -5.2822   -3.0547 H         1 <0>         0.1021
     42 H13        -0.6173   -3.6000   -2.5026 H         1 <0>         0.1014
     43 H14        -0.5266   -8.8184   -0.1773 H         1 <0>         0.4121
     44 H15         0.4888  -10.1912    2.0724 H         1 <0>         0.1237
     45 H16        -1.2470   -9.8954    2.3323 H         1 <0>         0.1082
     46 H17        -4.5334  -12.3287   -0.1856 H         1 <0>         0.1325
     47 H18        -6.3113  -13.6814   -1.2148 H         1 <0>         0.1347
     48 H19        -5.7335  -15.5757   -2.6741 H         1 <0>         0.1327
     49 H20        -3.3770  -16.1283   -3.1133 H         1 <0>         0.1370
     50 H21        -1.5840  -14.7809   -2.1033 H         1 <0>         0.1414
@<TRIPOS>BOND
     1    1    2 1
     2    1   30 1
     3    1   31 1
     4    1   32 1
     5    2    7 ar
     6    2    3 ar
     7    3    4 ar
     8    3   33 1
     9    4    5 ar
    10    4   34 1
    11    5    6 ar
    12    5    9 1
    13    6    7 ar
    14    6   35 1
    15    7    8 1
    16    8   36 1
    17    8   37 1
    18    8   38 1
    19    9   13 1
    20    9   10 2
    21   10   11 1
    22   10   39 1
    23   11   12 2
    24   11   15 1
    25   12   13 1
    26   13   14 1
    27   14   40 1
    28   14   41 1
    29   14   42 1
    30   15   16 2
    31   15   17 am
    32   17   18 1
    33   17   43 1
    34   18   19 1
    35   18   44 1
    36   18   45 1
    37   19   23 1
    38   19   20 2
    39   20   21 1
    40   21   22 2
    41   22   23 1
    42   22   24 1
    43   24   29 ar
    44   24   25 ar
    45   25   26 ar
    46   25   46 1
    47   26   27 ar
    48   26   47 1
    49   27   28 ar
    50   27   48 1
    51   28   29 ar
    52   28   49 1
    53   29   50 1
@<TRIPOS>MOLECULE
ZINC66768876
   51    54     0     0     0
SMALL
USER_CHARGES

@<TRIPOS>ATOM
      1 C1          0.2559    0.2102   -0.8242 C.3       1 <0>        -0.1736
      2 C2          0.2623   -1.1327   -0.0910 C.3       1 <0>         0.1188
      3 N1         -1.1047   -1.6542   -0.0152 N.pl3     1 <0>        -0.6327
      4 C3         -1.6197   -2.5169   -1.0813 C.3       1 <0>         0.0921
      5 C4         -1.9169   -1.3288    1.0735 C.ar      1 <0>         0.2331
      6 C5         -1.4310   -0.5057    2.0826 C.ar      1 <0>        -0.2078
      7 C6         -2.2337   -0.1835    3.1595 C.ar      1 <0>        -0.0553
      8 C7         -3.5219   -0.6776    3.2373 C.ar      1 <0>        -0.1755
      9 C8         -4.0138   -1.5004    2.2319 C.ar      1 <0>         0.1892
     10 C9         -3.2117   -1.8222    1.1461 C.ar      1 <0>        -0.2220
     11 N2         -5.3175   -2.0003    2.3117 N.am      1 <0>        -0.6580
     12 C10        -5.8419   -2.3268    3.5096 C.2       1 <0>         0.6121
     13 O1         -5.2100   -2.1176    4.5273 O.2       1 <0>        -0.5098
     14 C11        -7.1821   -2.9376    3.5861 C.2       1 <0>        -0.1067
     15 C12        -7.8266   -3.3084    4.7325 C.2       1 <0>         0.1396
     16 N3         -9.0198   -3.8212    4.3609 N.pl3     1 <0>        -0.3149
     17 N4         -9.0737   -3.7481    2.9618 N.2       1 <0>        -0.0513
     18 N5         -7.9785   -3.2184    2.5402 N.2       1 <0>        -0.1945
     19 C13       -10.0127   -4.3290    5.2105 C.ar      1 <0>         0.1275
     20 C14       -10.2369   -3.7237    6.4520 C.ar      1 <0>        -0.1065
     21 C15       -11.1922   -4.1932    7.2975 C.ar      1 <0>        -0.0630
     22 C16       -11.9716   -5.3035    6.9256 C.ar      1 <0>         0.1326
     23 C17       -11.7452   -5.9168    5.6678 C.ar      1 <0>        -0.0948
     24 C18       -10.7549   -5.4065    4.8145 C.ar      1 <0>        -0.0637
     25 C19       -12.5275   -7.0277    5.2996 C.ar      1 <0>        -0.0492
     26 C20       -13.4766   -7.4674    6.1782 C.ar      1 <0>        -0.1682
     27 C21       -13.6474   -6.8187    7.3989 C.ar      1 <0>         0.1434
     28 N6        -12.9174   -5.7840    7.7385 N.ar      1 <0>        -0.4716
     29 C22        -7.3062   -3.1719    6.1402 C.3       1 <0>        -0.1077
     30 H1          1.2730    0.5981   -0.8806 H         1 <0>         0.0645
     31 H2         -0.1367    0.0722   -1.8316 H         1 <0>         0.0555
     32 H3         -0.3730    0.9168   -0.2827 H         1 <0>         0.0595
     33 H4          0.8912   -1.8393   -0.6325 H         1 <0>         0.0736
     34 H5          0.6549   -0.9948    0.9164 H         1 <0>         0.0769
     35 H6         -1.4039   -3.5582   -0.8422 H         1 <0>         0.0481
     36 H7         -2.6975   -2.3804   -1.1704 H         1 <0>         0.0677
     37 H8         -1.1410   -2.2540   -2.0246 H         1 <0>         0.0662
     38 H9         -0.4247   -0.1179    2.0247 H         1 <0>         0.1227
     39 H10        -1.8536    0.4557    3.9427 H         1 <0>         0.1250
     40 H11        -4.1468   -0.4240    4.0809 H         1 <0>         0.1356
     41 H12        -3.5931   -2.4587    0.3613 H         1 <0>         0.1256
     42 H13        -5.8443   -2.1121    1.5049 H         1 <0>         0.4178
     43 H14        -9.6416   -2.8709    6.7431 H         1 <0>         0.1441
     44 H15       -11.3522   -3.7150    8.2526 H         1 <0>         0.1528
     45 H16       -10.5775   -5.8647    3.8527 H         1 <0>         0.1461
     46 H17       -12.3816   -7.5184    4.3486 H         1 <0>         0.1451
     47 H18       -14.0940   -8.3170    5.9265 H         1 <0>         0.1450
     48 H19       -14.4016   -7.1773    8.0837 H         1 <0>         0.1661
     49 H20        -7.6725   -2.2416    6.5744 H         1 <0>         0.0974
     50 H21        -7.6534   -4.0139    6.7391 H         1 <0>         0.0837
     51 H22        -6.2164   -3.1616    6.1253 H         1 <0>         0.1189
@<TRIPOS>BOND
     1    1    2 1
     2    1   30 1
     3    1   31 1
     4    1   32 1
     5    2    3 1
     6    2   33 1
     7    2   34 1
     8    3    4 1
     9    3    5 1
    10    4   35 1
    11    4   36 1
    12    4   37 1
    13    5   10 ar
    14    5    6 ar
    15    6    7 ar
    16    6   38 1
    17    7    8 ar
    18    7   39 1
    19    8    9 ar
    20    8   40 1
    21    9   10 ar
    22    9   11 1
    23   10   41 1
    24   11   12 am
    25   11   42 1
    26   12   13 2
    27   12   14 1
    28   14   18 1
    29   14   15 2
    30   15   16 1
    31   15   29 1
    32   16   17 1
    33   16   19 1
    34   17   18 2
    35   19   24 ar
    36   19   20 ar
    37   20   21 ar
    38   20   43 1
    39   21   22 ar
    40   21   44 1
    41   22   28 ar
    42   22   23 ar
    43   23   24 ar
    44   23   25 ar
    45   24   45 1
    46   25   26 ar
    47   25   46 1
    48   26   27 ar
    49   26   47 1
    50   27   28 ar
    51   27   48 1
    52   29   49 1
    53   29   50 1
    54   29   51 1
@<TRIPOS>MOLECULE
ZINC07424039
   49    52     0     0     0
SMALL
USER_CHARGES
N-(4-ethoxyphenyl)-7-methyl-5-oxo-9-phenyl-2,8,9-triazabicyclo[4.3.0]nona-3,7,10-triene-4-carboxamide
@<TRIPOS>ATOM
      1 C1         -3.4299   14.8241    5.7429 C.3       1 <0>        -0.1536
      2 C2         -2.7889   13.5527    5.1829 C.3       1 <0>         0.0543
      3 O1         -3.7717   12.5182    5.1053 O.3       1 <0>        -0.3159
      4 C3         -3.3632   11.3136    4.6247 C.ar      1 <0>         0.1180
      5 C4         -4.2663   10.2655    4.5228 C.ar      1 <0>        -0.1326
      6 C5         -3.8523    9.0419    4.0349 C.ar      1 <0>        -0.0773
      7 C6         -2.5317    8.8608    3.6457 C.ar      1 <0>         0.1084
      8 C7         -1.6271    9.9088    3.7529 C.ar      1 <0>        -0.1044
      9 C8         -2.0438   11.1334    4.2361 C.ar      1 <0>        -0.1917
     10 N1         -2.1110    7.6200    3.1506 N.am      1 <0>        -0.6763
     11 C9         -2.9485    6.8734    2.4039 C.2       1 <0>         0.5767
     12 O2         -4.0964    7.2368    2.2300 O.2       1 <0>        -0.4873
     13 C10        -2.4745    5.6187    1.7990 C.2       1 <0>        -0.3016
     14 C11        -1.1764    5.1932    1.9873 C.2       1 <0>         0.2122
     15 N2         -0.7185    4.0541    1.4487 N.pl3     1 <0>        -0.5789
     16 H1          0.2331    3.7958    1.6150 H         1 <0>         0.4266
     17 C12        -1.4950    3.2295    0.6819 C.2       1 <0>         0.3331
     18 C13        -2.8243    3.5551    0.4144 C.2       1 <0>        -0.3018
     19 C14        -3.3767    4.7913    0.9803 C.2       1 <0>         0.4606
     20 O3         -4.5343    5.1194    0.7814 O.2       1 <0>        -0.4492
     21 C15        -3.3560    2.5307   -0.3958 C.2       1 <0>         0.1630
     22 N3         -2.4170    1.6511   -0.6091 N.2       1 <0>        -0.2673
     23 N4         -1.2462    2.0554    0.0428 N.pl3     1 <0>        -0.3231
     24 C16        -0.0268    1.3648    0.0418 C.ar      1 <0>         0.1431
     25 C17         1.1707    2.0676    0.0378 C.ar      1 <0>        -0.1463
     26 C18         2.3709    1.3840    0.0311 C.ar      1 <0>        -0.0907
     27 C19         2.3806    0.0013    0.0284 C.ar      1 <0>        -0.1160
     28 C20         1.1897   -0.7014    0.0324 C.ar      1 <0>        -0.0924
     29 C21        -0.0137   -0.0236    0.0391 C.ar      1 <0>        -0.1027
     30 C22        -4.7657    2.4641   -0.9242 C.3       1 <0>        -0.0817
     31 H2         -3.8255   14.6233    6.7385 H         1 <0>         0.0667
     32 H3         -2.6803   15.6132    5.8021 H         1 <0>         0.0784
     33 H4         -4.2405   15.1415    5.0870 H         1 <0>         0.0669
     34 H5         -1.9783   13.2353    5.8388 H         1 <0>         0.0615
     35 H6         -2.3933   13.7534    4.1873 H         1 <0>         0.0616
     36 H7         -5.2934   10.4065    4.8255 H         1 <0>         0.1351
     37 H8         -4.5555    8.2260    3.9556 H         1 <0>         0.1481
     38 H9         -0.5988    9.7673    3.4546 H         1 <0>         0.1273
     39 H10        -1.3414   11.9499    4.3154 H         1 <0>         0.1310
     40 H11        -1.2170    7.2980    3.3452 H         1 <0>         0.4013
     41 H12        -0.5092    5.7950    2.5865 H         1 <0>         0.1783
     42 H13         1.1637    3.1476    0.0396 H         1 <0>         0.1236
     43 H14         3.3026    1.9301    0.0280 H         1 <0>         0.1376
     44 H15         3.3203   -0.5310    0.0235 H         1 <0>         0.1346
     45 H16         1.2005   -1.7814    0.0299 H         1 <0>         0.1379
     46 H17        -0.9435   -0.5730    0.0425 H         1 <0>         0.1389
     47 H18        -5.3966    1.9340   -0.2107 H         1 <0>         0.0894
     48 H19        -5.1484    3.4747   -1.0668 H         1 <0>         0.0957
     49 H20        -4.7718    1.9354   -1.8774 H         1 <0>         0.0810
@<TRIPOS>BOND
     1    1    2 1
     2    1   31 1
     3    1   32 1
     4    1   33 1
     5    2    3 1
     6    2   34 1
     7    2   35 1
     8    3    4 1
     9    4    9 ar
    10    4    5 ar
    11    5    6 ar
    12    5   36 1
    13    6    7 ar
    14    6   37 1
    15    7    8 ar
    16    7   10 1
    17    8    9 ar
    18    8   38 1
    19    9   39 1
    20   10   11 am
    21   10   40 1
    22   11   12 2
    23   11   13 1
    24   13   19 1
    25   13   14 2
    26   14   15 1
    27   14   41 1
    28   15   16 1
    29   15   17 1
    30   17   23 1
    31   17   18 2
    32   18   19 1
    33   18   21 1
    34   19   20 2
    35   21   22 2
    36   21   30 1
    37   22   23 1
    38   23   24 1
    39   24   29 ar
    40   24   25 ar
    41   25   26 ar
    42   25   42 1
    43   26   27 ar
    44   26   43 1
    45   27   28 ar
    46   27   44 1
    47   28   29 ar
    48   28   45 1
    49   29   46 1
    50   30   47 1
    51   30   48 1
    52   30   49 1
@<TRIPOS>MOLECULE
ZINC38924807
   43    46     0     0     0
SMALL
USER_CHARGES

@<TRIPOS>ATOM
      1 C1         -0.0184    1.5028    0.0103 C.3       1 <0>        -0.1367
      2 C2          0.0021   -0.0041    0.0020 C.2       1 <0>         0.2268
      3 C3         -1.1561   -0.6982    0.0037 C.2       1 <0>        -0.2838
      4 C4         -1.1111   -2.1132   -0.0047 C.2       1 <0>         0.5544
      5 O1         -2.1424   -2.7608   -0.0038 O.2       1 <0>        -0.4885
      6 N1          0.0842   -2.7371   -0.0142 N.am      1 <0>        -0.6581
      7 H1          0.1232   -3.7063   -0.0203 H         1 <0>         0.4350
      8 C5          1.2235   -2.0204   -0.0156 C.2       1 <0>         0.7005
      9 O2          2.2941   -2.5967   -0.0242 O.2       1 <0>        -0.5330
     10 N2          1.1944   -0.6753   -0.0130 N.am      1 <0>        -0.6320
     11 H2          2.0264   -0.1767   -0.0182 H         1 <0>         0.4384
     12 C6         -2.4789    0.0237    0.0149 C.3       1 <0>         0.0560
     13 C7         -2.9864    0.1643   -1.3971 C.2       1 <0>         0.1663
     14 N3         -3.7501   -0.6797   -2.0267 N.2       1 <0>        -0.2536
     15 N4         -3.9879   -0.2432   -3.2133 N.2       1 <0>        -0.2890
     16 C8         -3.3781    0.9053   -3.3833 C.2       1 <0>         0.1303
     17 O3         -2.7360    1.1899   -2.2346 O.3       1 <0>        -0.2075
     18 S1         -3.4011    1.8952   -4.8407 S.3       1 <0>         0.0628
     19 C9         -4.4409    0.9560   -5.9928 C.3       1 <0>        -0.0705
     20 C10        -4.5449    1.7020   -7.2981 C.ar      1 <0>        -0.0770
     21 C11        -5.5411    2.6098   -7.4898 C.ar      1 <0>        -0.0807
     22 C12        -5.6532    3.3090   -8.6897 C.ar      1 <0>        -0.1206
     23 C13        -4.7702    3.1044   -9.7053 C.ar      1 <0>        -0.0870
     24 C14        -3.7287    2.1752   -9.5443 C.ar      1 <0>        -0.0545
     25 C15        -3.6109    1.4684   -8.3213 C.ar      1 <0>        -0.0326
     26 C16        -2.5655    0.5433   -8.1582 C.ar      1 <0>        -0.1126
     27 C17        -1.6793    0.3432   -9.1714 C.ar      1 <0>        -0.1057
     28 C18        -1.7913    1.0430  -10.3716 C.ar      1 <0>        -0.1155
     29 C19        -2.7983    1.9366  -10.5704 C.ar      1 <0>        -0.1016
     30 H3          1.0042    1.8801    0.0026 H         1 <0>         0.0879
     31 H4         -0.5455    1.8639   -0.8728 H         1 <0>         0.1031
     32 H5         -0.5286    1.8543    0.9071 H         1 <0>         0.1086
     33 H6         -3.1981   -0.5448    0.6045 H         1 <0>         0.1324
     34 H7         -2.3494    1.0126    0.4546 H         1 <0>         0.1138
     35 H8         -3.9956   -0.0232   -6.1685 H         1 <0>         0.1110
     36 H9         -5.4358    0.8313   -5.5653 H         1 <0>         0.1132
     37 H10        -6.2553    2.7904   -6.7001 H         1 <0>         0.1304
     38 H11        -6.4529    4.0238   -8.8161 H         1 <0>         0.1302
     39 H12        -4.8700    3.6532  -10.6302 H         1 <0>         0.1318
     40 H13        -2.4657   -0.0057   -7.2335 H         1 <0>         0.1268
     41 H14        -0.8769   -0.3683   -9.0435 H         1 <0>         0.1252
     42 H15        -1.0744    0.8655  -11.1597 H         1 <0>         0.1257
     43 H16        -2.8730    2.4710  -11.5060 H         1 <0>         0.1300
@<TRIPOS>BOND
     1    1    2 1
     2    1   30 1
     3    1   31 1
     4    1   32 1
     5    2   10 1
     6    2    3 2
     7    3    4 1
     8    3   12 1
     9    4    5 2
    10    4    6 am
    11    6    7 1
    12    6    8 am
    13    8    9 2
    14    8   10 am
    15   10   11 1
    16   12   13 1
    17   12   33 1
    18   12   34 1
    19   13   17 1
    20   13   14 2
    21   14   15 1
    22   15   16 2
    23   16   17 1
    24   16   18 1
    25   18   19 1
    26   19   20 1
    27   19   35 1
    28   19   36 1
    29   20   25 ar
    30   20   21 ar
    31   21   22 ar
    32   21   37 1
    33   22   23 ar
    34   22   38 1
    35   23   24 ar
    36   23   39 1
    37   24   29 ar
    38   24   25 ar
    39   25   26 ar
    40   26   27 ar
    41   26   40 1
    42   27   28 ar
    43   27   41 1
    44   28   29 ar
    45   28   42 1
    46   29   43 1
@<TRIPOS>MOLECULE
ZINC52889980
   36    39     0     0     0
SMALL
USER_CHARGES

@<TRIPOS>ATOM
      1 C1         -0.0167    1.3790    0.0096 C.ar      1 <0>        -0.1129
      2 C2          1.1669    2.0883    0.0021 C.ar      1 <0>        -0.0579
      3 C3          2.3851    1.4077   -0.0131 C.ar      1 <0>        -0.0168
      4 C4          2.3980    0.0119   -0.0207 C.ar      1 <0>        -0.0599
      5 C5          1.2071   -0.6860   -0.0131 C.ar      1 <0>        -0.0953
      6 C6          0.0021   -0.0041    0.0020 C.ar      1 <0>        -0.0725
      7 Br1         1.2214   -2.5769   -0.0239 Br        1 <0>        -0.0404
      8 C7          3.6567    2.1618   -0.0217 C.2       1 <0>         0.2639
      9 N1          3.8043    3.4393   -0.2844 N.2       1 <0>        -0.2574
     10 N2          5.0451    3.7636   -0.2023 N.2       1 <0>        -0.2700
     11 C8          5.7661    2.7123    0.1181 C.2       1 <0>         0.1226
     12 N3          4.9079    1.6581    0.2500 N.pl3     1 <0>        -0.2985
     13 N4          5.2258    0.3714    0.5803 N.3       1 <0>        -0.5807
     14 S1          7.5132    2.6721    0.3425 S.3       1 <0>         0.0370
     15 C9          8.0351    4.3813    0.0314 C.3       1 <0>        -0.0196
     16 C10         9.5297    4.4874    0.1925 C.2       1 <0>         0.2616
     17 N5         10.1711    4.7688    1.3322 N.2       1 <0>        -0.5303
     18 C11        11.4592    4.7849    1.1288 C.2       1 <0>         0.3312
     19 O1         11.6832    4.5109   -0.1625 O.3       1 <0>        -0.0938
     20 N6         10.4073    4.3146   -0.7537 N.2       1 <0>        -0.3151
     21 C12        12.5140    5.0638    2.1683 C.3       1 <0>        -0.0990
     22 C13        13.9555    5.2338    1.6842 C.3       1 <0>        -0.1539
     23 C14        13.5463    3.9674    2.4391 C.3       1 <0>        -0.1461
     24 H1         -0.9598    1.9049    0.0260 H         1 <0>         0.1430
     25 H2          1.1505    3.1682    0.0077 H         1 <0>         0.1444
     26 H3          3.3374   -0.5207   -0.0328 H         1 <0>         0.1460
     27 H4         -0.9271   -0.5545    0.0079 H         1 <0>         0.1391
     28 H5          5.4253   -0.1749   -0.2442 H         1 <0>         0.3699
     29 H6          5.9995    0.3448    1.2275 H         1 <0>         0.3806
     30 H7          7.7579    4.6668   -0.9833 H         1 <0>         0.1329
     31 H8          7.5449    5.0460    0.7427 H         1 <0>         0.1394
     32 H9         12.1918    5.6715    3.0138 H         1 <0>         0.1567
     33 H10        14.1408    5.1439    0.6139 H         1 <0>         0.1094
     34 H11        14.5817    5.9536    2.2112 H         1 <0>         0.1185
     35 H12        13.9035    3.8542    3.4627 H         1 <0>         0.1195
     36 H13        13.4625    3.0444    1.8654 H         1 <0>         0.1046
@<TRIPOS>BOND
     1    1    6 ar
     2    1    2 ar
     3    1   24 1
     4    2    3 ar
     5    2   25 1
     6    3    4 ar
     7    3    8 1
     8    4    5 ar
     9    4   26 1
    10    5    6 ar
    11    5    7 1
    12    6   27 1
    13    8   12 1
    14    8    9 2
    15    9   10 1
    16   10   11 2
    17   11   12 1
    18   11   14 1
    19   12   13 1
    20   13   28 1
    21   13   29 1
    22   14   15 1
    23   15   16 1
    24   15   30 1
    25   15   31 1
    26   16   20 2
    27   16   17 1
    28   17   18 2
    29   18   19 1
    30   18   21 1
    31   19   20 1
    32   21   23 1
    33   21   22 1
    34   21   32 1
    35   22   23 1
    36   22   33 1
    37   22   34 1
    38   23   35 1
    39   23   36 1
@<TRIPOS>MOLECULE
ZINC62413478
   49    52     0     0     0
SMALL
USER_CHARGES

@<TRIPOS>ATOM
      1 C1         -0.0326    1.3904    0.0141 C.ar      1 <0>        -0.0464
      2 C2          1.1482    2.1065    0.0065 C.ar      1 <0>        -0.1991
      3 C3          2.3649    1.4366   -0.0135 C.ar      1 <0>         0.2481
      4 C4          2.3894    0.0477   -0.0259 C.ar      1 <0>        -0.1995
      5 C5          1.2049   -0.6623   -0.0182 C.ar      1 <0>        -0.0464
      6 C6         -0.0046    0.0078    0.0017 C.ar      1 <0>        -0.1772
      7 C7         -1.2951   -0.7703    0.0105 C.3       1 <0>         0.1877
      8 N1         -1.7300   -1.0104   -1.3678 N.am      1 <0>        -0.7326
      9 C8         -2.8677   -1.6925   -1.6063 C.2       1 <0>         0.7027
     10 O1         -3.5332   -2.1085   -0.6776 O.2       1 <0>        -0.5694
     11 N2         -3.2677   -1.9133   -2.8742 N.am      1 <0>        -0.6847
     12 C9         -4.3962   -2.7035   -3.1247 C.ar      1 <0>         0.1949
     13 C10        -4.4321   -3.5285   -4.2417 C.ar      1 <0>        -0.1316
     14 C11        -5.5441   -4.3079   -4.4896 C.ar      1 <0>        -0.0631
     15 C12        -6.6274   -4.2684   -3.6225 C.ar      1 <0>         0.1013
     16 C13        -6.5925   -3.4433   -2.5039 C.ar      1 <0>         0.1086
     17 C14        -5.4766   -2.6666   -2.2535 C.ar      1 <0>        -0.1294
     18 F1         -7.6464   -3.4043   -1.6596 F         1 <0>        -0.1258
     19 N3         -7.7580   -5.0607   -3.8753 N.pl3     1 <0>        -0.3302
     20 C15        -8.8806   -5.1256   -3.1341 C.2       1 <0>         0.2580
     21 N4         -9.6941   -5.9777   -3.7043 N.2       1 <0>        -0.5364
     22 C16        -9.1302   -6.4742   -4.8046 C.2       1 <0>         0.2099
     23 N5         -7.9464   -5.9391   -4.9548 N.2       1 <0>        -0.3165
     24 N6          3.5611    2.1578   -0.0217 N.pl3     1 <0>        -0.6350
     25 C17         3.6781    3.6232   -0.0044 C.3       1 <0>         0.1114
     26 C18         5.1828    3.9632   -0.0484 C.3       1 <0>        -0.1332
     27 C19         5.8108    2.6824   -0.6587 C.3       1 <0>        -0.1343
     28 C20         4.9153    1.5756   -0.0426 C.3       1 <0>         0.1097
     29 H1         -0.9788    1.9106    0.0342 H         1 <0>         0.1233
     30 H2          1.1257    3.1863    0.0158 H         1 <0>         0.1207
     31 H3          3.3337   -0.4762   -0.0418 H         1 <0>         0.1211
     32 H4          1.2232   -1.7421   -0.0278 H         1 <0>         0.1233
     33 H5         -1.1407   -1.7245    0.5142 H         1 <0>         0.0751
     34 H6         -2.0595   -0.2003    0.5385 H         1 <0>         0.0752
     35 H7         -1.1991   -0.6785   -2.1086 H         1 <0>         0.4001
     36 H8         -2.7739   -1.5249   -3.6133 H         1 <0>         0.4130
     37 H9         -3.5897   -3.5599   -4.9167 H         1 <0>         0.1458
     38 H10        -5.5714   -4.9485   -5.3586 H         1 <0>         0.1541
     39 H11        -5.4470   -2.0283   -1.3829 H         1 <0>         0.1676
     40 H12        -9.0753   -4.5718   -2.2276 H         1 <0>         0.2318
     41 H13        -9.5798   -7.1987   -5.4676 H         1 <0>         0.2255
     42 H14         3.1771    4.0455   -0.8755 H         1 <0>         0.0623
     43 H15         3.2350    4.0198    0.9091 H         1 <0>         0.0624
     44 H16         5.3648    4.8254   -0.6900 H         1 <0>         0.0831
     45 H17         5.5676    4.1405    0.9559 H         1 <0>         0.0771
     46 H18         5.7355    2.6904   -1.7461 H         1 <0>         0.0766
     47 H19         6.8470    2.5659   -0.3412 H         1 <0>         0.0848
     48 H20         5.2425    1.3395    0.9700 H         1 <0>         0.0637
     49 H21         4.9344    0.6819   -0.6664 H         1 <0>         0.0720
@<TRIPOS>BOND
     1    1    6 ar
     2    1    2 ar
     3    1   29 1
     4    2    3 ar
     5    2   30 1
     6    3    4 ar
     7    3   24 1
     8    4    5 ar
     9    4   31 1
    10    5    6 ar
    11    5   32 1
    12    6    7 1
    13    7    8 1
    14    7   33 1
    15    7   34 1
    16    8    9 am
    17    8   35 1
    18    9   10 2
    19    9   11 am
    20   11   12 1
    21   11   36 1
    22   12   17 ar
    23   12   13 ar
    24   13   14 ar
    25   13   37 1
    26   14   15 ar
    27   14   38 1
    28   15   16 ar
    29   15   19 1
    30   16   17 ar
    31   16   18 1
    32   17   39 1
    33   19   23 1
    34   19   20 1
    35   20   21 2
    36   20   40 1
    37   21   22 1
    38   22   23 2
    39   22   41 1
    40   24   28 1
    41   24   25 1
    42   25   26 1
    43   25   42 1
    44   25   43 1
    45   26   27 1
    46   26   44 1
    47   26   45 1
    48   27   28 1
    49   27   46 1
    50   27   47 1
    51   28   48 1
    52   28   49 1
@<TRIPOS>MOLECULE
ZINC67409936
   52    54     0     0     0
SMALL
USER_CHARGES

@<TRIPOS>ATOM
      1 C1         -0.0187    1.5258    0.0104 C.3       1 <0>        -0.1700
      2 C2          0.0021   -0.0041    0.0020 C.3       1 <0>         0.1262
      3 N1          0.6878   -0.4765   -1.2033 N.pl3     1 <0>        -0.3666
      4 C3          0.1101   -0.7374   -2.3947 C.2       1 <0>         0.1117
      5 C4          1.0809   -1.1499   -3.2423 C.2       1 <0>        -0.2662
      6 C5          2.2934   -1.1408   -2.5450 C.2       1 <0>         0.0934
      7 N2          2.0599   -0.7315   -1.3244 N.2       1 <0>        -0.2947
      8 C6          3.6376   -1.5286   -3.1050 C.3       1 <0>        -0.0759
      9 C7          0.8894   -1.5493   -4.6827 C.3       1 <0>         0.2230
     10 N3          1.0414   -0.3714   -5.5404 N.am      1 <0>        -0.7397
     11 C8          0.9112   -0.4895   -6.8767 C.2       1 <0>         0.7046
     12 O1          0.6675   -1.5736   -7.3703 O.2       1 <0>        -0.5896
     13 N4          1.0511    0.5941   -7.6658 N.am      1 <0>        -0.7455
     14 C9          0.9095    0.4657   -9.1183 C.3       1 <0>         0.1845
     15 C10         1.1105    1.8127   -9.7636 C.ar      1 <0>        -0.0897
     16 C11         0.0280    2.6522   -9.9586 C.ar      1 <0>        -0.0921
     17 C12         0.2163    3.8893  -10.5511 C.ar      1 <0>         0.0777
     18 C13         1.4859    4.2844  -10.9476 C.ar      1 <0>         0.0831
     19 C14         2.5678    3.4421  -10.7510 C.ar      1 <0>        -0.0381
     20 C15         2.3763    2.2076  -10.1534 C.ar      1 <0>        -0.0840
     21 Cl1         4.1572    3.9340  -11.2462 Cl        1 <0>        -0.0424
     22 O2          1.6608    5.5062  -11.5303 O.3       1 <0>        -0.3082
     23 C16         1.0906    5.6653  -12.8310 C.3       1 <0>         0.0595
     24 C17        -0.3783    6.0462  -12.7331 C.3       1 <0>        -0.1891
     25 C18        -1.2215    4.9454  -12.1089 C.3       1 <0>         0.0586
     26 O3         -0.8429    4.7268  -10.7484 O.3       1 <0>        -0.3137
     27 C19        -1.3540   -0.5953   -2.7222 C.3       1 <0>        -0.0971
     28 H1          1.0039    1.9031    0.0027 H         1 <0>         0.0657
     29 H2         -0.5459    1.8868   -0.8726 H         1 <0>         0.0608
     30 H3         -0.5289    1.8773    0.9072 H         1 <0>         0.0790
     31 H4          0.5293   -0.3651    0.8851 H         1 <0>         0.0968
     32 H5         -1.0205   -0.3814    0.0098 H         1 <0>         0.0938
     33 H6          4.1214   -0.6494   -3.5305 H         1 <0>         0.0771
     34 H7          4.2597   -1.9356   -2.3078 H         1 <0>         0.0738
     35 H8          3.5041   -2.2815   -3.8819 H         1 <0>         0.0791
     36 H9          1.6355   -2.2958   -4.9550 H         1 <0>         0.0736
     37 H10        -0.1083   -1.9680   -4.8140 H         1 <0>         0.0700
     38 H11         1.2358    0.4935   -5.1466 H         1 <0>         0.3957
     39 H12         1.2454    1.4590   -7.2720 H         1 <0>         0.3979
     40 H13         1.6561   -0.2330   -9.4957 H         1 <0>         0.0820
     41 H14        -0.0877    0.0947   -9.3548 H         1 <0>         0.0815
     42 H15        -0.9600    2.3436   -9.6502 H         1 <0>         0.1447
     43 H16         3.2181    1.5498   -9.9949 H         1 <0>         0.1461
     44 H17         1.6293    6.4476  -13.3656 H         1 <0>         0.1093
     45 H18         1.1823    4.7281  -13.3800 H         1 <0>         0.0596
     46 H19        -0.4696    6.9476  -12.1271 H         1 <0>         0.0865
     47 H20        -0.7561    6.2560  -13.7338 H         1 <0>         0.0947
     48 H21        -2.2722    5.2330  -12.1472 H         1 <0>         0.1090
     49 H22        -1.0819    4.0231  -12.6728 H         1 <0>         0.0602
     50 H23        -1.5475    0.4117   -3.0919 H         1 <0>         0.0824
     51 H24        -1.6273   -1.3220   -3.4873 H         1 <0>         0.0887
     52 H25        -1.9461   -0.7727   -1.8245 H         1 <0>         0.0724
@<TRIPOS>BOND
     1    1    2 1
     2    1   28 1
     3    1   29 1
     4    1   30 1
     5    2    3 1
     6    2   31 1
     7    2   32 1
     8    3    7 1
     9    3    4 1
    10    4    5 2
    11    4   27 1
    12    5    6 1
    13    5    9 1
    14    6    7 2
    15    6    8 1
    16    8   33 1
    17    8   34 1
    18    8   35 1
    19    9   10 1
    20    9   36 1
    21    9   37 1
    22   10   11 am
    23   10   38 1
    24   11   12 2
    25   11   13 am
    26   13   14 1
    27   13   39 1
    28   14   15 1
    29   14   40 1
    30   14   41 1
    31   15   20 ar
    32   15   16 ar
    33   16   17 ar
    34   16   42 1
    35   17   26 1
    36   17   18 ar
    37   18   19 ar
    38   18   22 1
    39   19   20 ar
    40   19   21 1
    41   20   43 1
    42   22   23 1
    43   23   24 1
    44   23   44 1
    45   23   45 1
    46   24   25 1
    47   24   46 1
    48   24   47 1
    49   25   26 1
    50   25   48 1
    51   25   49 1
    52   27   50 1
    53   27   51 1
    54   27   52 1
@<TRIPOS>MOLECULE
ZINC19858596
   36    38     0     0     0
SMALL
USER_CHARGES
(2S)-2-(2-furylmethylamino)-7-methyl-2-(trifluoromethyl)-4H-1,4-benzoxazin-3-one
@<TRIPOS>ATOM
      1 C1         -2.5121    1.0958   -0.1022 C.3       1 <0>        -0.1182
      2 C2         -1.2092    1.8508   -0.0425 C.ar      1 <0>        -0.0731
      3 C3         -1.2162    3.2305    0.0503 C.ar      1 <0>        -0.0985
      4 C4         -0.0247    3.9298    0.1049 C.ar      1 <0>        -0.1151
      5 C5          1.1793    3.2444    0.0718 C.ar      1 <0>         0.0978
      6 C6          1.1861    1.8548   -0.0266 C.ar      1 <0>         0.0626
      7 C7         -0.0110    1.1611   -0.0759 C.ar      1 <0>        -0.0916
      8 O1          2.3709    1.1901   -0.0936 O.3       1 <0>        -0.2703
      9 C8          3.4762    1.7623    0.6091 C.3       1 <0>         0.2362
     10 C9          3.5373    3.2444    0.3387 C.2       1 <0>         0.4697
     11 O2          4.6085    3.8119    0.2962 O.2       1 <0>        -0.4816
     12 N1          2.3955    3.9371    0.1444 N.am      1 <0>        -0.6553
     13 C10         3.3026    1.5255    2.1107 C.3       1 <0>         0.4555
     14 F1          2.1839    2.2303    2.5677 F         1 <0>        -0.1699
     15 F2          3.1224    0.1589    2.3494 F         1 <0>        -0.1498
     16 F3          4.4429    1.9708    2.7879 F         1 <0>        -0.1629
     17 N2          4.7226    1.1308    0.1555 N.3       1 <0>        -0.6254
     18 C11         4.7726    1.0583   -1.3109 C.3       1 <0>         0.1329
     19 C12         6.0052    0.3018   -1.7346 C.2       1 <0>        -0.0227
     20 C13         6.0862   -1.0275   -1.9236 C.2       1 <0>        -0.1738
     21 C14         7.4159   -1.3052   -2.3157 C.2       1 <0>        -0.2169
     22 C15         8.0701   -0.1300   -2.3348 C.2       1 <0>        -0.0297
     23 O3          7.2106    0.8399   -1.9820 O.3       1 <0>        -0.1760
     24 H1         -3.3502    1.8072   -0.0642 H         1 <0>         0.0718
     25 H2         -2.5765    0.4074    0.7533 H         1 <0>         0.0760
     26 H3         -2.5606    0.5217   -1.0393 H         1 <0>         0.0758
     27 H4         -2.1551    3.7637    0.0762 H         1 <0>         0.1377
     28 H5         -0.0322    5.0076    0.1728 H         1 <0>         0.1393
     29 H6         -0.0091    0.0833   -0.1447 H         1 <0>         0.1445
     30 H7          2.4115    5.0323    0.0433 H         1 <0>         0.4506
     31 H8          5.5818    1.7197    0.5091 H         1 <0>         0.3918
     32 H9          3.8774    0.5386   -1.6830 H         1 <0>         0.1210
     33 H10         4.8056    2.0759   -1.7274 H         1 <0>         0.0608
     34 H11         5.2880   -1.7447   -1.8017 H         1 <0>         0.1509
     35 H12         7.8284   -2.2753   -2.5505 H         1 <0>         0.1509
     36 H13         9.1099    0.0100   -2.5907 H         1 <0>         0.2049
@<TRIPOS>BOND
     1    1    2 1
     2    1   24 1
     3    1   25 1
     4    1   26 1
     5    2    7 ar
     6    2    3 ar
     7    3    4 ar
     8    3   27 1
     9    4    5 ar
    10    4   28 1
    11    5   12 1
    12    5    6 ar
    13    6    7 ar
    14    6    8 1
    15    7   29 1
    16    8    9 1
    17    9   10 1
    18    9   13 1
    19    9   17 1
    20   10   11 2
    21   10   12 am
    22   12   30 1
    23   13   14 1
    24   13   15 1
    25   13   16 1
    26   17   18 1
    27   17   31 1
    28   18   19 1
    29   18   32 1
    30   18   33 1
    31   19   23 1
    32   19   20 2
    33   20   21 1
    34   20   34 1
    35   21   22 2
    36   21   35 1
    37   22   23 1
    38   22   36 1
@<TRIPOS>MOLECULE
ZINC37843646
   37    38     0     0     0
SMALL
USER_CHARGES

@<TRIPOS>ATOM
      1 C1         -5.1441   -0.5357   -1.7402 C.3       1 <0>        -0.1642
      2 C2         -4.4249    0.6365   -1.0698 C.3       1 <0>         0.0940
      3 N1         -3.2391    0.1432   -0.3649 N.pl3     1 <0>        -0.3964
      4 C3         -3.1639   -0.1297    0.9613 C.2       1 <0>         0.0652
      5 C4         -1.9130   -0.5641    1.2489 C.2       1 <0>        -0.1781
      6 C5         -1.1752   -0.5642    0.0605 C.2       1 <0>        -0.1059
      7 C6         -2.0177   -0.1260   -0.9396 C.2       1 <0>        -0.0468
      8 C7         -1.6737    0.0288   -2.3566 C.2       1 <0>         0.5957
      9 O1         -2.4953    0.4724   -3.1373 O.2       1 <0>        -0.5232
     10 N2         -0.4478   -0.3202   -2.7945 N.am      1 <0>        -0.6621
     11 C8         -0.0779   -0.0608   -4.1182 C.ar      1 <0>         0.1386
     12 C9         -1.0075   -0.2077   -5.1412 C.ar      1 <0>        -0.0887
     13 C10        -0.6471    0.0478   -6.4507 C.ar      1 <0>        -0.1080
     14 C11         0.6385    0.4502   -6.7516 C.ar      1 <0>        -0.0967
     15 C12         1.5794    0.6007   -5.7317 C.ar      1 <0>        -0.1191
     16 C13         1.2142    0.3483   -4.4093 C.ar      1 <0>        -0.0797
     17 C14         2.9573    1.0317   -6.0513 C.2       1 <0>         0.5585
     18 O2          3.7751    1.1621   -5.1616 O.2       1 <0>        -0.5330
     19 N3          3.3064    1.2798   -7.3292 N.am      1 <0>        -0.7308
     20 C15         4.6715    1.7068   -7.6459 C.3       1 <0>         0.0861
     21 Br1        -1.2772   -1.0779    2.9541 Br        1 <0>        -0.0222
     22 H1         -6.0264   -0.1687   -2.2647 H         1 <0>         0.0794
     23 H2         -4.4719   -1.0155   -2.4516 H         1 <0>         0.0668
     24 H3         -5.4465   -1.2581   -0.9820 H         1 <0>         0.0604
     25 H4         -4.1225    1.3589   -1.8280 H         1 <0>         0.1084
     26 H5         -5.0971    1.1163   -0.3584 H         1 <0>         0.0956
     27 H6         -3.9692   -0.0185    1.6723 H         1 <0>         0.1814
     28 H7         -0.1419   -0.8568   -0.0533 H         1 <0>         0.1543
     29 H8          0.1780   -0.7513   -2.1916 H         1 <0>         0.4163
     30 H9         -2.0147   -0.5230   -4.9119 H         1 <0>         0.1428
     31 H10        -1.3737   -0.0680   -7.2413 H         1 <0>         0.1353
     32 H11         0.9164    0.6482   -7.7763 H         1 <0>         0.1284
     33 H12         1.9368    0.4670   -3.6155 H         1 <0>         0.1417
     34 H13         2.6537    1.1757   -8.0393 H         1 <0>         0.4024
     35 H14         4.8898    2.6403   -7.1273 H         1 <0>         0.0625
     36 H15         5.3759    0.9395   -7.3248 H         1 <0>         0.0627
     37 H16         4.7646    1.8583   -8.7213 H         1 <0>         0.0783
@<TRIPOS>BOND
     1    1    2 1
     2    1   22 1
     3    1   23 1
     4    1   24 1
     5    2    3 1
     6    2   25 1
     7    2   26 1
     8    3    7 1
     9    3    4 1
    10    4    5 2
    11    4   27 1
    12    5    6 1
    13    5   21 1
    14    6    7 2
    15    6   28 1
    16    7    8 1
    17    8    9 2
    18    8   10 am
    19   10   11 1
    20   10   29 1
    21   11   16 ar
    22   11   12 ar
    23   12   13 ar
    24   12   30 1
    25   13   14 ar
    26   13   31 1
    27   14   15 ar
    28   14   32 1
    29   15   16 ar
    30   15   17 1
    31   16   33 1
    32   17   18 2
    33   17   19 am
    34   19   20 1
    35   19   34 1
    36   20   35 1
    37   20   36 1
    38   20   37 1
@<TRIPOS>MOLECULE
ZINC47411584
   36    39     0     0     0
SMALL
USER_CHARGES

@<TRIPOS>ATOM
      1 C1          0.1654    1.2251    0.1687 C.ar      1 <0>        -0.1508
      2 C2          1.3204    1.9613   -0.0567 C.ar      1 <0>        -0.0971
      3 C3          2.3882    1.4050   -0.7260 C.ar      1 <0>        -0.1334
      4 C4          2.3107    0.0921   -1.1813 C.ar      1 <0>         0.0907
      5 C5          1.1387   -0.6481   -0.9495 C.ar      1 <0>        -0.0824
      6 C6          0.0691   -0.0657   -0.2703 C.ar      1 <0>        -0.0560
      7 C7          1.3705   -1.9739   -1.5441 C.2       1 <0>        -0.1075
      8 C8          2.6162   -1.9506   -2.0749 C.2       1 <0>         0.0773
      9 N1          3.1851   -0.7243   -1.8643 N.pl3     1 <0>        -0.5897
     10 H1          4.0744   -0.4671   -2.1540 H         1 <0>         0.4192
     11 C9          0.4232   -3.1154   -1.5587 C.2       1 <0>         0.1758
     12 C10         0.7471   -4.3106   -2.1384 C.2       1 <0>        -0.2986
     13 S1         -0.7467   -5.2415   -1.8401 S.3       1 <0>         0.2231
     14 C11        -1.6116   -4.0480   -1.0288 C.2       1 <0>         0.2584
     15 N2         -0.7799   -3.0306   -1.0049 N.2       1 <0>        -0.5501
     16 N3         -2.8947   -4.1219   -0.5051 N.am      1 <0>        -0.6096
     17 C12        -3.6047   -5.2617   -0.6198 C.2       1 <0>         0.5372
     18 O1         -3.1206   -6.2264   -1.1828 O.2       1 <0>        -0.4627
     19 C13        -4.9561   -5.3395   -0.0682 C.2       1 <0>        -0.1727
     20 C14        -5.6272   -6.5141   -0.0856 C.2       1 <0>         0.0292
     21 C15        -4.8896   -7.7784   -0.0938 C.2       1 <0>         0.0502
     22 N4         -3.5887   -7.9963    0.0807 N.2       1 <0>        -0.4150
     23 C16        -3.1521   -9.2287    0.0311 C.2       1 <0>         0.0101
     24 C17        -4.0250  -10.2467   -0.1946 C.2       1 <0>        -0.2607
     25 S2         -5.4963   -9.4400   -0.3328 S.3       1 <0>         0.1475
     26 H2         -0.6615    1.6741    0.6987 H         1 <0>         0.1216
     27 H3          1.3824    2.9802    0.2959 H         1 <0>         0.1247
     28 H4          3.2824    1.9859   -0.8972 H         1 <0>         0.1198
     29 H5         -0.8326   -0.6327   -0.0919 H         1 <0>         0.1303
     30 H6          3.0889   -2.7754   -2.5875 H         1 <0>         0.1755
     31 H7          1.6562   -4.6092   -2.6392 H         1 <0>         0.1907
     32 H8         -3.2805   -3.3532   -0.0565 H         1 <0>         0.4229
     33 H9         -5.4189   -4.4593    0.3532 H         1 <0>         0.1560
     34 H10        -6.7072   -6.5189   -0.0933 H         1 <0>         0.1649
     35 H11        -2.1013   -9.4369    0.1687 H         1 <0>         0.1638
     36 H12        -3.8254  -11.3059   -0.2636 H         1 <0>         0.1974
@<TRIPOS>BOND
     1    1    6 ar
     2    1    2 ar
     3    1   26 1
     4    2    3 ar
     5    2   27 1
     6    3    4 ar
     7    3   28 1
     8    4    9 1
     9    4    5 ar
    10    5    6 ar
    11    5    7 1
    12    6   29 1
    13    7    8 2
    14    7   11 1
    15    8    9 1
    16    8   30 1
    17    9   10 1
    18   11   15 1
    19   11   12 2
    20   12   13 1
    21   12   31 1
    22   13   14 1
    23   14   15 2
    24   14   16 1
    25   16   17 am
    26   16   32 1
    27   17   18 2
    28   17   19 1
    29   19   20 2
    30   19   33 1
    31   20   21 1
    32   20   34 1
    33   21   25 1
    34   21   22 2
    35   22   23 1
    36   23   24 2
    37   23   35 1
    38   24   25 1
    39   24   36 1
@<TRIPOS>MOLECULE
ZINC61663962
   30    31     0     0     0
SMALL
USER_CHARGES

@<TRIPOS>ATOM
      1 C1         -0.0167    1.3804    0.0096 C.ar      1 <0>        -0.1410
      2 C2          1.1825    2.0773    0.0019 C.ar      1 <0>        -0.0536
      3 C3          2.3653    1.3572   -0.0132 C.ar      1 <0>        -0.0922
      4 C4          2.3098   -0.0363   -0.0202 C.ar      1 <0>         0.2027
      5 N1          1.1400   -0.6647   -0.0124 N.ar      1 <0>        -0.4446
      6 C5          0.0021   -0.0041    0.0020 C.ar      1 <0>         0.1098
      7 C6          3.5239   -0.7955   -0.0363 C.1       1 <0>         0.2534
      8 N2          4.4870   -1.3977   -0.0491 N.1       1 <0>        -0.3706
      9 C7          3.6935    2.0692   -0.0226 C.3       1 <0>         0.1073
     10 O1          3.4769    3.4816   -0.0134 O.3       1 <0>        -0.3455
     11 C8          4.5706    4.2682   -0.0200 C.2       1 <0>         0.4996
     12 O2          5.6778    3.7688   -0.0334 O.2       1 <0>        -0.4627
     13 C9          4.4234    5.7376   -0.0112 C.ar      1 <0>        -0.0507
     14 C10         3.1523    6.3142    0.0099 C.ar      1 <0>        -0.1385
     15 C11         3.0225    7.6939    0.0180 C.ar      1 <0>         0.2199
     16 C12         4.1558    8.4995    0.0047 C.ar      1 <0>        -0.1579
     17 C13         5.4145    7.9300   -0.0161 C.ar      1 <0>        -0.0499
     18 C14         5.5559    6.5559   -0.0181 C.ar      1 <0>        -0.0983
     19 Br1         7.2814    5.7826   -0.0387 Br        1 <0>        -0.0143
     20 N3          1.7520    8.2758    0.0391 N.pl3     1 <0>        -0.8700
     21 H1         -0.9563    1.9127    0.0259 H         1 <0>         0.1502
     22 H2          1.1936    3.1572    0.0073 H         1 <0>         0.1549
     23 H3         -0.9302   -0.5493    0.0080 H         1 <0>         0.1729
     24 H4          4.2651    1.7835    0.8604 H         1 <0>         0.0936
     25 H5          4.2478    1.7925   -0.9194 H         1 <0>         0.0936
     26 H6          2.2730    5.6872    0.0194 H         1 <0>         0.1434
     27 H7          4.0517    9.5745    0.0104 H         1 <0>         0.1376
     28 H8          6.2907    8.5612   -0.0267 H         1 <0>         0.1435
     29 H9          0.9613    7.7140    0.0480 H         1 <0>         0.4032
     30 H10         1.6609    9.2415    0.0448 H         1 <0>         0.4040
@<TRIPOS>BOND
     1    1    6 ar
     2    1    2 ar
     3    1   21 1
     4    2    3 ar
     5    2   22 1
     6    3    4 ar
     7    3    9 1
     8    4    5 ar
     9    4    7 1
    10    5    6 ar
    11    6   23 1
    12    7    8 3
    13    9   10 1
    14    9   24 1
    15    9   25 1
    16   10   11 1
    17   11   12 2
    18   11   13 1
    19   13   18 ar
    20   13   14 ar
    21   14   15 ar
    22   14   26 1
    23   15   16 ar
    24   15   20 1
    25   16   17 ar
    26   16   27 1
    27   17   18 ar
    28   17   28 1
    29   18   19 1
    30   20   29 1
    31   20   30 1
@<TRIPOS>MOLECULE
ZINC67017946
   36    38     0     0     0
SMALL
USER_CHARGES

@<TRIPOS>ATOM
      1 C1         -4.8405   -3.4843   -7.0495 C.3       1 <0>        -0.0587
      2 C2         -4.0926   -4.2252   -5.9712 C.2       1 <0>         0.0305
      3 N1         -2.9918   -3.8947   -5.3264 N.2       1 <0>        -0.2346
      4 N2         -2.5353   -4.6789   -4.4471 N.2       1 <0>        -0.2995
      5 C3         -3.1287   -5.8196   -4.1553 C.2       1 <0>         0.2534
      6 S1         -4.4520   -5.7969   -5.1996 S.3       1 <0>         0.0705
      7 N3         -2.7617   -6.7865   -3.2254 N.am      1 <0>        -0.6226
      8 C4         -1.6569   -6.6130   -2.4731 C.2       1 <0>         0.6988
      9 O1         -0.9812   -5.6112   -2.6074 O.2       1 <0>        -0.5220
     10 N4         -1.3012   -7.5500   -1.5720 N.am      1 <0>        -0.7307
     11 C5         -0.1004   -7.3614   -0.7543 C.3       1 <0>         0.1808
     12 C6          0.0605   -8.5488    0.1970 C.3       1 <0>        -0.1151
     13 C7          1.4504   -9.1779    0.3129 C.3       1 <0>        -0.1448
     14 C8          0.3339   -9.9199   -0.4245 C.3       1 <0>        -0.1646
     15 C9         -0.7900   -8.5055    1.4403 C.ar      1 <0>        -0.0446
     16 C10        -0.5744   -7.5254    2.3911 C.ar      1 <0>        -0.0946
     17 C11        -1.3541   -7.4851    3.5316 C.ar      1 <0>        -0.1066
     18 C12        -2.3506   -8.4259    3.7215 C.ar      1 <0>        -0.0353
     19 C13        -2.5659   -9.4065    2.7696 C.ar      1 <0>        -0.1083
     20 C14        -1.7892   -9.4424    1.6269 C.ar      1 <0>        -0.1022
     21 Cl1        -3.3300   -8.3763    5.1540 Cl        1 <0>        -0.0676
     22 H1         -5.5793   -2.8260   -6.5926 H         1 <0>         0.0950
     23 H2         -4.1390   -2.8913   -7.6364 H         1 <0>         0.1015
     24 H3         -5.3440   -4.1998   -7.6996 H         1 <0>         0.0902
     25 H4         -3.3008   -7.5857   -3.1182 H         1 <0>         0.4240
     26 H5         -1.8404   -8.3492   -1.4649 H         1 <0>         0.3996
     27 H6          0.7735   -7.2940   -1.4023 H         1 <0>         0.0783
     28 H7         -0.1954   -6.4426   -0.1757 H         1 <0>         0.0789
     29 H8          2.2501   -8.7458   -0.2886 H         1 <0>         0.1053
     30 H9          1.7499   -9.5605    1.2886 H         1 <0>         0.1035
     31 H10        -0.1012  -10.7907    0.0662 H         1 <0>         0.1025
     32 H11         0.3991   -9.9760   -1.5111 H         1 <0>         0.1028
     33 H12         0.2037   -6.7912    2.2428 H         1 <0>         0.1340
     34 H13        -1.1854   -6.7196    4.2745 H         1 <0>         0.1355
     35 H14        -3.3434  -10.1414    2.9175 H         1 <0>         0.1346
     36 H15        -1.9604  -10.2049    0.8815 H         1 <0>         0.1322
@<TRIPOS>BOND
     1    1    2 1
     2    1   22 1
     3    1   23 1
     4    1   24 1
     5    2    6 1
     6    2    3 2
     7    3    4 1
     8    4    5 2
     9    5    6 1
    10    5    7 1
    11    7    8 am
    12    7   25 1
    13    8    9 2
    14    8   10 am
    15   10   11 1
    16   10   26 1
    17   11   12 1
    18   11   27 1
    19   11   28 1
    20   12   14 1
    21   12   13 1
    22   12   15 1
    23   13   14 1
    24   13   29 1
    25   13   30 1
    26   14   31 1
    27   14   32 1
    28   15   20 ar
    29   15   16 ar
    30   16   17 ar
    31   16   33 1
    32   17   18 ar
    33   17   34 1
    34   18   19 ar
    35   18   21 1
    36   19   20 ar
    37   19   35 1
    38   20   36 1
@<TRIPOS>MOLECULE
ZINC16854173
   42    44     0     0     0
SMALL
USER_CHARGES
2-amino-6-methyl-5-[2-(1-naphthylmethylsulfanyl)ethyl]-3H-pyrimidin-4-one
@<TRIPOS>ATOM
      1 C1         -4.7817    0.7432    0.0288 C.3       1 <0>        -0.1114
      2 C2         -3.5144    1.5587    0.0272 C.2       1 <0>         0.2354
      3 C3         -3.5814    2.9216    0.0345 C.2       1 <0>        -0.3154
      4 C4         -2.3851    3.6607    0.0328 C.2       1 <0>         0.5472
      5 O1         -2.4079    4.8806    0.0391 O.2       1 <0>        -0.5331
      6 N1         -1.2107    2.9945    0.0297 N.am      1 <0>        -0.6542
      7 H1         -0.3734    3.4842    0.0323 H         1 <0>         0.4124
      8 C5         -1.2058    1.6341    0.0167 C.2       1 <0>         0.6404
      9 N2         -2.3316    0.9483    0.0183 N.2       1 <0>        -0.5927
     10 N3         -0.0111    0.9658    0.0074 N.pl3     1 <0>        -0.8185
     11 C6         -4.9151    3.6231    0.0436 C.3       1 <0>        -0.0239
     12 C7         -5.3020    3.9643    1.4840 C.3       1 <0>        -0.0805
     13 S1         -6.9075    4.8087    1.4950 S.3       1 <0>        -0.2458
     14 C8         -7.2172    5.1397    3.2515 C.3       1 <0>        -0.0485
     15 C9         -8.5385    5.8483    3.4037 C.ar      1 <0>        -0.0616
     16 C10        -9.6837    5.1318    3.5724 C.ar      1 <0>        -0.0942
     17 C11       -10.9143    5.7694    3.7148 C.ar      1 <0>        -0.1166
     18 C12       -11.0073    7.1273    3.6899 C.ar      1 <0>        -0.0995
     19 C13        -9.8468    7.9004    3.5182 C.ar      1 <0>        -0.0527
     20 C14        -8.5941    7.2520    3.3782 C.ar      1 <0>        -0.0364
     21 C15        -7.4339    8.0253    3.2021 C.ar      1 <0>        -0.1036
     22 C16        -7.5270    9.3828    3.1764 C.ar      1 <0>        -0.1132
     23 C17        -8.7582   10.0206    3.3183 C.ar      1 <0>        -0.1155
     24 C18        -9.9031    9.3044    3.4868 C.ar      1 <0>        -0.1063
     25 H2         -4.5312   -0.3176    0.0218 H         1 <0>         0.0815
     26 H3         -5.3611    0.9739    0.9228 H         1 <0>         0.0859
     27 H4         -5.3695    0.9836   -0.8571 H         1 <0>         0.0888
     28 H5          0.0021   -0.0041    0.0020 H         1 <0>         0.4305
     29 H6          0.8223    1.4622    0.0021 H         1 <0>         0.4156
     30 H7         -4.8473    4.5403   -0.5414 H         1 <0>         0.0826
     31 H8         -5.6720    2.9701   -0.3909 H         1 <0>         0.0823
     32 H9         -5.3698    3.0471    2.0690 H         1 <0>         0.0773
     33 H10        -4.5451    4.6173    1.9185 H         1 <0>         0.0801
     34 H11        -7.2448    4.1978    3.7993 H         1 <0>         0.0914
     35 H12        -6.4201    5.7680    3.6488 H         1 <0>         0.0906
     36 H13        -9.6376    4.0531    3.5957 H         1 <0>         0.1256
     37 H14       -11.8078    5.1774    3.8473 H         1 <0>         0.1262
     38 H15       -11.9680    7.6077    3.8020 H         1 <0>         0.1284
     39 H16        -6.4729    7.5450    3.0916 H         1 <0>         0.1269
     40 H17        -6.6334    9.9748    3.0444 H         1 <0>         0.1235
     41 H18        -8.8042   11.0993    3.2946 H         1 <0>         0.1235
     42 H19       -10.8499    9.8123    3.5962 H         1 <0>         0.1276
@<TRIPOS>BOND
     1    1    2 1
     2    1   25 1
     3    1   26 1
     4    1   27 1
     5    2    9 1
     6    2    3 2
     7    3    4 1
     8    3   11 1
     9    4    5 2
    10    4    6 am
    11    6    7 1
    12    6    8 1
    13    8    9 2
    14    8   10 1
    15   10   28 1
    16   10   29 1
    17   11   12 1
    18   11   30 1
    19   11   31 1
    20   12   13 1
    21   12   32 1
    22   12   33 1
    23   13   14 1
    24   14   15 1
    25   14   34 1
    26   14   35 1
    27   15   20 ar
    28   15   16 ar
    29   16   17 ar
    30   16   36 1
    31   17   18 ar
    32   17   37 1
    33   18   19 ar
    34   18   38 1
    35   19   24 ar
    36   19   20 ar
    37   20   21 ar
    38   21   22 ar
    39   21   39 1
    40   22   23 ar
    41   22   40 1
    42   23   24 ar
    43   23   41 1
    44   24   42 1
@<TRIPOS>MOLECULE
ZINC38079810
   35    36     0     0     0
SMALL
USER_CHARGES

@<TRIPOS>ATOM
      1 C1         -0.0167    1.3775    0.0096 C.ar      1 <0>        -0.0323
      2 C2          1.1687    2.0872    0.0021 C.ar      1 <0>        -0.2322
      3 C3          2.3831    1.4125   -0.0135 C.ar      1 <0>         0.2526
      4 C4          2.4036    0.0243   -0.0211 C.ar      1 <0>        -0.2327
      5 C5          1.2124   -0.6837   -0.0131 C.ar      1 <0>         0.1731
      6 C6          0.0021   -0.0041    0.0020 C.ar      1 <0>        -0.2660
      7 O1          1.2291   -2.0425   -0.0210 O.3       1 <0>        -0.3144
      8 C7         -0.0361   -2.7069   -0.0119 C.3       1 <0>         0.0458
      9 C8          0.1829   -4.2211   -0.0227 C.3       1 <0>         0.1223
     10 N1          0.8432   -4.6279    1.2202 N.am      1 <0>        -0.7205
     11 C9          1.1381   -5.9256    1.4331 C.2       1 <0>         0.5631
     12 O2          0.8564   -6.7585    0.5938 O.2       1 <0>        -0.5232
     13 C10         1.8045   -6.3361    2.6875 C.ar      1 <0>        -0.0992
     14 C11         2.1241   -5.3828    3.6554 C.ar      1 <0>        -0.1080
     15 C12         2.7469   -5.7729    4.8256 C.ar      1 <0>         0.1055
     16 C13         3.0540   -7.1073    5.0380 C.ar      1 <0>        -0.1011
     17 C14         2.7391   -8.0562    4.0812 C.ar      1 <0>        -0.0729
     18 C15         2.1111   -7.6790    2.9107 C.ar      1 <0>        -0.0413
     19 Br1         3.1631   -9.8746    4.3806 Br        1 <0>        -0.0193
     20 F1          3.0572   -4.8517    5.7639 F         1 <0>        -0.1257
     21 N2          3.5815    2.1297   -0.0220 N.pl3     1 <0>        -0.8735
     22 H1         -0.9597    1.9036    0.0259 H         1 <0>         0.1249
     23 H2          1.1513    3.1670    0.0080 H         1 <0>         0.1214
     24 H3          3.3462   -0.5028   -0.0336 H         1 <0>         0.1273
     25 H4         -0.9262   -0.5560    0.0082 H         1 <0>         0.1243
     26 H5         -0.5876   -2.4259    0.8853 H         1 <0>         0.0732
     27 H6         -0.6056   -2.4159   -0.8946 H         1 <0>         0.0856
     28 H7         -0.7791   -4.7268   -0.1054 H         1 <0>         0.0962
     29 H8          0.8098   -4.4915   -0.8724 H         1 <0>         0.0856
     30 H9          1.0681   -3.9632    1.8899 H         1 <0>         0.4045
     31 H10         1.8856   -4.3425    3.4901 H         1 <0>         0.1464
     32 H11         3.5414   -7.4080    5.9537 H         1 <0>         0.1534
     33 H12         1.8620   -8.4215    2.1670 H         1 <0>         0.1561
     34 H13         3.5663    3.0995   -0.0170 H         1 <0>         0.4012
     35 H14         4.4290    1.6579   -0.0330 H         1 <0>         0.4000
@<TRIPOS>BOND
     1    1    6 ar
     2    1    2 ar
     3    1   22 1
     4    2    3 ar
     5    2   23 1
     6    3    4 ar
     7    3   21 1
     8    4    5 ar
     9    4   24 1
    10    5    6 ar
    11    5    7 1
    12    6   25 1
    13    7    8 1
    14    8    9 1
    15    8   26 1
    16    8   27 1
    17    9   10 1
    18    9   28 1
    19    9   29 1
    20   10   11 am
    21   10   30 1
    22   11   12 2
    23   11   13 1
    24   13   18 ar
    25   13   14 ar
    26   14   15 ar
    27   14   31 1
    28   15   16 ar
    29   15   20 1
    30   16   17 ar
    31   16   32 1
    32   17   18 ar
    33   17   19 1
    34   18   33 1
    35   21   34 1
    36   21   35 1
@<TRIPOS>MOLECULE
ZINC49126962
   35    36     0     0     0
SMALL
USER_CHARGES

@<TRIPOS>ATOM
      1 C1         -0.0187    1.5258    0.0104 C.3       1 <0>        -0.1787
      2 C2          0.0021   -0.0041    0.0020 C.3       1 <0>         0.2308
      3 H1          0.5123   -0.3556   -0.8948 H         1 <0>         0.1174
      4 C3         -1.4117   -0.5257    0.0127 C.2       1 <0>        -0.1468
      5 C4         -2.1568   -0.9920   -1.0186 C.2       1 <0>        -0.1370
      6 C5         -3.4470   -1.4244   -0.7724 C.2       1 <0>        -0.1357
      7 C6         -3.9280   -1.3685    0.4948 C.2       1 <0>        -0.1189
      8 S1         -2.5363   -0.6967    1.3887 S.3       1 <0>         0.1009
      9 Cl1        -5.4892   -1.8357    1.0931 Cl        1 <0>         0.0204
     10 N1          0.7106   -0.4894    1.1889 N.pl3     1 <0>        -1.1189
     11 S2          2.3218   -0.8609    1.0971 S.o2      1 <0>         2.5992
     12 O1          2.6644   -1.3129    2.4000 O.2       1 <0>        -0.9479
     13 O2          2.4306   -1.7289   -0.0227 O.2       1 <0>        -0.9471
     14 C7          3.1449    0.7172    0.7468 C.3       1 <0>        -0.5679
     15 C8          4.6318    0.4957    0.6412 C.ar      1 <0>        -0.1605
     16 C9          5.4252    0.5906    1.7699 C.ar      1 <0>        -0.0511
     17 C10         6.7881    0.3882    1.6767 C.ar      1 <0>        -0.1971
     18 C11         7.3619    0.0889    0.4475 C.ar      1 <0>         0.2288
     19 C12         6.5620   -0.0057   -0.6842 C.ar      1 <0>        -0.1972
     20 C13         5.1989    0.1924   -0.5830 C.ar      1 <0>        -0.0510
     21 N2          8.7400   -0.1159    0.3497 N.pl3     1 <0>        -0.8735
     22 H2          1.0039    1.9031    0.0027 H         1 <0>         0.0718
     23 H3         -0.5459    1.8868   -0.8726 H         1 <0>         0.0809
     24 H4         -0.5289    1.8773    0.9072 H         1 <0>         0.0725
     25 H5         -1.7492   -1.0252   -2.0181 H         1 <0>         0.1465
     26 H6         -4.0622   -1.8003   -1.5765 H         1 <0>         0.1456
     27 H7          0.2360   -0.5931    2.0285 H         1 <0>         0.4186
     28 H8          2.7702    1.1215   -0.1936 H         1 <0>         0.1388
     29 H9          2.9388    1.4213    1.5528 H         1 <0>         0.1413
     30 H10         4.9785    0.8236    2.7252 H         1 <0>         0.1299
     31 H11         7.4073    0.4628    2.5585 H         1 <0>         0.1272
     32 H12         7.0049   -0.2378   -1.6414 H         1 <0>         0.1272
     33 H13         4.5758    0.1146   -1.4617 H         1 <0>         0.1298
     34 H14         9.2976   -0.0493    1.1406 H         1 <0>         0.4008
     35 H15         9.1395   -0.3248   -0.5092 H         1 <0>         0.4008
@<TRIPOS>BOND
     1    1    2 1
     2    1   22 1
     3    1   23 1
     4    1   24 1
     5    2    3 1
     6    2    4 1
     7    2   10 1
     8    4    8 1
     9    4    5 2
    10    5    6 1
    11    5   25 1
    12    6    7 2
    13    6   26 1
    14    7    8 1
    15    7    9 1
    16   10   11 1
    17   10   27 1
    18   11   12 2
    19   11   13 2
    20   11   14 1
    21   14   15 1
    22   14   28 1
    23   14   29 1
    24   15   20 ar
    25   15   16 ar
    26   16   17 ar
    27   16   30 1
    28   17   18 ar
    29   17   31 1
    30   18   19 ar
    31   18   21 1
    32   19   20 ar
    33   19   32 1
    34   20   33 1
    35   21   34 1
    36   21   35 1
@<TRIPOS>MOLECULE
ZINC51667543
   34    35     0     0     0
SMALL
USER_CHARGES

@<TRIPOS>ATOM
      1 C1         -0.0167    1.3780    0.0096 C.ar      1 <0>        -0.1320
      2 C2          1.1709    2.0861    0.0021 C.ar      1 <0>        -0.0514
      3 C3          2.3773    1.4123   -0.0135 C.ar      1 <0>        -0.1268
      4 C4          2.3967    0.0287   -0.0210 C.ar      1 <0>         0.0438
      5 C5          1.2083   -0.6792   -0.0130 C.ar      1 <0>        -0.6724
      6 C6          0.0021   -0.0041    0.0020 C.ar      1 <0>        -0.0087
      7 S1          1.2320   -2.4410   -0.0232 S.o2      1 <0>         2.6922
      8 O1          2.1436   -2.8408    0.9909 O.2       1 <0>        -0.9359
      9 O2         -0.1241   -2.8653   -0.0390 O.2       1 <0>        -0.9494
     10 N1          1.8925   -2.9134   -1.4664 N.pl3     1 <0>        -1.1078
     11 C7          3.2903   -2.5972   -1.7707 C.3       1 <0>         0.1447
     12 C8          3.7507   -3.4298   -2.9394 C.ar      1 <0>        -0.0705
     13 C9          4.3151   -4.6737   -2.7188 C.ar      1 <0>        -0.1037
     14 C10         4.7383   -5.4413   -3.7839 C.ar      1 <0>        -0.0468
     15 C11         4.5961   -4.9602   -5.0872 C.ar      1 <0>        -0.1044
     16 C12         4.0257   -3.7038   -5.3025 C.ar      1 <0>        -0.0861
     17 C13         3.6020   -2.9491   -4.2284 C.ar      1 <0>        -0.1064
     18 C14         5.0472   -5.7758   -6.2320 C.2       1 <0>         0.3918
     19 S2          4.8975   -7.4805   -6.1804 S.2       1 <0>        -0.5439
     20 N2          5.5768   -5.1784   -7.3179 N.pl3     1 <0>        -0.7608
     21 Cl1         3.9119   -0.8184   -0.0411 Cl        1 <0>        -0.0387
     22 H1         -0.9592    1.9049    0.0259 H         1 <0>         0.1428
     23 H2          1.1556    3.1659    0.0080 H         1 <0>         0.1434
     24 H3          3.3048    1.9655   -0.0201 H         1 <0>         0.1454
     25 H4         -0.9258   -0.5566    0.0079 H         1 <0>         0.1546
     26 H5          1.3540   -3.3995   -2.1103 H         1 <0>         0.4240
     27 H6          3.3774   -1.5399   -2.0211 H         1 <0>         0.0848
     28 H7          3.9101   -2.8170   -0.9014 H         1 <0>         0.0969
     29 H8          4.4248   -5.0444   -1.7104 H         1 <0>         0.1399
     30 H9          5.1789   -6.4119   -3.6103 H         1 <0>         0.1481
     31 H10         3.9127   -3.3258   -6.3078 H         1 <0>         0.1293
     32 H11         3.1569   -1.9791   -4.3936 H         1 <0>         0.1352
     33 H12         5.6616   -4.2126   -7.3471 H         1 <0>         0.4039
     34 H13         5.8732   -5.7143   -8.0701 H         1 <0>         0.4248
@<TRIPOS>BOND
     1    1    6 ar
     2    1    2 ar
     3    1   22 1
     4    2    3 ar
     5    2   23 1
     6    3    4 ar
     7    3   24 1
     8    4    5 ar
     9    4   21 1
    10    5    6 ar
    11    5    7 1
    12    6   25 1
    13    7    8 2
    14    7    9 2
    15    7   10 1
    16   10   11 1
    17   10   26 1
    18   11   12 1
    19   11   27 1
    20   11   28 1
    21   12   17 ar
    22   12   13 ar
    23   13   14 ar
    24   13   29 1
    25   14   15 ar
    26   14   30 1
    27   15   16 ar
    28   15   18 1
    29   16   17 ar
    30   16   31 1
    31   17   32 1
    32   18   19 2
    33   18   20 1
    34   20   33 1
    35   20   34 1
@<TRIPOS>MOLECULE
ZINC67196609
   41    42     0     0     0
SMALL
USER_CHARGES

@<TRIPOS>ATOM
      1 C1          1.0779    1.6046    0.4431 C.3       1 <0>        -0.1189
      2 C2          1.1168    0.0987    0.4018 C.ar      1 <0>        -0.0876
      3 C3          1.5208   -0.5500   -0.7523 C.ar      1 <0>        -0.1014
      4 C4          1.5599   -1.9324   -0.8001 C.ar      1 <0>        -0.1188
      5 C5          1.1955   -2.6747    0.3036 C.ar      1 <0>        -0.1020
      6 C6          0.7863   -2.0268    1.4731 C.ar      1 <0>        -0.0853
      7 C7          0.7553   -0.6292    1.5155 C.ar      1 <0>        -0.0888
      8 C8          0.3958   -2.8117    2.6557 C.2       1 <0>         0.0160
      9 C9          0.4321   -4.1586    2.6128 C.2       1 <0>        -0.2267
     10 C10         0.0437   -4.9393    3.7892 C.2       1 <0>         0.5604
     11 O1         -0.3120   -4.3722    4.8055 O.2       1 <0>        -0.5234
     12 N1          0.0800   -6.2859    3.7463 N.am      1 <0>        -0.5485
     13 N2         -0.2917   -7.0328    4.8718 N.pl3     1 <0>        -0.4609
     14 C11        -0.2554   -8.3794    4.8290 C.2       1 <0>         0.5542
     15 S1         -0.7096   -9.2921    6.2043 S.2       1 <0>        -0.5621
     16 N3          0.1385   -9.0074    3.7034 N.pl3     1 <0>        -0.6309
     17 C12         0.2625  -10.4009    3.6867 C.ar      1 <0>         0.1176
     18 C13        -0.7394  -11.1944    4.2330 C.ar      1 <0>        -0.0576
     19 C14        -0.6213  -12.5713    4.2193 C.ar      1 <0>        -0.1101
     20 C15         0.4923  -13.1675    3.6625 C.ar      1 <0>        -0.0828
     21 C16         1.5034  -12.3795    3.1111 C.ar      1 <0>         0.0132
     22 C17         1.3818  -10.9904    3.1202 C.ar      1 <0>        -0.0959
     23 C18         2.6596  -12.9956    2.5329 C.1       1 <0>        -0.1535
     24 C19         3.6075  -13.5007    2.0589 C.1       1 <0>        -0.1688
     25 H1          2.0427    1.9839    0.7799 H         1 <0>         0.0740
     26 H2          0.8638    1.9901   -0.5537 H         1 <0>         0.0696
     27 H3          0.2990    1.9292    1.1332 H         1 <0>         0.0695
     28 H4          1.8066    0.0258   -1.6202 H         1 <0>         0.1268
     29 H5          1.8761   -2.4313   -1.7042 H         1 <0>         0.1285
     30 H6          1.2259   -3.7535    0.2646 H         1 <0>         0.1273
     31 H7          0.4449   -0.1216    2.4168 H         1 <0>         0.1303
     32 H8          0.0802   -2.3084    3.5577 H         1 <0>         0.1407
     33 H9          0.7478   -4.6618    1.7109 H         1 <0>         0.1373
     34 H10         0.3635   -6.7378    2.9362 H         1 <0>         0.4215
     35 H11        -0.5752   -6.5808    5.6819 H         1 <0>         0.4621
     36 H12         0.3360   -8.4933    2.9049 H         1 <0>         0.4015
     37 H13        -1.6129  -10.7335    4.6700 H         1 <0>         0.1521
     38 H14        -1.4026  -13.1828    4.6459 H         1 <0>         0.1372
     39 H15         0.5811  -14.2438    3.6540 H         1 <0>         0.1311
     40 H16         2.1592  -10.3757    2.6909 H         1 <0>         0.1281
     41 H17         4.4552  -13.9525    1.6350 H         1 <0>         0.2252
@<TRIPOS>BOND
     1    1    2 1
     2    1   25 1
     3    1   26 1
     4    1   27 1
     5    2    7 ar
     6    2    3 ar
     7    3    4 ar
     8    3   28 1
     9    4    5 ar
    10    4   29 1
    11    5    6 ar
    12    5   30 1
    13    6    7 ar
    14    6    8 1
    15    7   31 1
    16    8    9 2
    17    8   32 1
    18    9   10 1
    19    9   33 1
    20   10   11 2
    21   10   12 am
    22   12   13 1
    23   12   34 1
    24   13   14 1
    25   13   35 1
    26   14   15 2
    27   14   16 1
    28   16   17 1
    29   16   36 1
    30   17   22 ar
    31   17   18 ar
    32   18   19 ar
    33   18   37 1
    34   19   20 ar
    35   19   38 1
    36   20   21 ar
    37   20   39 1
    38   21   22 ar
    39   21   23 1
    40   22   40 1
    41   23   24 3
    42   24   41 1
@<TRIPOS>MOLECULE
ZINC20679835
   48    51     0     0     0
SMALL
USER_CHARGES
(3aR,4S,9bR)-N-allyl-4-(4-hydroxyphenyl)-3a,4,5,9b-tetrahydro-3H-cyclopenta[c]quinoline-6-carboxamide
@<TRIPOS>ATOM
      1 C1          4.2178    8.1864   -6.3961 C.2       1 <0>        -0.1653
      2 C2          3.2510    7.5484   -5.7841 C.2       1 <0>        -0.1834
      3 C3          3.5465    6.2788   -5.0280 C.3       1 <0>         0.1483
      4 N1          3.0724    6.4107   -3.6481 N.am      1 <0>        -0.7309
      5 C4          3.2305    5.3912   -2.7809 C.2       1 <0>         0.5795
      6 O1          3.7668    4.3619   -3.1438 O.2       1 <0>        -0.5552
      7 C5          2.7534    5.5239   -1.3922 C.ar      1 <0>        -0.2432
      8 C6          2.1395    6.7055   -0.9813 C.ar      1 <0>        -0.0393
      9 C7          1.6909    6.8362    0.3146 C.ar      1 <0>        -0.1916
     10 C8          1.8453    5.7877    1.2067 C.ar      1 <0>        -0.0397
     11 C9          2.4451    4.6106    0.8165 C.ar      1 <0>        -0.1628
     12 C10         2.9217    4.4544   -0.4886 C.ar      1 <0>         0.2907
     13 N2          3.5722    3.3224   -0.9499 N.pl3     1 <0>        -0.7189
     14 C11         3.6714    2.1863   -0.0198 C.3       1 <0>         0.1783
     15 H1          4.4793    1.5144   -0.3450 H         1 <0>         0.0948
     16 C12         3.9381    2.7595    1.3565 C.3       1 <0>        -0.0900
     17 H2          4.9004    3.2772    1.2303 H         1 <0>         0.1027
     18 C13         2.6070    3.4737    1.7491 C.3       1 <0>        -0.0163
     19 H3          1.6130    3.0150    1.6417 H         1 <0>         0.1034
     20 C14         2.7423    3.6530    3.2153 C.2       1 <0>        -0.1637
     21 C15         3.5175    2.6837    3.6894 C.2       1 <0>        -0.1715
     22 C16         3.9956    1.7898    2.5422 C.3       1 <0>        -0.0887
     23 C17         2.3774    1.4139   -0.0126 C.ar      1 <0>        -0.1376
     24 C18         1.2011    2.0344   -0.3908 C.ar      1 <0>        -0.0611
     25 C19         0.0135    1.3288   -0.3842 C.ar      1 <0>        -0.1634
     26 C20         0.0018   -0.0037    0.0019 C.ar      1 <0>         0.1556
     27 C21         1.1835   -0.6241    0.3806 C.ar      1 <0>        -0.2144
     28 C22         2.3685    0.0859    0.3723 C.ar      1 <0>        -0.0722
     29 O2         -1.1653   -0.6999    0.0097 O.3       1 <0>        -0.5117
     30 H4          4.0021    9.1131   -6.9480 H         1 <0>         0.1072
     31 H5          5.2452    7.7953   -6.3580 H         1 <0>         0.1026
     32 H6          2.2236    7.9395   -5.8222 H         1 <0>         0.1185
     33 H7          3.0333    5.4353   -5.5130 H         1 <0>         0.0758
     34 H8          4.6313    6.0965   -5.0272 H         1 <0>         0.0716
     35 H9          2.5874    7.3418   -3.3198 H         1 <0>         0.4237
     36 H10         2.0156    7.5200   -1.6796 H         1 <0>         0.1185
     37 H11         1.2196    7.7538    0.6342 H         1 <0>         0.1236
     38 H12         1.4911    5.8946    2.2213 H         1 <0>         0.1224
     39 H13         4.0043    3.2467   -1.9586 H         1 <0>         0.4510
     40 H14         2.3268    4.4086    3.8982 H         1 <0>         0.1310
     41 H15         3.7234    2.6222    4.7682 H         1 <0>         0.1295
     42 H16         3.3302    0.9353    2.3496 H         1 <0>         0.0856
     43 H17         5.0268    1.4296    2.6716 H         1 <0>         0.0709
     44 H18         1.2107    3.0717   -0.6914 H         1 <0>         0.1284
     45 H19        -0.9044    1.8127   -0.6837 H         1 <0>         0.1250
     46 H20         1.1771   -1.6614    0.6813 H         1 <0>         0.1259
     47 H21         3.2887   -0.3966    0.6669 H         1 <0>         0.1242
     48 H22        -1.1735   -1.7564    0.3160 H         1 <0>         0.4324
@<TRIPOS>BOND
     1    1    2 2
     2    1   30 1
     3    1   31 1
     4    2    3 1
     5    2   32 1
     6    3    4 1
     7    3   33 1
     8    3   34 1
     9    4    5 am
    10    4   35 1
    11    5    6 2
    12    5    7 1
    13    7   12 ar
    14    7    8 ar
    15    8    9 ar
    16    8   36 1
    17    9   10 ar
    18    9   37 1
    19   10   11 ar
    20   10   38 1
    21   11   18 1
    22   11   12 ar
    23   12   13 1
    24   13   14 1
    25   13   39 1
    26   14   15 1
    27   14   16 1
    28   14   23 1
    29   16   17 1
    30   16   22 1
    31   16   18 1
    32   18   19 1
    33   18   20 1
    34   20   21 2
    35   20   40 1
    36   21   22 1
    37   21   41 1
    38   22   42 1
    39   22   43 1
    40   23   28 ar
    41   23   24 ar
    42   24   25 ar
    43   24   44 1
    44   25   26 ar
    45   25   45 1
    46   26   27 ar
    47   26   29 1
    48   27   28 ar
    49   27   46 1
    50   28   47 1
    51   29   48 1
@<TRIPOS>MOLECULE
ZINC38002440
   31    32     0     0     0
SMALL
USER_CHARGES

@<TRIPOS>ATOM
      1 C1         -0.0187    1.5258    0.0104 C.3       1 <0>        -0.1715
      2 C2          0.0021   -0.0041    0.0020 C.3       1 <0>         0.2357
      3 H1          0.5123   -0.3556   -0.8948 H         1 <0>         0.1049
      4 C3          0.7309   -0.5033    1.2229 C.2       1 <0>        -0.1510
      5 C4          2.0095   -0.9383    1.3350 C.2       1 <0>        -0.1407
      6 C5          2.4705   -1.3546    2.5701 C.2       1 <0>        -0.1096
      7 C6          1.6289   -1.3151    3.6330 C.2       1 <0>        -0.1725
      8 S1          0.1363   -0.6676    2.8982 S.3       1 <0>         0.1107
      9 Br1         1.9545   -1.8102    5.4288 Br        1 <0>         0.0452
     10 N1         -1.3723   -0.5112    0.0124 N.pl3     1 <0>        -0.7377
     11 C7         -2.0772   -0.6478   -1.1896 C.ar      1 <0>         0.1756
     12 C8         -1.4732   -0.3092   -2.3875 C.ar      1 <0>        -0.1172
     13 C9         -2.1792   -0.4473   -3.5851 C.ar      1 <0>        -0.1367
     14 C10        -3.4930   -0.9272   -3.5656 C.ar      1 <0>         0.1380
     15 C11        -4.0872   -1.2626   -2.3636 C.ar      1 <0>        -0.1502
     16 C12        -3.3840   -1.1300   -1.1791 C.ar      1 <0>         0.0866
     17 F1         -3.9685   -1.4649   -0.0080 F         1 <0>        -0.1260
     18 F2         -4.1806   -1.0623   -4.7206 F         1 <0>        -0.1092
     19 C13        -1.5414   -0.0875   -4.8664 C.2       1 <0>         0.5636
     20 O1         -2.1577   -0.2085   -5.9074 O.2       1 <0>        -0.5189
     21 N2         -0.2756    0.3751   -4.8825 N.am      1 <0>        -0.8478
     22 H2          1.0039    1.9031    0.0027 H         1 <0>         0.0762
     23 H3         -0.5459    1.8868   -0.8726 H         1 <0>         0.0729
     24 H4         -0.5289    1.8773    0.9072 H         1 <0>         0.0675
     25 H5          2.6587   -0.9597    0.4721 H         1 <0>         0.1452
     26 H6          3.4850   -1.7061    2.6868 H         1 <0>         0.1458
     27 H7         -1.7940   -0.7522    0.8520 H         1 <0>         0.4076
     28 H8         -0.4587    0.0612   -2.3967 H         1 <0>         0.1454
     29 H9         -5.1015   -1.6331   -2.3491 H         1 <0>         0.1592
     30 H10         0.2162    0.4716   -4.0520 H         1 <0>         0.3993
     31 H11         0.1437    0.6115   -5.7246 H         1 <0>         0.4096
@<TRIPOS>BOND
     1    1    2 1
     2    1   22 1
     3    1   23 1
     4    1   24 1
     5    2    3 1
     6    2    4 1
     7    2   10 1
     8    4    8 1
     9    4    5 2
    10    5    6 1
    11    5   25 1
    12    6    7 2
    13    6   26 1
    14    7    8 1
    15    7    9 1
    16   10   11 1
    17   10   27 1
    18   11   16 ar
    19   11   12 ar
    20   12   13 ar
    21   12   28 1
    22   13   14 ar
    23   13   19 1
    24   14   15 ar
    25   14   18 1
    26   15   16 ar
    27   15   29 1
    28   16   17 1
    29   19   20 2
    30   19   21 am
    31   21   30 1
    32   21   31 1
@<TRIPOS>MOLECULE
ZINC42652400
   38    40     0     0     0
SMALL
USER_CHARGES

@<TRIPOS>ATOM
      1 C1         -0.0167    1.3798    0.0096 C.ar      1 <0>        -0.0820
      2 C2          1.1680    2.0953    0.0022 C.ar      1 <0>        -0.1289
      3 C3          2.3774    1.4332   -0.0134 C.ar      1 <0>        -0.0517
      4 C4          2.4048    0.0349   -0.0211 C.ar      1 <0>        -0.1556
      5 C5          1.2034   -0.6808   -0.0130 C.ar      1 <0>        -0.0726
      6 C6          0.0021   -0.0041    0.0020 C.ar      1 <0>        -0.1265
      7 C7          3.6913   -0.6795   -0.0381 C.2       1 <0>         0.4137
      8 O1          4.7311   -0.0559   -0.0455 O.2       1 <0>        -0.4116
      9 C8          3.7163   -2.1863   -0.0464 C.3       1 <0>        -0.1541
     10 H1          2.8387   -2.5698    0.4740 H         1 <0>         0.1516
     11 C9          3.7193   -2.6930   -1.4926 C.3       1 <0>         0.2119
     12 H2          3.6631   -3.7815   -1.4974 H         1 <0>         0.1418
     13 N1          4.9553   -2.2641   -2.1492 N.pl3     1 <0>        -0.6675
     14 C10         6.0863   -2.0761   -1.4529 C.2       1 <0>         0.5976
     15 S1          7.4965   -1.5876   -2.2917 S.2       1 <0>        -0.5995
     16 N2          6.1560   -2.2553   -0.1254 N.pl3     1 <0>        -0.6758
     17 C11         4.9866   -2.6837    0.6516 C.3       1 <0>         0.3204
     18 C12         4.9602   -4.2113    0.7336 C.3       1 <0>         0.4197
     19 F1          4.8981   -4.7467   -0.5574 F         1 <0>        -0.1647
     20 F2          6.1204   -4.6642    1.3710 F         1 <0>        -0.1654
     21 F3          3.8381   -4.6198    1.4624 F         1 <0>        -0.1586
     22 O2          5.0539   -2.1345    1.9691 O.3       1 <0>        -0.5018
     23 C13         2.5332   -2.1243   -2.2280 C.2       1 <0>        -0.2130
     24 C14         1.3414   -2.7071   -2.5057 C.2       1 <0>        -0.1070
     25 C15         0.3886   -1.9864   -3.2010 C.2       1 <0>        -0.1654
     26 C16         0.6743   -0.7181   -3.5846 C.2       1 <0>        -0.1498
     27 S2          2.3304   -0.5053   -2.9527 S.3       1 <0>         0.0918
     28 H3         -0.9607    1.9041    0.0260 H         1 <0>         0.1284
     29 H4          1.1452    3.1750    0.0081 H         1 <0>         0.1310
     30 H5          3.3011    1.9929   -0.0199 H         1 <0>         0.1334
     31 H6          1.2164   -1.7607   -0.0192 H         1 <0>         0.1256
     32 H7         -0.9266   -0.5553    0.0082 H         1 <0>         0.1292
     33 H8          4.9566   -2.1130   -3.1074 H         1 <0>         0.4405
     34 H9          6.9969   -2.0977    0.3318 H         1 <0>         0.4402
     35 H10         5.8347   -2.4080    2.4698 H         1 <0>         0.4049
     36 H11         1.1393   -3.7196   -2.1887 H         1 <0>         0.1399
     37 H12        -0.5690   -2.4273   -3.4354 H         1 <0>         0.1407
     38 H13         0.0583   -0.0168   -4.1279 H         1 <0>         0.1893
@<TRIPOS>BOND
     1    1    6 ar
     2    1    2 ar
     3    1   28 1
     4    2    3 ar
     5    2   29 1
     6    3    4 ar
     7    3   30 1
     8    4    5 ar
     9    4    7 1
    10    5    6 ar
    11    5   31 1
    12    6   32 1
    13    7    8 2
    14    7    9 1
    15    9   10 1
    16    9   17 1
    17    9   11 1
    18   11   12 1
    19   11   13 1
    20   11   23 1
    21   13   14 1
    22   13   33 1
    23   14   15 2
    24   14   16 1
    25   16   17 1
    26   16   34 1
    27   17   18 1
    28   17   22 1
    29   18   19 1
    30   18   20 1
    31   18   21 1
    32   22   35 1
    33   23   27 1
    34   23   24 2
    35   24   25 1
    36   24   36 1
    37   25   26 2
    38   25   37 1
    39   26   27 1
    40   26   38 1
@<TRIPOS>MOLECULE
ZINC50694852
   31    32     0     0     0
SMALL
USER_CHARGES

@<TRIPOS>ATOM
      1 C1          0.1534    1.3730    0.6369 C.ar      1 <0>        -0.0885
      2 C2          1.1719    2.0901    0.0359 C.ar      1 <0>        -0.1179
      3 C3          2.2141    1.4293   -0.5863 C.ar      1 <0>        -0.0992
      4 C4          2.2409    0.0419   -0.6089 C.ar      1 <0>        -0.1263
      5 C5          1.2133   -0.6812   -0.0020 C.ar      1 <0>         0.1810
      6 C6          0.1715   -0.0092    0.6194 C.ar      1 <0>        -0.1172
      7 N1          1.2336   -2.0813   -0.0212 N.am      1 <0>        -0.6502
      8 C7          0.0823   -2.7735    0.0882 C.2       1 <0>         0.5705
      9 O1         -0.9814   -2.1854    0.1025 O.2       1 <0>        -0.4802
     10 C8          0.1132   -4.2498    0.1911 C.ar      1 <0>         0.1351
     11 C9         -1.0807   -4.9592    0.2983 C.ar      1 <0>        -0.0910
     12 C10        -1.0394   -6.3446    0.3942 C.ar      1 <0>        -0.0302
     13 C11         0.1924   -6.9720    0.3797 C.ar      1 <0>        -0.1949
     14 C12         1.3500   -6.2017    0.2700 C.ar      1 <0>         0.4093
     15 N2          1.2796   -4.8866    0.1749 N.ar      1 <0>        -0.5129
     16 N3          2.5921   -6.8262    0.2552 N.pl3     1 <0>        -0.8432
     17 Cl1        -2.6016   -4.1224    0.3123 Cl        1 <0>        -0.0191
     18 S1          3.5679   -0.8036   -1.4018 S.3       1 <0>        -0.1041
     19 C13         4.6277    0.5300   -2.0254 C.3       1 <0>         0.2782
     20 F1          3.9006    1.3245   -2.9183 F         1 <0>        -0.1781
     21 F2          5.0680    1.3152   -0.9546 F         1 <0>        -0.1789
     22 H1         -0.6565    1.8945    1.1253 H         1 <0>         0.1340
     23 H2          1.1526    3.1698    0.0525 H         1 <0>         0.1316
     24 H3          3.0074    1.9925   -1.0552 H         1 <0>         0.1297
     25 H4         -0.6254   -0.5656    1.0901 H         1 <0>         0.1553
     26 H5          2.0762   -2.5530   -0.1133 H         1 <0>         0.4209
     27 H6         -1.9501   -6.9190    0.4786 H         1 <0>         0.1551
     28 H7          0.2578   -8.0475    0.4529 H         1 <0>         0.1486
     29 H8          2.6500   -7.7923    0.3211 H         1 <0>         0.4135
     30 H9          3.4007   -6.2959    0.1791 H         1 <0>         0.4086
     31 H10         5.4879    0.1004   -2.5389 H         1 <0>         0.1603
@<TRIPOS>BOND
     1    1    6 ar
     2    1    2 ar
     3    1   22 1
     4    2    3 ar
     5    2   23 1
     6    3    4 ar
     7    3   24 1
     8    4    5 ar
     9    4   18 1
    10    5    6 ar
    11    5    7 1
    12    6   25 1
    13    7    8 am
    14    7   26 1
    15    8    9 2
    16    8   10 1
    17   10   15 ar
    18   10   11 ar
    19   11   12 ar
    20   11   17 1
    21   12   13 ar
    22   12   27 1
    23   13   14 ar
    24   13   28 1
    25   14   15 ar
    26   14   16 1
    27   16   29 1
    28   16   30 1
    29   18   19 1
    30   19   20 1
    31   19   21 1
    32   19   31 1
@<TRIPOS>MOLECULE
ZINC61950574
   36    37     0     0     0
SMALL
USER_CHARGES

@<TRIPOS>ATOM
      1 C1         -0.0178    1.4608    0.0101 C.3       1 <0>         0.0896
      2 N1          0.0021   -0.0041    0.0020 N.pl3     1 <0>        -0.6247
      3 C2          0.0241   -0.7433    1.2666 C.3       1 <0>         0.1628
      4 C3         -1.3889   -1.0161    1.7137 C.ar      1 <0>        -0.1042
      5 C4         -2.0474   -0.1048    2.5185 C.ar      1 <0>        -0.0908
      6 C5         -3.3434   -0.3545    2.9289 C.ar      1 <0>        -0.1133
      7 C6         -3.9819   -1.5156    2.5348 C.ar      1 <0>        -0.0884
      8 C7         -3.3238   -2.4272    1.7294 C.ar      1 <0>        -0.0897
      9 C8         -2.0284   -2.1744    1.3146 C.ar      1 <0>        -0.0769
     10 Br1        -4.1964   -4.0160    1.1905 Br        1 <0>        -0.0478
     11 C9         -0.0000   -0.6960   -1.2116 C.ar      1 <0>         0.2149
     12 C10         0.0131   -2.0861   -1.2194 C.ar      1 <0>        -0.1819
     13 C11         0.0116   -2.7745   -2.4175 C.ar      1 <0>        -0.0700
     14 C12        -0.0029   -2.0862   -3.6142 C.ar      1 <0>        -0.1513
     15 C13        -0.0166   -0.6915   -3.6168 C.ar      1 <0>        -0.0046
     16 C14        -0.0209    0.0035   -2.4086 C.ar      1 <0>        -0.1468
     17 C15        -0.0317    0.0485   -4.8992 C.2       1 <0>         0.4125
     18 N2         -0.0445    1.3491   -4.8993 N.2       1 <0>        -0.4165
     19 O1         -0.0589    2.0568   -6.1257 O.3       1 <0>        -0.4239
     20 N3         -0.0323   -0.6440   -6.0982 N.pl3     1 <0>        -0.8688
     21 H1          1.0048    1.8381    0.0023 H         1 <0>         0.0533
     22 H2         -0.5450    1.8219   -0.8730 H         1 <0>         0.0717
     23 H3         -0.5280    1.8123    0.9069 H         1 <0>         0.0670
     24 H4          0.5496   -1.6879    1.1262 H         1 <0>         0.0882
     25 H5          0.5371   -0.1514    2.0246 H         1 <0>         0.0901
     26 H6         -1.5488    0.8022    2.8268 H         1 <0>         0.1277
     27 H7         -3.8573    0.3574    3.5578 H         1 <0>         0.1329
     28 H8         -4.9943   -1.7110    2.8561 H         1 <0>         0.1329
     29 H9         -1.5154   -2.8842    0.6826 H         1 <0>         0.1337
     30 H10         0.0249   -2.6296   -0.2862 H         1 <0>         0.1255
     31 H11         0.0222   -3.8544   -2.4178 H         1 <0>         0.1295
     32 H12        -0.0033   -2.6279   -4.5486 H         1 <0>         0.1219
     33 H13        -0.0359    1.0834   -2.4049 H         1 <0>         0.1386
     34 H14        -0.0677    3.0185   -6.0248 H         1 <0>         0.4005
     35 H15        -0.0228   -1.6140   -6.0981 H         1 <0>         0.3973
     36 H16        -0.0422   -0.1592   -6.9383 H         1 <0>         0.4088
@<TRIPOS>BOND
     1    1    2 1
     2    1   21 1
     3    1   22 1
     4    1   23 1
     5    2    3 1
     6    2   11 1
     7    3    4 1
     8    3   24 1
     9    3   25 1
    10    4    9 ar
    11    4    5 ar
    12    5    6 ar
    13    5   26 1
    14    6    7 ar
    15    6   27 1
    16    7    8 ar
    17    7   28 1
    18    8    9 ar
    19    8   10 1
    20    9   29 1
    21   11   16 ar
    22   11   12 ar
    23   12   13 ar
    24   12   30 1
    25   13   14 ar
    26   13   31 1
    27   14   15 ar
    28   14   32 1
    29   15   16 ar
    30   15   17 1
    31   16   33 1
    32   17   18 2
    33   17   20 1
    34   18   19 1
    35   19   34 1
    36   20   35 1
    37   20   36 1
@<TRIPOS>MOLECULE
ZINC25563426
   37    40     0     0     0
SMALL
USER_CHARGES
(4S)-N-(4-cyclopropylthiazol-2-yl)-7-fluoro-2-oxo-3,4-dihydro-1H-quinoline-4-carboxamide
@<TRIPOS>ATOM
      1 C1         -0.0126    1.0758    0.0080 C.ar      1 <0>        -0.1765
      2 C2          1.1762    1.7822    0.0004 C.ar      1 <0>        -0.0350
      3 C3          1.1604    3.1627    0.0080 C.ar      1 <0>        -0.1311
      4 C4         -0.0503    3.8437    0.0234 C.ar      1 <0>         0.2158
      5 C5         -1.2430    3.1341    0.0304 C.ar      1 <0>        -0.1921
      6 C6         -1.2219    1.7506    0.0174 C.ar      1 <0>         0.1446
      7 F1         -2.3817    1.0577    0.0186 F         1 <0>        -0.1309
      8 N1         -0.0643    5.2418    0.0317 N.am      1 <0>        -0.6728
      9 C7          1.0321    5.9327    0.3938 C.2       1 <0>         0.5204
     10 O1          1.0078    7.1453    0.3810 O.2       1 <0>        -0.5139
     11 C8          2.2883    5.2184    0.8141 C.3       1 <0>        -0.1393
     12 C9          2.4543    3.9346    0.0003 C.3       1 <0>        -0.0495
     13 H1          3.2479    3.3088    0.4346 H         1 <0>         0.1380
     14 C10         2.8223    4.2837   -1.4188 C.2       1 <0>         0.5137
     15 O2          2.1043    3.9394   -2.3336 O.2       1 <0>        -0.4815
     16 N2          3.9492    4.9785   -1.6713 N.am      1 <0>        -0.6229
     17 C11         4.2886    5.3004   -2.9802 C.2       1 <0>         0.2905
     18 N3          5.3368    5.9659   -3.4246 N.2       1 <0>        -0.5459
     19 C12         5.5099    6.1868   -4.7131 C.2       1 <0>         0.0952
     20 C13         4.5819    5.7131   -5.5801 C.2       1 <0>        -0.2734
     21 S1          3.4450    4.9231   -4.4504 S.3       1 <0>         0.1436
     22 C14         6.7113    6.9489   -5.2100 C.3       1 <0>        -0.1806
     23 C15         7.0504    6.8409   -6.6980 C.3       1 <0>        -0.1184
     24 C16         7.9267    6.1361   -5.6606 C.3       1 <0>        -0.1142
     25 H2          0.0021   -0.0041    0.0020 H         1 <0>         0.1429
     26 H3          2.1179    1.2535   -0.0118 H         1 <0>         0.1412
     27 H4         -2.1858    3.6607    0.0422 H         1 <0>         0.1444
     28 H5         -0.9759    5.7844   -0.2591 H         1 <0>         0.4432
     29 H6          3.1565    5.8716    0.6422 H         1 <0>         0.1171
     30 H7          2.2260    4.9650    1.8827 H         1 <0>         0.1290
     31 H8          4.6003    5.2908   -0.8416 H         1 <0>         0.4526
     32 H9          4.5429    5.7883   -6.6568 H         1 <0>         0.1938
     33 H10         6.5382    7.7739   -4.5033 H         1 <0>         0.1345
     34 H11         6.2081    6.3784   -7.2334 H         1 <0>         0.1030
     35 H12         7.2366    7.8455   -7.1055 H         1 <0>         0.1085
     36 H13         8.8373    6.5581   -5.2105 H         1 <0>         0.1068
     37 H14         7.8088    5.0910   -5.3384 H         1 <0>         0.0992
@<TRIPOS>BOND
     1    1    6 ar
     2    1    2 ar
     3    1   25 1
     4    2    3 ar
     5    2   26 1
     6    3   12 1
     7    3    4 ar
     8    4    5 ar
     9    4    8 1
    10    5    6 ar
    11    5   27 1
    12    6    7 1
    13    8    9 am
    14    8   28 1
    15    9   10 2
    16    9   11 1
    17   11   12 1
    18   11   29 1
    19   11   30 1
    20   12   13 1
    21   12   14 1
    22   14   15 2
    23   14   16 am
    24   16   17 1
    25   16   31 1
    26   17   21 1
    27   17   18 2
    28   18   19 1
    29   19   20 2
    30   19   22 1
    31   20   21 1
    32   20   32 1
    33   22   24 1
    34   22   23 1
    35   22   33 1
    36   23   24 1
    37   23   34 1
    38   23   35 1
    39   24   36 1
    40   24   37 1
@<TRIPOS>MOLECULE
ZINC37491980
   32    33     0     0     0
SMALL
USER_CHARGES

@<TRIPOS>ATOM
      1 C1         -0.0167    1.3780    0.0096 C.ar      1 <0>        -0.0818
      2 C2          1.1691    2.0888    0.0021 C.ar      1 <0>        -0.1356
      3 C3          2.3799    1.4210   -0.0131 C.ar      1 <0>        -0.1402
      4 C4          2.4074    0.0363   -0.0208 C.ar      1 <0>         0.0289
      5 C5          1.2130   -0.6808   -0.0132 C.ar      1 <0>         0.2183
      6 C6          0.0021   -0.0041    0.0020 C.ar      1 <0>        -0.1744
      7 N1          1.2346   -2.0803   -0.0214 N.pl3     1 <0>        -0.7161
      8 C7         -0.0225   -2.8324   -0.0135 C.3       1 <0>         0.1535
      9 H1         -0.7625   -2.2915    0.5765 H         1 <0>         0.1165
     10 C8         -0.5394   -2.9855   -1.4713 C.3       1 <0>        -0.5910
     11 S1         -1.6738   -4.4252   -1.2458 S.o2      1 <0>         2.3741
     12 O1         -2.9100   -3.9675   -0.7151 O.2       1 <0>        -0.9240
     13 O2         -1.6655   -5.2161   -2.4263 O.2       1 <0>        -0.9273
     14 C9         -0.7334   -5.2970    0.0754 C.3       1 <0>        -0.6188
     15 C10         0.2147   -4.2070    0.6102 C.3       1 <0>         0.1049
     16 H2          0.0814   -4.1288    1.6891 H         1 <0>         0.0911
     17 O3          1.5625   -4.6025    0.3476 O.3       1 <0>        -0.5565
     18 O4          3.5975   -0.6219   -0.0361 O.3       1 <0>        -0.3135
     19 C11         4.7814    0.1784   -0.0436 C.3       1 <0>         0.6063
     20 F1          4.8098    0.9798    1.1028 F         1 <0>        -0.1655
     21 F2          5.9063   -0.6531   -0.0593 F         1 <0>        -0.1319
     22 F3          4.7871    0.9921   -1.1816 F         1 <0>        -0.1653
     23 H3         -0.9599    1.9039    0.0260 H         1 <0>         0.1325
     24 H4          1.1497    3.1687    0.0078 H         1 <0>         0.1314
     25 H5          3.3044    1.9793   -0.0192 H         1 <0>         0.1337
     26 H6         -0.9257   -0.5569    0.0083 H         1 <0>         0.1361
     27 H7          2.0820   -2.5522   -0.0324 H         1 <0>         0.4209
     28 H8         -1.0831   -2.0982   -1.7953 H         1 <0>         0.1475
     29 H9          0.2730   -3.2235   -2.1579 H         1 <0>         0.1489
     30 H10        -1.4050   -5.6434    0.8609 H         1 <0>         0.1496
     31 H11        -0.1657   -6.1289   -0.3415 H         1 <0>         0.1534
     32 H12         1.7964   -5.4676    0.7109 H         1 <0>         0.3942
@<TRIPOS>BOND
     1    1    6 ar
     2    1    2 ar
     3    1   23 1
     4    2    3 ar
     5    2   24 1
     6    3    4 ar
     7    3   25 1
     8    4    5 ar
     9    4   18 1
    10    5    6 ar
    11    5    7 1
    12    6   26 1
    13    7    8 1
    14    7   27 1
    15    8    9 1
    16    8   15 1
    17    8   10 1
    18   10   11 1
    19   10   28 1
    20   10   29 1
    21   11   12 2
    22   11   13 2
    23   11   14 1
    24   14   15 1
    25   14   30 1
    26   14   31 1
    27   15   16 1
    28   15   17 1
    29   17   32 1
    30   18   19 1
    31   19   20 1
    32   19   21 1
    33   19   22 1
@<TRIPOS>MOLECULE
ZINC49283924
   33    34     0     0     0
SMALL
USER_CHARGES

@<TRIPOS>ATOM
      1 C1         -0.0178    1.4648    0.0101 C.3       1 <0>         0.0242
      2 N1          0.0021   -0.0041    0.0020 N.3       1 <0>        -0.5378
      3 C2         -1.3623   -0.5493    0.0198 C.3       1 <0>         0.0533
      4 C3         -1.3483   -2.0327   -0.3622 C.3       1 <0>        -0.0332
      5 C4         -0.3260   -2.7383    0.5188 C.2       1 <0>         0.1006
      6 C5          0.6158   -2.0082    1.1731 C.2       1 <0>        -0.2751
      7 S1          1.5335   -3.2497    2.0372 S.3       1 <0>         0.2509
      8 C6          0.6553   -4.5850    1.5006 C.2       1 <0>         0.2642
      9 N2         -0.2592   -4.0489    0.7212 N.2       1 <0>        -0.5578
     10 N3          0.8500   -5.9268    1.8071 N.am      1 <0>        -0.6225
     11 C7          1.8498   -6.2908    2.6344 C.2       1 <0>         0.7101
     12 O1          2.5814   -5.4455    3.1126 O.2       1 <0>        -0.5525
     13 N4          2.0387   -7.5917    2.9316 N.am      1 <0>        -0.7276
     14 C8          3.1254   -7.9874    3.8309 C.3       1 <0>         0.1831
     15 C9          3.1194   -9.4851    3.9975 C.2       1 <0>        -0.1604
     16 C10         4.1284  -10.1978    3.5577 C.2       1 <0>        -0.1018
     17 Br1         1.6567  -10.3368    4.8408 Br        1 <0>        -0.0531
     18 C11         0.7901   -0.5289    1.1354 C.3       1 <0>         0.1476
     19 H1          1.0047    1.8421    0.0024 H         1 <0>         0.0727
     20 H2         -0.5450    1.8259   -0.8730 H         1 <0>         0.0742
     21 H3         -0.5280    1.8163    0.9069 H         1 <0>         0.0292
     22 H4         -1.7821   -0.4383    1.0196 H         1 <0>         0.0407
     23 H5         -1.9797    0.0003   -0.6908 H         1 <0>         0.0868
     24 H6         -2.3357   -2.4644   -0.1985 H         1 <0>         0.0865
     25 H7         -1.0679   -2.1403   -1.4100 H         1 <0>         0.0897
     26 H8          0.2664   -6.6011    1.4256 H         1 <0>         0.4208
     27 H9          1.4550   -8.2660    2.5501 H         1 <0>         0.4051
     28 H10         4.0795   -7.6726    3.4082 H         1 <0>         0.0930
     29 H11         2.9842   -7.5132    4.8021 H         1 <0>         0.0901
     30 H12         4.9638   -9.7114    3.0761 H         1 <0>         0.1278
     31 H13         4.1241  -11.2711    3.6771 H         1 <0>         0.1211
     32 H14         1.8434   -0.2856    0.9956 H         1 <0>         0.0941
     33 H15         0.4311   -0.0919    2.0672 H         1 <0>         0.0557
@<TRIPOS>BOND
     1    1    2 1
     2    1   19 1
     3    1   20 1
     4    1   21 1
     5    2   18 1
     6    2    3 1
     7    3    4 1
     8    3   22 1
     9    3   23 1
    10    4    5 1
    11    4   24 1
    12    4   25 1
    13    5    9 1
    14    5    6 2
    15    6    7 1
    16    6   18 1
    17    7    8 1
    18    8    9 2
    19    8   10 1
    20   10   11 am
    21   10   26 1
    22   11   12 2
    23   11   13 am
    24   13   14 1
    25   13   27 1
    26   14   15 1
    27   14   28 1
    28   14   29 1
    29   15   16 2
    30   15   17 1
    31   16   30 1
    32   16   31 1
    33   18   32 1
    34   18   33 1
@<TRIPOS>MOLECULE
ZINC45827513
   32    34     0     0     0
SMALL
USER_CHARGES

@<TRIPOS>ATOM
      1 C1         -0.6716    1.4250   -1.0414 C.2       1 <0>        -0.2803
      2 C2         -1.1918    2.0545    0.0359 C.2       1 <0>         0.1320
      3 N1         -1.7167    1.3485    1.0661 N.pl3     1 <0>        -0.5830
      4 C3         -1.7403   -0.0094    1.0563 C.2       1 <0>         0.1130
      5 C4         -1.2343   -0.7008    0.0052 C.2       1 <0>        -0.0147
      6 C5         -0.6784    0.0130   -1.0883 C.2       1 <0>         0.3896
      7 O1         -0.2193   -0.5817   -2.0530 O.2       1 <0>        -0.4990
      8 N2         -1.2596   -2.1041   -0.0010 N.am      1 <0>        -0.6681
      9 C6         -0.1097   -2.7983   -0.1120 C.2       1 <0>         0.5233
     10 O2          0.9535   -2.2143   -0.1153 O.2       1 <0>        -0.4919
     11 C7         -0.1447   -4.3001   -0.2320 C.3       1 <0>        -0.0673
     12 C8          1.2624   -4.8283   -0.3418 C.2       1 <0>         0.0792
     13 C9          1.7018   -5.7768    0.5244 C.2       1 <0>        -0.2042
     14 S1          3.3755   -6.0099   -0.0613 S.3       1 <0>         0.0006
     15 C10         3.3079   -4.8202   -1.3943 C.2       1 <0>         0.1843
     16 N3          2.0640   -4.3751   -1.2795 N.2       1 <0>        -0.4702
     17 C11         4.3547   -4.4392   -2.3655 C.2       1 <0>        -0.0620
     18 C12         5.6131   -5.0364   -2.3294 C.2       1 <0>        -0.1426
     19 C13         6.5435   -4.6611   -3.2344 C.2       1 <0>        -0.1690
     20 S2          5.6709   -3.4316   -4.1893 S.3       1 <0>         0.0728
     21 C14         4.1098   -3.4947   -3.3263 C.2       1 <0>        -0.1040
     22 H1         -0.2588    1.9958   -1.8601 H         1 <0>         0.1499
     23 H2         -1.1887    3.1337    0.0759 H         1 <0>         0.1677
     24 H3         -2.1656   -0.5433    1.8933 H         1 <0>         0.1649
     25 H4         -2.0837    1.8235    1.8280 H         1 <0>         0.4238
     26 H5         -2.1046   -2.5743    0.0745 H         1 <0>         0.4046
     27 H6         -0.6241   -4.7240    0.6503 H         1 <0>         0.1096
     28 H7         -0.7085   -4.5804   -1.1218 H         1 <0>         0.1120
     29 H8          1.1841   -6.2574    1.3413 H         1 <0>         0.1989
     30 H9          5.8416   -5.7883   -1.5886 H         1 <0>         0.1381
     31 H10         7.5573   -5.0148   -3.3503 H         1 <0>         0.1934
     32 H11         3.2066   -2.9325   -3.5126 H         1 <0>         0.1986
@<TRIPOS>BOND
     1    1    6 1
     2    1   22 1
     3    1    2 2
     4    2   23 1
     5    2    3 1
     6    3   25 1
     7    3    4 1
     8    4   24 1
     9    4    5 2
    10    5    6 1
    11    5    8 1
    12    6    7 2
    13    8    9 am
    14    8   26 1
    15    9   10 2
    16    9   11 1
    17   11   12 1
    18   11   27 1
    19   11   28 1
    20   12   16 1
    21   12   13 2
    22   13   14 1
    23   13   29 1
    24   14   15 1
    25   15   16 2
    26   15   17 1
    27   17   21 2
    28   17   18 1
    29   18   19 2
    30   18   30 1
    31   19   20 1
    32   19   31 1
    33   20   21 1
    34   21   32 1
@<TRIPOS>MOLECULE
ZINC67353451
   39    39     0     0     0
SMALL
USER_CHARGES

@<TRIPOS>ATOM
      1 C1         -0.3375    1.8300   -0.1037 C.3       1 <0>        -0.1692
      2 C2         -0.1260    0.3183    0.0006 C.3       1 <0>         0.1611
      3 H1          0.4131    0.0894    0.9198 H         1 <0>         0.0932
      4 C3          0.6864   -0.1671   -1.2016 C.3       1 <0>        -0.1031
      5 C4          2.0442    0.5378   -1.2177 C.3       1 <0>        -0.1489
      6 C5          0.8978   -1.6789   -1.0973 C.3       1 <0>        -0.1488
      7 N1         -1.4262   -0.3567    0.0160 N.am      1 <0>        -0.7285
      8 C6         -2.0970   -0.5007    1.1761 C.2       1 <0>         0.7041
      9 O1         -1.6230   -0.0705    2.2099 O.2       1 <0>        -0.5589
     10 N2         -3.2931   -1.1217    1.1903 N.am      1 <0>        -0.6843
     11 C7         -3.9379   -1.3704    2.4071 C.ar      1 <0>         0.2844
     12 C8         -5.3244   -1.3466    2.4766 C.ar      1 <0>        -0.2184
     13 C9         -5.9600   -1.5927    3.6806 C.ar      1 <0>         0.2492
     14 C10        -5.2144   -1.8626    4.8157 C.ar      1 <0>        -0.7685
     15 C11        -3.8315   -1.8868    4.7485 C.ar      1 <0>         0.2487
     16 C12        -3.1923   -1.6469    3.5452 C.ar      1 <0>        -0.1921
     17 F1         -3.1062   -2.1499    5.8575 F         1 <0>        -0.0983
     18 S1         -6.0263   -2.1751    6.3480 S.o2      1 <0>         2.5017
     19 O2         -5.0814   -1.8023    7.3417 O.2       1 <0>        -0.9199
     20 O3         -7.2718   -1.4992    6.2428 O.2       1 <0>        -0.9212
     21 C13        -6.2899   -3.9696    6.3784 C.3       1 <0>        -0.6474
     22 F2         -7.3091   -1.5692    3.7488 F         1 <0>        -0.0993
     23 H2          0.6299    2.3323   -0.1152 H         1 <0>         0.0731
     24 H3         -0.8766    2.0590   -1.0229 H         1 <0>         0.0575
     25 H4         -0.9162    2.1759    0.7528 H         1 <0>         0.0622
     26 H5          0.1472    0.0618   -2.1208 H         1 <0>         0.0764
     27 H6          2.5834    0.3089   -0.2985 H         1 <0>         0.0595
     28 H7          2.6230    0.1919   -2.0741 H         1 <0>         0.0616
     29 H8          1.8936    1.6148   -1.2920 H         1 <0>         0.0627
     30 H9         -0.0696   -2.1811   -1.0858 H         1 <0>         0.0532
     31 H10         1.4766   -2.0247   -1.9538 H         1 <0>         0.0593
     32 H11         1.4369   -1.9078   -0.1781 H         1 <0>         0.0576
     33 H12        -1.8043   -0.6999   -0.8087 H         1 <0>         0.3993
     34 H13        -3.7069   -1.3962    0.3571 H         1 <0>         0.4165
     35 H14        -5.9062   -1.1358    1.5915 H         1 <0>         0.1566
     36 H15        -2.1138   -1.6702    3.4922 H         1 <0>         0.1654
     37 H16        -5.3281   -4.4791    6.3205 H         1 <0>         0.1328
     38 H17        -6.7930   -4.2473    7.3046 H         1 <0>         0.1382
     39 H18        -6.9070   -4.2606    5.5283 H         1 <0>         0.1326
@<TRIPOS>BOND
     1    1    2 1
     2    1   23 1
     3    1   24 1
     4    1   25 1
     5    2    3 1
     6    2    4 1
     7    2    7 1
     8    4    5 1
     9    4    6 1
    10    4   26 1
    11    5   27 1
    12    5   28 1
    13    5   29 1
    14    6   30 1
    15    6   31 1
    16    6   32 1
    17    7    8 am
    18    7   33 1
    19    8    9 2
    20    8   10 am
    21   10   11 1
    22   10   34 1
    23   11   16 ar
    24   11   12 ar
    25   12   13 ar
    26   12   35 1
    27   13   14 ar
    28   13   22 1
    29   14   15 ar
    30   14   18 1
    31   15   16 ar
    32   15   17 1
    33   16   36 1
    34   18   19 2
    35   18   20 2
    36   18   21 1
    37   21   37 1
    38   21   38 1
    39   21   39 1
@<TRIPOS>MOLECULE
ZINC00678692
   50    53     0     0     0
SMALL
USER_CHARGES
N-[(2-methyl-1,3-dioxo-isoindolin-5-yl)thiocarbamoyl]-2,2-diphenyl-acetamide
@<TRIPOS>ATOM
      1 C1         -4.6744    7.2087    1.1986 C.3       1 <0>         0.0789
      2 N1         -3.7725    6.0993    1.5181 N.am      1 <0>        -0.5796
      3 C2         -3.6942    5.5050    2.7222 C.2       1 <0>         0.5759
      4 O1         -4.3503    5.7991    3.7014 O.2       1 <0>        -0.4617
      5 C3         -2.6783    4.4371    2.6562 C.ar      1 <0>        -0.1332
      6 C4         -2.1824    3.5158    3.5685 C.ar      1 <0>        -0.0362
      7 C5         -1.2056    2.6187    3.1779 C.ar      1 <0>        -0.0962
      8 C6         -0.7087    2.6409    1.8800 C.ar      1 <0>         0.1469
      9 C7         -1.1993    3.5619    0.9546 C.ar      1 <0>         0.0015
     10 C8         -2.1804    4.4588    1.3361 C.ar      1 <0>        -0.1341
     11 C9         -2.9134    5.5417    0.6459 C.2       1 <0>         0.5767
     12 O2         -2.7645    5.8724   -0.5131 O.2       1 <0>        -0.4534
     13 N2          0.2799    1.7352    1.5001 N.pl3     1 <0>        -0.6242
     14 C10         1.3504    2.1604    0.8003 C.2       1 <0>         0.5056
     15 S1          1.4469    3.7919    0.2906 S.2       1 <0>        -0.4653
     16 N3          2.3449    1.3012    0.5017 N.am      1 <0>        -0.6351
     17 C11         3.4153    1.7263   -0.1982 C.2       1 <0>         0.4941
     18 O3          3.4837    2.8818   -0.5591 O.2       1 <0>        -0.3848
     19 C12         4.5273    0.7656   -0.5321 C.3       1 <0>        -0.0161
     20 C13         5.5958    1.4859   -1.3135 C.ar      1 <0>        -0.0772
     21 C14         6.1595    2.6429   -0.8092 C.ar      1 <0>        -0.0800
     22 C15         7.1430    3.3009   -1.5238 C.ar      1 <0>        -0.1197
     23 C16         7.5556    2.8075   -2.7474 C.ar      1 <0>        -0.1108
     24 C17         6.9878    1.6536   -3.2543 C.ar      1 <0>        -0.1223
     25 C18         6.0081    0.9926   -2.5373 C.ar      1 <0>        -0.1050
     26 C19         5.1188    0.2194    0.7419 C.ar      1 <0>        -0.0903
     27 C20         5.5075    1.0827    1.7491 C.ar      1 <0>        -0.1089
     28 C21         6.0456    0.5815    2.9197 C.ar      1 <0>        -0.1132
     29 C22         6.2042   -0.7825    3.0789 C.ar      1 <0>        -0.1119
     30 C23         5.8207   -1.6454    2.0694 C.ar      1 <0>        -0.1157
     31 C24         5.2778   -1.1445    0.9010 C.ar      1 <0>        -0.1073
     32 H1         -5.6226    6.8128    0.8347 H         1 <0>         0.0762
     33 H2         -4.8493    7.8043    2.0946 H         1 <0>         0.0911
     34 H3         -4.2225    7.8343    0.4289 H         1 <0>         0.0914
     35 H4         -2.5617    3.4970    4.5795 H         1 <0>         0.1504
     36 H5         -0.8232    1.8992    3.8868 H         1 <0>         0.1463
     37 H6         -0.8147    3.5748   -0.0546 H         1 <0>         0.1626
     38 H7          0.1957    0.7981    1.7360 H         1 <0>         0.4136
     39 H8          2.2902    0.3768    0.7905 H         1 <0>         0.4129
     40 H9          4.1311   -0.0553   -1.1298 H         1 <0>         0.1176
     41 H10         5.8343    3.0307    0.1449 H         1 <0>         0.1207
     42 H11         7.5864    4.2027   -1.1279 H         1 <0>         0.1235
     43 H12         8.3214    3.3236   -3.3074 H         1 <0>         0.1230
     44 H13         7.3100    1.2682   -4.2104 H         1 <0>         0.1241
     45 H14         5.5645    0.0911   -2.9334 H         1 <0>         0.1219
     46 H15         5.3874    2.1486    1.6230 H         1 <0>         0.1230
     47 H16         6.3455    1.2557    3.7082 H         1 <0>         0.1257
     48 H17         6.6280   -1.1739    3.9919 H         1 <0>         0.1253
     49 H18         5.9449   -2.7111    2.1936 H         1 <0>         0.1269
     50 H19         4.9782   -1.8187    0.1122 H         1 <0>         0.1268
@<TRIPOS>BOND
     1    1    2 1
     2    1   32 1
     3    1   33 1
     4    1   34 1
     5    2   11 am
     6    2    3 am
     7    3    4 2
     8    3    5 1
     9    5   10 ar
    10    5    6 ar
    11    6    7 ar
    12    6   35 1
    13    7    8 ar
    14    7   36 1
    15    8    9 ar
    16    8   13 1
    17    9   10 ar
    18    9   37 1
    19   10   11 1
    20   11   12 2
    21   13   14 1
    22   13   38 1
    23   14   15 2
    24   14   16 1
    25   16   17 am
    26   16   39 1
    27   17   18 2
    28   17   19 1
    29   19   20 1
    30   19   26 1
    31   19   40 1
    32   20   25 ar
    33   20   21 ar
    34   21   22 ar
    35   21   41 1
    36   22   23 ar
    37   22   42 1
    38   23   24 ar
    39   23   43 1
    40   24   25 ar
    41   24   44 1
    42   25   45 1
    43   26   31 ar
    44   26   27 ar
    45   27   28 ar
    46   27   46 1
    47   28   29 ar
    48   28   47 1
    49   29   30 ar
    50   29   48 1
    51   30   31 ar
    52   30   49 1
    53   31   50 1
@<TRIPOS>MOLECULE
ZINC13454084
   48    50     0     0     0
SMALL
USER_CHARGES
3-[[1-[(4-chlorophenyl)methyl]-4-piperidyl]sulfamoyl]benzoic acid
@<TRIPOS>ATOM
      1 C1         -3.1336   -3.2245    3.5131 C.ar      1 <0>        -0.1524
      2 C2         -3.3574   -2.1801    4.3864 C.ar      1 <0>        -0.0173
      3 C3         -2.3104   -1.3209    4.7249 C.ar      1 <0>        -0.1303
      4 C4         -1.0415   -1.5282    4.1798 C.ar      1 <0>         0.0029
      5 C5         -0.8328   -2.5733    3.3043 C.ar      1 <0>        -0.6974
      6 C6         -1.8750   -3.4215    2.9734 C.ar      1 <0>        -0.0267
      7 S1          0.7661   -2.8334    2.6112 S.o2      1 <0>         2.6928
      8 O1          0.8338   -4.2061    2.2500 O.2       1 <0>        -0.9531
      9 O2          1.6971   -2.2330    3.5011 O.2       1 <0>        -0.9509
     10 N1          0.8347   -1.9689    1.2004 N.pl3     1 <0>        -1.1132
     11 C7          0.7612   -0.5061    1.2334 C.3       1 <0>         0.1407
     12 C8          0.0021   -0.0041    0.0020 C.3       1 <0>        -0.1533
     13 C9         -0.0187    1.5261    0.0104 C.3       1 <0>        -0.0007
     14 C10         2.0929    1.6055    1.1967 C.3       1 <0>        -0.0092
     15 C11         2.1767    0.0777    1.2237 C.3       1 <0>        -0.1668
     16 C12         1.3776    3.4986   -0.1318 C.3       1 <0>         0.0473
     17 C13         2.7764    4.0063    0.1063 C.ar      1 <0>        -0.1560
     18 C14         3.1777    4.3528    1.3830 C.ar      1 <0>        -0.0796
     19 C15         4.4622    4.8131    1.6029 C.ar      1 <0>        -0.1061
     20 C16         5.3430    4.9377    0.5432 C.ar      1 <0>        -0.0083
     21 C17         4.9390    4.5961   -0.7352 C.ar      1 <0>        -0.1089
     22 C18         3.6560    4.1306   -0.9529 C.ar      1 <0>        -0.0815
     23 Cl1         6.9545    5.5219    0.8176 Cl        1 <0>        -0.0429
     24 C19        -2.5427   -0.2002    5.6589 C.2       1 <0>         0.4874
     25 O3         -1.6298    0.5457    5.9515 O.co2     1 <0>        -0.6281
     26 H1         -3.9426   -3.8899    3.2504 H         1 <0>         0.1316
     27 H2         -4.3402   -2.0279    4.8075 H         1 <0>         0.1425
     28 H3         -0.2263   -0.8694    4.4404 H         1 <0>         0.1418
     29 H4         -1.7052   -4.2408    2.2906 H         1 <0>         0.1341
     30 H5          0.9236   -2.4311    0.3522 H         1 <0>         0.4208
     31 H6          0.2410   -0.1878    2.1368 H         1 <0>         0.1072
     32 H7         -1.0200   -0.3820    0.0255 H         1 <0>         0.1225
     33 H8          0.5002   -0.3563   -0.9012 H         1 <0>         0.0954
     34 H9         -0.5461    1.8871   -0.8725 H         1 <0>         0.1350
     35 H10        -0.5291    1.8775    0.9071 H         1 <0>         0.1391
     36 H11         1.5725    1.9565    2.0879 H         1 <0>         0.1386
     37 H12         3.0991    2.0241    1.1754 H         1 <0>         0.1345
     38 H13         2.7082   -0.2418    2.1201 H         1 <0>         0.1284
     39 H14         2.7091   -0.2732    0.3397 H         1 <0>         0.0934
     40 H15         1.0559    3.7772   -1.1353 H         1 <0>         0.1365
     41 H16         0.7017    3.9384    0.6016 H         1 <0>         0.1418
     42 H17         2.4887    4.2596    2.2094 H         1 <0>         0.1453
     43 H18         4.7770    5.0796    2.6010 H         1 <0>         0.1478
     44 H19         5.6262    4.6929   -1.5627 H         1 <0>         0.1448
     45 H20         3.3406    3.8636   -1.9508 H         1 <0>         0.1400
     46 N2          1.3725    2.0250   -0.0243 N.4       1 <0>        -0.3932
     47 H21         1.8477    1.6293   -0.8439 H         1 <0>         0.4245
     48 O4         -3.7670   -0.0056    6.1861 O.co2     1 <0>        -0.7409
@<TRIPOS>BOND
     1    1    6 ar
     2    1    2 ar
     3    1   26 1
     4    2    3 ar
     5    2   27 1
     6    3    4 ar
     7    3   24 1
     8    4    5 ar
     9    4   28 1
    10    5    6 ar
    11    5    7 1
    12    6   29 1
    13    7    8 2
    14    7    9 2
    15    7   10 1
    16   10   11 1
    17   10   30 1
    18   11   15 1
    19   11   12 1
    20   11   31 1
    21   12   13 1
    22   12   32 1
    23   12   33 1
    24   13   34 1
    25   13   35 1
    26   13   46 1
    27   14   15 1
    28   14   36 1
    29   14   37 1
    30   14   46 1
    31   15   38 1
    32   15   39 1
    33   16   17 1
    34   16   40 1
    35   16   41 1
    36   16   46 1
    37   17   22 ar
    38   17   18 ar
    39   18   19 ar
    40   18   42 1
    41   19   20 ar
    42   19   43 1
    43   20   21 ar
    44   20   23 1
    45   21   22 ar
    46   21   44 1
    47   22   45 1
    48   24   25 2
    49   24   48 1
    50   46   47 1
@<TRIPOS>MOLECULE
ZINC33061304
   44    46     0     0     0
SMALL
USER_CHARGES
5-[3-(4-chloroanilino)-3-oxo-propyl]-N-(p-tolyl)-1,3,4-thiadiazole-2-carboxamide
@<TRIPOS>ATOM
      1 C1          1.8383   -8.5905   -0.0094 C.3       1 <0>        -0.1179
      2 C2          1.5590   -7.1099    0.0216 C.ar      1 <0>        -0.0946
      3 C3          2.3576   -6.2730    0.7793 C.ar      1 <0>        -0.1024
      4 C4          2.1047   -4.9156    0.8096 C.ar      1 <0>        -0.1157
      5 C5          1.0469   -4.3913    0.0778 C.ar      1 <0>         0.1354
      6 C6          0.2436   -5.2354   -0.6781 C.ar      1 <0>        -0.1321
      7 C7          0.5051   -6.5912   -0.7082 C.ar      1 <0>        -0.1027
      8 N1          0.7878   -3.0176    0.1065 N.am      1 <0>        -0.6578
      9 C8          1.8087   -2.1407    0.1787 C.2       1 <0>         0.6186
     10 O1          2.9493   -2.5441    0.3031 O.2       1 <0>        -0.4998
     11 C9          1.5431   -0.6939    0.1071 C.2       1 <0>        -0.0227
     12 N2          0.3909   -0.0427   -0.0267 N.2       1 <0>        -0.2207
     13 N3          0.3744    1.2189   -0.0687 N.2       1 <0>        -0.2836
     14 C10         1.4803    1.9377    0.0166 C.2       1 <0>         0.0517
     15 S1          2.6784    0.6870    0.1741 S.3       1 <0>         0.1465
     16 C11         1.6554    3.4342   -0.0146 C.3       1 <0>        -0.0187
     17 C12         1.5745    3.9869    1.4098 C.3       1 <0>        -0.1381
     18 C13         1.7496    5.4834    1.3786 C.2       1 <0>         0.5206
     19 O2          1.9222    6.0519    0.3212 O.2       1 <0>        -0.5166
     20 N4          1.7145    6.1900    2.5257 N.am      1 <0>        -0.6858
     21 C14         1.7702    7.5882    2.4884 C.ar      1 <0>         0.1552
     22 C15         2.4005    8.2866    3.5098 C.ar      1 <0>        -0.1343
     23 C16         2.4582    9.6659    3.4681 C.ar      1 <0>        -0.0896
     24 C17         1.8794   10.3524    2.4152 C.ar      1 <0>        -0.0512
     25 C18         1.2460    9.6590    1.3988 C.ar      1 <0>        -0.0888
     26 C19         1.1901    8.2794    1.4330 C.ar      1 <0>        -0.1118
     27 Cl1         1.9484   12.0864    2.3690 Cl        1 <0>        -0.0681
     28 H1          2.7076   -8.8130    0.6269 H         1 <0>         0.0662
     29 H2          2.0509   -8.9019   -1.0427 H         1 <0>         0.0706
     30 H3          0.9603   -9.1372    0.3651 H         1 <0>         0.0708
     31 H4          3.1796   -6.6813    1.3484 H         1 <0>         0.1272
     32 H5          2.7289   -4.2624    1.4013 H         1 <0>         0.1382
     33 H6         -0.5822   -4.8315   -1.2450 H         1 <0>         0.1288
     34 H7         -0.1166   -7.2475   -1.2990 H         1 <0>         0.1283
     35 H8         -0.2493   -2.6526    0.0702 H         1 <0>         0.4490
     36 H9          2.6362    3.6796   -0.4480 H         1 <0>         0.1121
     37 H10         0.8606    3.8837   -0.6280 H         1 <0>         0.1216
     38 H11         0.5937    3.7414    1.8432 H         1 <0>         0.1125
     39 H12         2.3693    3.5374    2.0232 H         1 <0>         0.1058
     40 H13         1.6421    5.6680    3.4912 H         1 <0>         0.4394
     41 H14         2.8489    7.7515    4.3338 H         1 <0>         0.1360
     42 H15         2.9522   10.2094    4.2599 H         1 <0>         0.1380
     43 H16         0.7953   10.1970    0.5780 H         1 <0>         0.1375
     44 H17         0.6960    7.7387    0.6393 H         1 <0>         0.1432
@<TRIPOS>BOND
     1    1    2 1
     2    1   28 1
     3    1   29 1
     4    1   30 1
     5    2    7 ar
     6    2    3 ar
     7    3    4 ar
     8    3   31 1
     9    4    5 ar
    10    4   32 1
    11    5    6 ar
    12    5    8 1
    13    6    7 ar
    14    6   33 1
    15    7   34 1
    16    8    9 am
    17    8   35 1
    18    9   10 2
    19    9   11 1
    20   11   15 1
    21   11   12 2
    22   12   13 1
    23   13   14 2
    24   14   15 1
    25   14   16 1
    26   16   17 1
    27   16   36 1
    28   16   37 1
    29   17   18 1
    30   17   38 1
    31   17   39 1
    32   18   19 2
    33   18   20 am
    34   20   21 1
    35   20   40 1
    36   21   26 ar
    37   21   22 ar
    38   22   23 ar
    39   22   41 1
    40   23   24 ar
    41   23   42 1
    42   24   25 ar
    43   24   27 1
    44   25   26 ar
    45   25   43 1
    46   26   44 1
@<TRIPOS>MOLECULE
ZINC46081166
   43    45     0     0     0
SMALL
USER_CHARGES

@<TRIPOS>ATOM
      1 C1         -0.0167    1.3782    0.0096 C.ar      1 <0>        -0.0501
      2 C2          1.1690    2.0869    0.0021 C.ar      1 <0>        -0.1819
      3 C3          2.3816    1.4097   -0.0131 C.ar      1 <0>         0.2287
      4 C4          2.3981    0.0207   -0.0206 C.ar      1 <0>        -0.1961
      5 C5          1.2085   -0.6827   -0.0131 C.ar      1 <0>         0.0186
      6 C6          0.0021   -0.0041    0.0020 C.ar      1 <0>        -0.1647
      7 Cl1         1.2272   -2.4185   -0.0231 Cl        1 <0>        -0.0649
      8 N1          3.5819    2.1238   -0.0212 N.pl3     1 <0>        -0.5390
      9 N2          4.8042    1.4393   -0.0365 N.am      1 <0>        -0.5219
     10 C7          5.9624    2.1284   -0.0443 C.2       1 <0>         0.5124
     11 O1          5.9466    3.3411   -0.0380 O.2       1 <0>        -0.5206
     12 C8          7.2772    1.3920   -0.0607 C.3       1 <0>        -0.0534
     13 C9          8.4097    2.3862   -0.0667 C.2       1 <0>        -0.0986
     14 C10         9.0651    2.9399    0.9827 C.2       1 <0>        -0.1715
     15 C11        10.0853    3.8395    0.7367 C.2       1 <0>        -0.0034
     16 C12        10.4003    4.1414   -0.5467 C.2       1 <0>        -0.7635
     17 S1          9.2415    3.1344   -1.4580 S.3       1 <0>         0.1875
     18 S2         11.6369    5.2381   -1.1572 S.o2      1 <0>         2.7412
     19 O2         11.2228    5.6337   -2.4576 O.2       1 <0>        -0.9428
     20 O3         11.8949    6.1762   -0.1215 O.2       1 <0>        -0.9417
     21 N3         13.0235    4.3535   -1.3506 N.pl3     1 <0>        -1.0094
     22 C13        14.0602    4.1509   -0.3281 C.3       1 <0>         0.1166
     23 C14        15.1689    3.2864   -0.9646 C.3       1 <0>        -0.1291
     24 C15        14.9643    3.5228   -2.4844 C.3       1 <0>        -0.1291
     25 C16        13.4196    3.6336   -2.5746 C.3       1 <0>         0.1111
     26 H1         -0.9595    1.9047    0.0259 H         1 <0>         0.1381
     27 H2          1.1531    3.1668    0.0077 H         1 <0>         0.1330
     28 H3          3.3393   -0.5088   -0.0328 H         1 <0>         0.1260
     29 H4         -0.9264   -0.5556    0.0079 H         1 <0>         0.1343
     30 H5          3.5693    3.0937   -0.0162 H         1 <0>         0.4381
     31 H6          4.8169    0.4694   -0.0414 H         1 <0>         0.4240
     32 H7          7.3518    0.7617    0.8254 H         1 <0>         0.1302
     33 H8          7.3345    0.7706   -0.9544 H         1 <0>         0.1224
     34 H9          8.7939    2.6823    1.9958 H         1 <0>         0.1446
     35 H10        10.6232    4.2953    1.5548 H         1 <0>         0.1488
     36 H11        14.4707    5.1127   -0.0206 H         1 <0>         0.0765
     37 H12        13.6358    3.6344    0.5329 H         1 <0>         0.0670
     38 H13        16.1543    3.6300   -0.6501 H         1 <0>         0.0842
     39 H14        15.0284    2.2345   -0.7157 H         1 <0>         0.0770
     40 H15        15.4450    4.4474   -2.8041 H         1 <0>         0.0795
     41 H16        15.3280    2.6745   -3.0642 H         1 <0>         0.0857
     42 H17        12.9664    2.6425   -2.5953 H         1 <0>         0.0696
     43 H18        13.1315    4.2019   -3.4590 H         1 <0>         0.0866
@<TRIPOS>BOND
     1    1    6 ar
     2    1    2 ar
     3    1   26 1
     4    2    3 ar
     5    2   27 1
     6    3    4 ar
     7    3    8 1
     8    4    5 ar
     9    4   28 1
    10    5    6 ar
    11    5    7 1
    12    6   29 1
    13    8    9 1
    14    8   30 1
    15    9   10 am
    16    9   31 1
    17   10   11 2
    18   10   12 1
    19   12   13 1
    20   12   32 1
    21   12   33 1
    22   13   17 1
    23   13   14 2
    24   14   15 1
    25   14   34 1
    26   15   16 2
    27   15   35 1
    28   16   17 1
    29   16   18 1
    30   18   19 2
    31   18   20 2
    32   18   21 1
    33   21   25 1
    34   21   22 1
    35   22   23 1
    36   22   36 1
    37   22   37 1
    38   23   24 1
    39   23   38 1
    40   23   39 1
    41   24   25 1
    42   24   40 1
    43   24   41 1
    44   25   42 1
    45   25   43 1
@<TRIPOS>MOLECULE
ZINC66969198
   42    44     0     0     0
SMALL
USER_CHARGES

@<TRIPOS>ATOM
      1 C1         -0.0187    1.5258    0.0104 C.3       1 <0>        -0.1459
      2 C2          0.0021   -0.0041    0.0020 C.3       1 <0>         0.2155
      3 C3          0.7991   -0.5201   -1.1796 C.2       1 <0>         0.5312
      4 O1          0.5638   -0.3420   -2.3555 O.2       1 <0>        -0.4450
      5 N1          1.8241   -1.2174   -0.6510 N.am      1 <0>        -0.5665
      6 C4          1.7859   -1.2137    0.6863 C.2       1 <0>         0.7122
      7 O2          2.6045   -1.7756    1.3872 O.2       1 <0>        -0.5260
      8 N2          0.7398   -0.5188    1.1686 N.am      1 <0>        -0.7127
      9 C5          2.8527   -1.8963   -1.4430 C.3       1 <0>         0.0881
     10 C6          4.0154   -0.9356   -1.6999 C.3       1 <0>         0.0946
     11 H1          3.6384   -0.0253   -2.1660 H         1 <0>         0.1158
     12 C7          5.0314   -1.6017   -2.6300 C.3       1 <0>         0.0289
     13 O3          6.0578   -0.6649   -2.9633 O.3       1 <0>        -0.2978
     14 C8          7.0466   -1.1004   -3.7884 C.ar      1 <0>         0.1199
     15 C9          7.0255   -2.4005   -4.2712 C.ar      1 <0>        -0.1824
     16 C10         8.0310   -2.8418   -5.1096 C.ar      1 <0>        -0.1120
     17 C11         9.0597   -1.9870   -5.4674 C.ar      1 <0>         0.0607
     18 C12         9.0823   -0.6891   -4.9858 C.ar      1 <0>        -0.1116
     19 C13         8.0745   -0.2433   -4.1526 C.ar      1 <0>        -0.1205
     20 F1         10.0426   -2.4199   -6.2870 F         1 <0>        -0.1396
     21 O4          4.6468   -0.6096   -0.4601 O.3       1 <0>        -0.5399
     22 C14        -1.4017   -0.5517   -0.0214 C.2       1 <0>        -0.1774
     23 C15        -2.2183   -0.8505    1.0178 C.2       1 <0>        -0.1139
     24 C16        -3.4818   -1.3479    0.7567 C.2       1 <0>        -0.1439
     25 C17        -3.8659   -1.5217   -0.5327 C.2       1 <0>        -0.1175
     26 S1         -2.4227   -0.9674   -1.4256 S.3       1 <0>         0.1503
     27 Cl1        -5.3722   -2.1210   -1.1535 Cl        1 <0>         0.0255
     28 H2          1.0039    1.9031    0.0027 H         1 <0>         0.0807
     29 H3         -0.5459    1.8868   -0.8726 H         1 <0>         0.0897
     30 H4         -0.5289    1.8773    0.9072 H         1 <0>         0.0877
     31 H5          0.5152   -0.3829    2.1024 H         1 <0>         0.4432
     32 H6          3.2151   -2.7677   -0.8976 H         1 <0>         0.1093
     33 H7          2.4273   -2.2146   -2.3948 H         1 <0>         0.1113
     34 H8          5.4738   -2.4622   -2.1282 H         1 <0>         0.0736
     35 H9          4.5298   -1.9302   -3.5403 H         1 <0>         0.0781
     36 H10         6.2235   -3.0677   -3.9917 H         1 <0>         0.1371
     37 H11         8.0148   -3.8540   -5.4857 H         1 <0>         0.1392
     38 H12         9.8855   -0.0235   -5.2654 H         1 <0>         0.1441
     39 H13         8.0897    0.7707   -3.7810 H         1 <0>         0.1429
     40 H14         5.0067   -1.3737    0.0108 H         1 <0>         0.3813
     41 H15        -1.8871   -0.7027    2.0351 H         1 <0>         0.1438
     42 H16        -4.1524   -1.5944    1.5666 H         1 <0>         0.1479
@<TRIPOS>BOND
     1    1    2 1
     2    1   28 1
     3    1   29 1
     4    1   30 1
     5    2    8 1
     6    2    3 1
     7    2   22 1
     8    3    4 2
     9    3    5 am
    10    5    6 am
    11    5    9 1
    12    6    7 2
    13    6    8 am
    14    8   31 1
    15    9   10 1
    16    9   32 1
    17    9   33 1
    18   10   11 1
    19   10   12 1
    20   10   21 1
    21   12   13 1
    22   12   34 1
    23   12   35 1
    24   13   14 1
    25   14   19 ar
    26   14   15 ar
    27   15   16 ar
    28   15   36 1
    29   16   17 ar
    30   16   37 1
    31   17   18 ar
    32   17   20 1
    33   18   19 ar
    34   18   38 1
    35   19   39 1
    36   21   40 1
    37   22   26 1
    38   22   23 2
    39   23   24 1
    40   23   41 1
    41   24   25 2
    42   24   42 1
    43   25   26 1
    44   25   27 1
@<TRIPOS>MOLECULE
ZINC25651362
   39    41     0     0     0
SMALL
USER_CHARGES
6-methyl-N-[3-(thiophene-2-carbonylamino)phenyl]pyridine-3-carboxamide
@<TRIPOS>ATOM
      1 C1          0.2197    7.5212   -0.5602 C.3       1 <0>        -0.1132
      2 C2         -0.1371    6.0575   -0.5954 C.ar      1 <0>         0.1562
      3 C3         -1.3043    5.6565   -1.2209 C.ar      1 <0>        -0.1779
      4 C4         -1.6288    4.3119   -1.2513 C.ar      1 <0>        -0.0094
      5 C5         -0.7538    3.4041   -0.6419 C.ar      1 <0>        -0.1984
      6 C6          0.4006    3.8900   -0.0270 C.ar      1 <0>         0.1441
      7 N1          0.6688    5.1794   -0.0298 N.ar      1 <0>        -0.4875
      8 C7         -1.0512    1.9563   -0.6448 C.2       1 <0>         0.5694
      9 O1         -2.0625    1.5445   -1.1793 O.2       1 <0>        -0.5188
     10 N2         -0.2012    1.0926   -0.0549 N.am      1 <0>        -0.6793
     11 C8         -0.4315   -0.2841   -0.1412 C.ar      1 <0>         0.1647
     12 C9          0.6400   -1.1644   -0.2314 C.ar      1 <0>        -0.1559
     13 C10         0.4134   -2.5244   -0.3162 C.ar      1 <0>        -0.0816
     14 C11        -0.8787   -3.0141   -0.3126 C.ar      1 <0>        -0.1345
     15 C12        -1.9544   -2.1395   -0.2232 C.ar      1 <0>         0.1668
     16 C13        -1.7299   -0.7730   -0.1311 C.ar      1 <0>        -0.1459
     17 N3         -3.2617   -2.6359   -0.2192 N.am      1 <0>        -0.6785
     18 C14        -3.5346   -3.8105    0.3828 C.2       1 <0>         0.6089
     19 O2         -2.6313   -4.4796    0.8493 O.2       1 <0>        -0.5090
     20 C15        -4.9191   -4.2819    0.4756 C.2       1 <0>        -0.2432
     21 C16        -5.4093   -5.4462    1.0466 C.2       1 <0>        -0.0653
     22 C17        -6.7666   -5.6440    0.9954 C.2       1 <0>        -0.1784
     23 C18        -7.5515   -4.7084    0.3994 C.2       1 <0>        -0.1759
     24 S1         -6.4138   -3.5035   -0.1099 S.3       1 <0>         0.1415
     25 H1         -0.5598    8.1011   -1.0760 H         1 <0>         0.0793
     26 H2          1.1853    7.6754   -1.0641 H         1 <0>         0.0851
     27 H3          0.2941    7.8554    0.4852 H         1 <0>         0.0851
     28 H4         -1.9551    6.3855   -1.6808 H         1 <0>         0.1456
     29 H5         -2.5338    3.9713   -1.7324 H         1 <0>         0.1495
     30 H6          1.0826    3.2024    0.4510 H         1 <0>         0.1587
     31 H7          0.6737    1.4705    0.4944 H         1 <0>         0.4345
     32 H8          1.6511   -0.7847   -0.2348 H         1 <0>         0.1283
     33 H9          1.2479   -3.2064   -0.3858 H         1 <0>         0.1320
     34 H10        -1.0525   -4.0779   -0.3798 H         1 <0>         0.1405
     35 H11        -2.5643   -0.0913   -0.0563 H         1 <0>         0.1423
     36 H12        -4.0672   -2.0677   -0.7074 H         1 <0>         0.4347
     37 H13        -4.7520   -6.1659    1.5117 H         1 <0>         0.1493
     38 H14        -7.2058   -6.5327    1.4242 H         1 <0>         0.1434
     39 H15        -8.6245   -4.7120    0.2772 H         1 <0>         0.1929
@<TRIPOS>BOND
     1    1    2 1
     2    1   25 1
     3    1   26 1
     4    1   27 1
     5    2    7 ar
     6    2    3 ar
     7    3    4 ar
     8    3   28 1
     9    4    5 ar
    10    4   29 1
    11    5    6 ar
    12    5    8 1
    13    6    7 ar
    14    6   30 1
    15    8    9 2
    16    8   10 am
    17   10   11 1
    18   10   31 1
    19   11   16 ar
    20   11   12 ar
    21   12   13 ar
    22   12   32 1
    23   13   14 ar
    24   13   33 1
    25   14   15 ar
    26   14   34 1
    27   15   16 ar
    28   15   17 1
    29   16   35 1
    30   17   18 am
    31   17   36 1
    32   18   19 2
    33   18   20 1
    34   20   24 1
    35   20   21 2
    36   21   22 1
    37   21   37 1
    38   22   23 2
    39   22   38 1
    40   23   24 1
    41   23   39 1
@<TRIPOS>MOLECULE
ZINC43272096
   31    32     0     0     0
SMALL
USER_CHARGES

@<TRIPOS>ATOM
      1 C1         -0.0383    1.8065    0.0042 C.3       1 <0>        -0.6664
      2 S1         -0.0022   -0.0071   -0.0007 S.o2      1 <0>         2.6052
      3 O1          0.8322   -0.4829    1.0466 O.2       1 <0>        -0.9456
      4 O2         -1.3154   -0.5223   -0.1714 O.2       1 <0>        -0.9406
      5 N1          0.7955   -0.4131   -1.3940 N.pl3     1 <0>        -1.0298
      6 C2          2.1360   -0.0724   -1.5532 C.2       1 <0>         0.2293
      7 C3          3.0290   -0.0752   -0.4988 C.2       1 <0>        -0.2398
      8 C4          4.3177    0.2674   -0.7277 C.2       1 <0>        -0.1737
      9 S2          4.3752    0.6062   -2.3717 S.3       1 <0>         0.2328
     10 C5          2.6715    0.2897   -2.7895 C.2       1 <0>        -0.3145
     11 C6          2.0293    0.3831   -4.0467 C.2       1 <0>         0.6138
     12 O3          0.8425    0.1271   -4.1449 O.2       1 <0>        -0.5145
     13 N2          2.7308    0.7553   -5.1357 N.am      1 <0>        -0.6697
     14 C7          2.1208    0.7543   -6.3946 C.ar      1 <0>         0.1494
     15 C8          0.7814    1.0997   -6.5190 C.ar      1 <0>        -0.1073
     16 C9          0.1816    1.0978   -7.7630 C.ar      1 <0>        -0.0907
     17 C10         0.9141    0.7521   -8.8851 C.ar      1 <0>        -0.0483
     18 C11         2.2488    0.4071   -8.7640 C.ar      1 <0>        -0.0903
     19 C12         2.8551    0.4134   -7.5231 C.ar      1 <0>        -0.1309
     20 Cl1         0.1571    0.7508  -10.4473 Cl        1 <0>        -0.0677
     21 H1          0.9819    2.1903   -0.0028 H         1 <0>         0.1296
     22 H2         -0.5661    2.1618   -0.8808 H         1 <0>         0.1342
     23 H3         -0.5522    2.1573    0.8991 H         1 <0>         0.1370
     24 H4          0.3288   -0.8883   -2.0991 H         1 <0>         0.4399
     25 H5          2.7027   -0.3468    0.4942 H         1 <0>         0.1826
     26 H6          5.1270    0.3133   -0.0140 H         1 <0>         0.2014
     27 H7          3.6586    1.0239   -5.0465 H         1 <0>         0.4115
     28 H8          0.2092    1.3692   -5.6435 H         1 <0>         0.1493
     29 H9         -0.8600    1.3660   -7.8602 H         1 <0>         0.1382
     30 H10         2.8179    0.1371   -9.6412 H         1 <0>         0.1390
     31 H11         3.8981    0.1490   -7.4298 H         1 <0>         0.1367
@<TRIPOS>BOND
     1    1    2 1
     2    1   21 1
     3    1   22 1
     4    1   23 1
     5    2    3 2
     6    2    4 2
     7    2    5 1
     8    5    6 1
     9    5   24 1
    10    6   10 2
    11    6    7 1
    12    7    8 2
    13    7   25 1
    14    8    9 1
    15    8   26 1
    16    9   10 1
    17   10   11 1
    18   11   12 2
    19   11   13 am
    20   13   14 1
    21   13   27 1
    22   14   19 ar
    23   14   15 ar
    24   15   16 ar
    25   15   28 1
    26   16   17 ar
    27   16   29 1
    28   17   18 ar
    29   17   20 1
    30   18   19 ar
    31   18   30 1
    32   19   31 1
@<TRIPOS>MOLECULE
ZINC50467046
   37    38     0     0     0
SMALL
USER_CHARGES

@<TRIPOS>ATOM
      1 C1          0.2115    1.4806    0.2796 C.3       1 <0>        -0.1635
      2 C2         -0.0012   -0.0062   -0.0123 C.3       1 <0>         0.1777
      3 H1          0.4243   -0.5998    0.7968 H         1 <0>         0.1179
      4 C3         -1.4770   -0.2906   -0.1216 C.ar      1 <0>        -0.0896
      5 C4         -2.3704    0.7502   -0.2941 C.ar      1 <0>        -0.0868
      6 C5         -3.7240    0.4902   -0.3944 C.ar      1 <0>        -0.1063
      7 C6         -4.1859   -0.8123   -0.3227 C.ar      1 <0>        -0.0201
      8 C7         -3.2925   -1.8540   -0.1505 C.ar      1 <0>        -0.1045
      9 C8         -1.9371   -1.5935   -0.0550 C.ar      1 <0>        -0.0133
     10 Cl1        -0.8144   -2.9009    0.1550 Cl        1 <0>        -0.0387
     11 Cl2        -5.8863   -1.1387   -0.4481 Cl        1 <0>        -0.0534
     12 N1          0.6581   -0.3555   -1.2731 N.am      1 <0>        -0.6090
     13 C9          0.1811    0.2199   -2.5331 C.3       1 <0>         0.0704
     14 C10         1.7035   -1.2061   -1.2738 C.2       1 <0>         0.5032
     15 O1          2.0985   -1.6824   -0.2307 O.2       1 <0>        -0.4923
     16 C11         2.3817   -1.5654   -2.5707 C.3       1 <0>         0.1264
     17 N2          3.4797   -2.4983   -2.3055 N.pl3     1 <0>        -0.3669
     18 C12         3.6488   -3.7076   -2.8804 C.2       1 <0>         0.0768
     19 C13         4.7763   -4.2547   -2.3718 C.2       1 <0>        -0.3030
     20 C14         5.3186   -3.3449   -1.4498 C.2       1 <0>         0.3326
     21 N3          4.5408   -2.2885   -1.4156 N.2       1 <0>        -0.3250
     22 N4          6.4874   -3.5301   -0.7020 N.pl3     1 <0>        -0.8474
     23 H2          1.2790    1.6863    0.3587 H         1 <0>         0.0688
     24 H3         -0.2140    2.0742   -0.5295 H         1 <0>         0.0645
     25 H4         -0.2790    1.7404    1.2177 H         1 <0>         0.0737
     26 H5         -2.0105    1.7669   -0.3502 H         1 <0>         0.1483
     27 H6         -4.4216    1.3037   -0.5285 H         1 <0>         0.1427
     28 H7         -3.6525   -2.8707   -0.0945 H         1 <0>         0.1451
     29 H8          0.7708    1.1041   -2.7751 H         1 <0>         0.0637
     30 H9          0.2850   -0.5156   -3.3307 H         1 <0>         0.0703
     31 H10        -0.8675    0.4994   -2.4309 H         1 <0>         0.0773
     32 H11         1.6605   -2.0340   -3.2403 H         1 <0>         0.1217
     33 H12         2.7766   -0.6625   -3.0365 H         1 <0>         0.1109
     34 H13         2.9989   -4.1585   -3.6157 H         1 <0>         0.1723
     35 H14         5.1867   -5.2199   -2.6292 H         1 <0>         0.1455
     36 H15         7.0006   -4.3475   -0.7987 H         1 <0>         0.4083
     37 H16         6.7840   -2.8411   -0.0870 H         1 <0>         0.4018
@<TRIPOS>BOND
     1    1    2 1
     2    1   23 1
     3    1   24 1
     4    1   25 1
     5    2    3 1
     6    2    4 1
     7    2   12 1
     8    4    9 ar
     9    4    5 ar
    10    5    6 ar
    11    5   26 1
    12    6    7 ar
    13    6   27 1
    14    7    8 ar
    15    7   11 1
    16    8    9 ar
    17    8   28 1
    18    9   10 1
    19   12   13 1
    20   12   14 am
    21   13   29 1
    22   13   30 1
    23   13   31 1
    24   14   15 2
    25   14   16 1
    26   16   17 1
    27   16   32 1
    28   16   33 1
    29   17   21 1
    30   17   18 1
    31   18   19 2
    32   18   34 1
    33   19   20 1
    34   19   35 1
    35   20   21 2
    36   20   22 1
    37   22   36 1
    38   22   37 1
@<TRIPOS>MOLECULE
ZINC58171286
   35    37     0     0     0
SMALL
USER_CHARGES

@<TRIPOS>ATOM
      1 C1         -0.0008    1.5316    0.0124 C.3       1 <0>        -0.1646
      2 C2          0.0054    0.0016    0.0021 C.3       1 <0>         0.1306
      3 H1         -1.0207   -0.3659    0.0087 H         1 <0>         0.1247
      4 C3          0.7287   -0.5060    1.2228 C.2       1 <0>         0.5164
      5 O1          1.7167   -1.1985    1.0981 O.2       1 <0>        -0.5105
      6 N1          0.2778   -0.1906    2.4531 N.am      1 <0>        -0.6667
      7 C4          0.8921   -0.7395    3.5864 C.ar      1 <0>         0.1579
      8 C5          2.2695   -0.9528    3.5812 C.ar      1 <0>        -0.0944
      9 C6          2.8776   -1.4938    4.6970 C.ar      1 <0>        -0.0444
     10 C7          2.1168   -1.8138    5.7956 C.ar      1 <0>        -0.1765
     11 C8          0.7189   -1.6113    5.8360 C.ar      1 <0>         0.0960
     12 C9          0.1241   -1.0525    4.6857 C.ar      1 <0>        -0.0878
     13 N2          0.1561   -1.9897    7.0023 N.2       1 <0>        -0.5135
     14 C10         0.8552   -2.4898    7.9792 C.2       1 <0>         0.0837
     15 S1          2.4347   -2.5046    7.3985 S.3       1 <0>         0.0905
     16 N3          0.6873   -0.4758   -1.2034 N.am      1 <0>        -0.7115
     17 C11         0.0052   -0.5995   -2.3592 C.2       1 <0>         0.6139
     18 O2         -1.1772   -0.3145   -2.4015 O.2       1 <0>        -0.5233
     19 C12         0.6876   -1.0772   -3.5654 C.2       1 <0>        -0.2638
     20 C13         0.1774   -1.2682   -4.8405 C.2       1 <0>        -0.0625
     21 C14         1.0698   -1.7316   -5.7773 C.2       1 <0>        -0.1863
     22 C15         2.3529   -1.9653   -5.4063 C.2       1 <0>        -0.2191
     23 S2          2.3915   -1.5565   -3.7772 S.3       1 <0>         0.2142
     24 H2          1.0253    1.8992    0.0058 H         1 <0>         0.0690
     25 H3         -0.5240    1.8988   -0.8705 H         1 <0>         0.0820
     26 H4         -0.5082    1.8868    0.9094 H         1 <0>         0.0755
     27 H5         -0.4720    0.4165    2.5539 H         1 <0>         0.4171
     28 H6          2.8566   -0.6975    2.7114 H         1 <0>         0.1554
     29 H7          3.9439   -1.6645    4.7059 H         1 <0>         0.1410
     30 H8         -0.9407   -0.8730    4.6653 H         1 <0>         0.1391
     31 H9          0.5017   -2.8203    8.9447 H         1 <0>         0.2248
     32 H10         1.6298   -0.7029   -1.1697 H         1 <0>         0.4106
     33 H11        -0.8556   -1.0660   -5.0820 H         1 <0>         0.1510
     34 H12         0.7534   -1.9075   -6.7948 H         1 <0>         0.1405
     35 H13         3.1654   -2.3268   -6.0191 H         1 <0>         0.1908
@<TRIPOS>BOND
     1    1    2 1
     2    1   24 1
     3    1   25 1
     4    1   26 1
     5    2    3 1
     6    2    4 1
     7    2   16 1
     8    4    5 2
     9    4    6 am
    10    6    7 1
    11    6   27 1
    12    7   12 ar
    13    7    8 ar
    14    8    9 ar
    15    8   28 1
    16    9   10 ar
    17    9   29 1
    18   10   15 1
    19   10   11 ar
    20   11   12 ar
    21   11   13 1
    22   12   30 1
    23   13   14 2
    24   14   15 1
    25   14   31 1
    26   16   17 am
    27   16   32 1
    28   17   18 2
    29   17   19 1
    30   19   23 1
    31   19   20 2
    32   20   21 1
    33   20   33 1
    34   21   22 2
    35   21   34 1
    36   22   23 1
    37   22   35 1
@<TRIPOS>MOLECULE
ZINC66722700
   44    46     0     0     0
SMALL
USER_CHARGES

@<TRIPOS>ATOM
      1 C1         -0.0052    1.5001    0.0012 C.3       1 <0>        -0.1432
      2 C2          0.0131   -0.0297   -0.0163 C.3       1 <0>        -0.0786
      3 C3          0.7890   -0.5348   -1.2502 C.3       1 <0>        -0.1205
      4 C4          2.2207   -0.7934   -0.7189 C.3       1 <0>        -0.1243
      5 C5          1.9615   -1.3722    0.6942 C.3       1 <0>        -0.1257
      6 C6          0.7586   -0.5621    1.2200 C.3       1 <0>        -0.1132
      7 C7         -1.4181   -0.5703   -0.0384 C.3       1 <0>         0.1281
      8 N1         -2.1110   -0.0695   -1.2281 N.am      1 <0>        -0.6924
      9 C8         -3.3925   -0.4176   -1.4581 C.2       1 <0>         0.5098
     10 O1         -3.9725   -1.1460   -0.6797 O.2       1 <0>        -0.5149
     11 C9         -4.0988    0.0929   -2.6708 C.2       1 <0>         0.5083
     12 O2         -3.5187    0.8214   -3.4493 O.2       1 <0>        -0.4936
     13 N2         -5.3803   -0.2552   -2.9008 N.am      1 <0>        -0.6399
     14 C10        -6.0686    0.2949   -3.9795 C.ar      1 <0>         0.1513
     15 C11        -5.4080    0.5735   -5.1586 C.ar      1 <0>        -0.1156
     16 C12        -6.0892    1.1228   -6.2395 C.ar      1 <0>        -0.0809
     17 C13        -7.4206    1.4004   -6.1666 C.ar      1 <0>        -0.1017
     18 C14        -8.1319    1.1324   -4.9847 C.ar      1 <0>         0.1414
     19 C15        -7.4491    0.5675   -3.8795 C.ar      1 <0>        -0.1110
     20 C16        -8.1645    0.2961   -2.7009 C.ar      1 <0>        -0.0615
     21 C17        -9.4999    0.5862   -2.6753 C.ar      1 <0>        -0.1701
     22 C18       -10.1129    1.1353   -3.7987 C.ar      1 <0>         0.1353
     23 N3         -9.4394    1.3980   -4.8926 N.ar      1 <0>        -0.4700
     24 H1          1.0179    1.8758   -0.0080 H         1 <0>         0.0639
     25 H2         -0.5351    1.8672   -0.8778 H         1 <0>         0.0552
     26 H3         -0.5116    1.8471    0.9019 H         1 <0>         0.0597
     27 H4          0.3488   -1.4585   -1.6258 H         1 <0>         0.0694
     28 H5          0.8032    0.2267   -2.0300 H         1 <0>         0.0690
     29 H6          2.7396   -1.5196   -1.3446 H         1 <0>         0.0675
     30 H7          2.7841    0.1377   -0.6577 H         1 <0>         0.0681
     31 H8          1.7107   -2.4311    0.6326 H         1 <0>         0.0665
     32 H9          2.8315   -1.2218    1.3335 H         1 <0>         0.0673
     33 H10         1.1074    0.2694    1.8325 H         1 <0>         0.0719
     34 H11         0.1011   -1.2063    1.8038 H         1 <0>         0.0689
     35 H12        -1.3946   -1.6598   -0.0634 H         1 <0>         0.0777
     36 H13        -1.9456   -0.2387    0.8559 H         1 <0>         0.0765
     37 H14        -1.6474    0.5127   -1.8502 H         1 <0>         0.4142
     38 H15        -5.8233   -0.8890   -2.3151 H         1 <0>         0.4233
     39 H16        -4.3520    0.3633   -5.2427 H         1 <0>         0.1462
     40 H17        -5.5528    1.3334   -7.1529 H         1 <0>         0.1377
     41 H18        -7.9301    1.8272   -7.0178 H         1 <0>         0.1397
     42 H19        -7.6728   -0.1304   -1.8391 H         1 <0>         0.1356
     43 H20       -10.0790    0.3895   -1.7851 H         1 <0>         0.1415
     44 H21       -11.1688    1.3596   -3.7647 H         1 <0>         0.1631
@<TRIPOS>BOND
     1    1    2 1
     2    1   24 1
     3    1   25 1
     4    1   26 1
     5    2    6 1
     6    2    3 1
     7    2    7 1
     8    3    4 1
     9    3   27 1
    10    3   28 1
    11    4    5 1
    12    4   29 1
    13    4   30 1
    14    5    6 1
    15    5   31 1
    16    5   32 1
    17    6   33 1
    18    6   34 1
    19    7    8 1
    20    7   35 1
    21    7   36 1
    22    8    9 am
    23    8   37 1
    24    9   10 2
    25    9   11 1
    26   11   12 2
    27   11   13 am
    28   13   14 1
    29   13   38 1
    30   14   19 ar
    31   14   15 ar
    32   15   16 ar
    33   15   39 1
    34   16   17 ar
    35   16   40 1
    36   17   18 ar
    37   17   41 1
    38   18   23 ar
    39   18   19 ar
    40   19   20 ar
    41   20   21 ar
    42   20   42 1
    43   21   22 ar
    44   21   43 1
    45   22   23 ar
    46   22   44 1
@<TRIPOS>MOLECULE
ZINC37748993
   31    32     0     0     0
SMALL
USER_CHARGES

@<TRIPOS>ATOM
      1 C1         -0.0187    1.5258    0.0104 C.3       1 <0>        -0.1714
      2 C2          0.0021   -0.0041    0.0020 C.3       1 <0>         0.1858
      3 H1          0.5123   -0.3556   -0.8948 H         1 <0>         0.1057
      4 C3         -1.4117   -0.5257    0.0127 C.ar      1 <0>        -0.0595
      5 C4         -2.1206   -0.5695    1.2002 C.ar      1 <0>        -0.1111
      6 C5         -3.4151   -1.0458    1.2172 C.ar      1 <0>        -0.0655
      7 C6         -4.0100   -1.4838    0.0323 C.ar      1 <0>        -0.0256
      8 C7         -3.2890   -1.4363   -1.1625 C.ar      1 <0>        -0.0651
      9 C8         -1.9969   -0.9532   -1.1659 C.ar      1 <0>        -0.1085
     10 C9         -5.3533   -1.9799    0.0426 C.1       1 <0>         0.2487
     11 N1         -6.4189   -2.3735    0.0507 N.1       1 <0>        -0.4097
     12 N2          0.7106   -0.4894    1.1889 N.pl3     1 <0>        -1.1129
     13 S1          2.3218   -0.8609    1.0971 S.o2      1 <0>         2.7264
     14 O1          2.7188   -1.2710    2.3985 O.2       1 <0>        -0.9547
     15 O2          2.4829   -1.6905   -0.0453 O.2       1 <0>        -0.9586
     16 C10         3.1835    0.6378    0.7566 C.2       1 <0>        -0.8180
     17 C11         3.4645    1.1334   -0.4707 C.2       1 <0>         0.1840
     18 N3          4.1330    2.2935   -0.3027 N.pl3     1 <0>        -0.4589
     19 H2          4.4621    2.8701   -1.0100 H         1 <0>         0.4463
     20 N4          4.2673    2.5184    1.0734 N.2       1 <0>        -0.2851
     21 C12         3.6926    1.5286    1.7073 C.2       1 <0>         0.1382
     22 H3          1.0039    1.9031    0.0027 H         1 <0>         0.0641
     23 H4         -0.5459    1.8868   -0.8726 H         1 <0>         0.0739
     24 H5         -0.5289    1.8773    0.9072 H         1 <0>         0.0698
     25 H6         -1.6592   -0.2304    2.1159 H         1 <0>         0.1347
     26 H7         -3.9670   -1.0802    2.1449 H         1 <0>         0.1361
     27 H8         -3.7432   -1.7736   -2.0825 H         1 <0>         0.1367
     28 H9         -1.4395   -0.9121   -2.0901 H         1 <0>         0.1388
     29 H10         0.2360   -0.5931    2.0285 H         1 <0>         0.4197
     30 H11         3.2009    0.6814   -1.4156 H         1 <0>         0.1963
     31 H12         3.6257    1.4169    2.7794 H         1 <0>         0.1998
@<TRIPOS>BOND
     1    1    2 1
     2    1   22 1
     3    1   23 1
     4    1   24 1
     5    2    3 1
     6    2    4 1
     7    2   12 1
     8    4    9 ar
     9    4    5 ar
    10    5    6 ar
    11    5   25 1
    12    6    7 ar
    13    6   26 1
    14    7    8 ar
    15    7   10 1
    16    8    9 ar
    17    8   27 1
    18    9   28 1
    19   10   11 3
    20   12   13 1
    21   12   29 1
    22   13   14 2
    23   13   15 2
    24   13   16 1
    25   16   21 1
    26   16   17 2
    27   17   18 1
    28   17   30 1
    29   18   19 1
    30   18   20 1
    31   20   21 2
    32   21   31 1
@<TRIPOS>MOLECULE
ZINC48490940
   36    37     0     0     0
SMALL
USER_CHARGES

@<TRIPOS>ATOM
      1 C1         -7.7080   -0.6342    1.6913 C.2       1 <0>        -0.1546
      2 C2         -7.1081   -0.5284    0.5315 C.2       1 <0>        -0.1858
      3 C3         -5.7282   -1.1038    0.3417 C.3       1 <0>         0.1447
      4 N1         -5.7358   -2.0254   -0.7971 N.am      1 <0>        -0.6941
      5 C4         -4.6036   -2.6623   -1.1561 C.2       1 <0>         0.5104
      6 O1         -3.5778   -2.4724   -0.5360 O.2       1 <0>        -0.5134
      7 C5         -4.6114   -3.6018   -2.3168 C.2       1 <0>         0.5091
      8 O2         -5.6374   -3.7918   -2.9371 O.2       1 <0>        -0.4959
      9 N2         -3.4792   -4.2387   -2.6758 N.am      1 <0>        -0.6415
     10 C6         -3.5096   -5.2004   -3.6908 C.ar      1 <0>         0.1482
     11 C7         -2.4127   -5.3608   -4.5280 C.ar      1 <0>        -0.1286
     12 C8         -2.4392   -6.3102   -5.5326 C.ar      1 <0>        -0.0945
     13 C9         -3.5626   -7.1023   -5.7020 C.ar      1 <0>         0.0562
     14 C10        -4.6601   -6.9447   -4.8670 C.ar      1 <0>         0.0874
     15 C11        -4.6350   -5.9987   -3.8574 C.ar      1 <0>        -0.1175
     16 O3         -5.7603   -7.7327   -5.0438 O.3       1 <0>        -0.3173
     17 C12        -6.5066   -7.5047   -6.2409 C.3       1 <0>         0.0604
     18 C13        -5.9061   -8.2757   -7.4060 C.3       1 <0>        -0.1885
     19 C14        -4.5091   -7.7916   -7.7616 C.3       1 <0>         0.0591
     20 O4         -3.5974   -8.0436   -6.6905 O.3       1 <0>        -0.3174
     21 H1         -8.6968   -0.2219    1.8273 H         1 <0>         0.1073
     22 H2         -7.2154   -1.1376    2.5101 H         1 <0>         0.1022
     23 H3         -7.6024   -0.0289   -0.2886 H         1 <0>         0.1192
     24 H4         -5.0210   -0.2965    0.1510 H         1 <0>         0.0847
     25 H5         -5.4317   -1.6414    1.2423 H         1 <0>         0.0802
     26 H6         -6.5557   -2.1772   -1.2927 H         1 <0>         0.4157
     27 H7         -2.6432   -4.0302   -2.2302 H         1 <0>         0.4266
     28 H8         -1.5376   -4.7422   -4.3941 H         1 <0>         0.1400
     29 H9         -1.5864   -6.4337   -6.1836 H         1 <0>         0.1436
     30 H10        -5.4872   -5.8785   -3.2049 H         1 <0>         0.1472
     31 H11        -7.5362   -7.8286   -6.0890 H         1 <0>         0.1063
     32 H12        -6.4967   -6.4396   -6.4725 H         1 <0>         0.0591
     33 H13        -5.8573   -9.3323   -7.1425 H         1 <0>         0.0851
     34 H14        -6.5520   -8.1602   -8.2763 H         1 <0>         0.0923
     35 H15        -4.1655   -8.3127   -8.6552 H         1 <0>         0.1059
     36 H16        -4.5406   -6.7206   -7.9615 H         1 <0>         0.0581
@<TRIPOS>BOND
     1    1    2 2
     2    1   21 1
     3    1   22 1
     4    2    3 1
     5    2   23 1
     6    3    4 1
     7    3   24 1
     8    3   25 1
     9    4    5 am
    10    4   26 1
    11    5    6 2
    12    5    7 1
    13    7    8 2
    14    7    9 am
    15    9   10 1
    16    9   27 1
    17   10   15 ar
    18   10   11 ar
    19   11   12 ar
    20   11   28 1
    21   12   13 ar
    22   12   29 1
    23   13   20 1
    24   13   14 ar
    25   14   15 ar
    26   14   16 1
    27   15   30 1
    28   16   17 1
    29   17   18 1
    30   17   31 1
    31   17   32 1
    32   18   19 1
    33   18   33 1
    34   18   34 1
    35   19   20 1
    36   19   35 1
    37   19   36 1
@<TRIPOS>MOLECULE
ZINC49478746
   32    33     0     0     0
SMALL
USER_CHARGES

@<TRIPOS>ATOM
      1 C1         -0.0167    1.3793    0.0096 C.ar      1 <0>        -0.1731
      2 C2          1.1799    2.0733    0.0019 C.ar      1 <0>        -0.0508
      3 C3          2.3739    1.3382   -0.0134 C.ar      1 <0>        -0.1318
      4 C4          2.3058   -0.0585   -0.0203 C.ar      1 <0>         0.1199
      5 N1          1.1407   -0.6711   -0.0124 N.ar      1 <0>        -0.4844
      6 C5          0.0021   -0.0041    0.0020 C.ar      1 <0>         0.1093
      7 C6          3.6761    2.0246   -0.0227 C.2       1 <0>        -0.0081
      8 C7          4.8167    1.3062   -0.0374 C.2       1 <0>        -0.2099
      9 C8          6.1120    1.9890   -0.0466 C.2       1 <0>         0.5552
     10 O1          6.1589    3.2051   -0.0409 O.2       1 <0>        -0.5418
     11 N2          7.2523    1.2707   -0.0613 N.am      1 <0>        -0.7164
     12 C9          8.5482    1.9539   -0.0705 C.3       1 <0>         0.1074
     13 C10         9.6551    0.9313   -0.0865 C.2       1 <0>         0.5053
     14 O2          9.3877   -0.2517   -0.0898 O.2       1 <0>        -0.4646
     15 N3         10.9421    1.3313   -0.0970 N.am      1 <0>        -0.6189
     16 C11        11.9629    0.3881   -0.1117 C.2       1 <0>         0.2658
     17 N4         11.8639   -0.9236   -0.1231 N.2       1 <0>        -0.5210
     18 C12        12.9394   -1.6890   -0.1365 C.2       1 <0>         0.0612
     19 C13        14.1416   -1.0624   -0.1379 C.2       1 <0>        -0.2405
     20 S1         13.6259    0.6469   -0.1266 S.3       1 <0>         0.1171
     21 H1         -0.9561    1.9119    0.0259 H         1 <0>         0.1413
     22 H2          1.1941    3.1532    0.0072 H         1 <0>         0.1417
     23 H3          3.2163   -0.6392   -0.0324 H         1 <0>         0.1606
     24 H4         -0.9312   -0.5475    0.0080 H         1 <0>         0.1600
     25 H5          3.7177    3.1038   -0.0176 H         1 <0>         0.1408
     26 H6          4.7751    0.2270   -0.0424 H         1 <0>         0.1337
     27 H7          7.2150    0.3015   -0.0658 H         1 <0>         0.4154
     28 H8          8.6214    2.5823   -0.9581 H         1 <0>         0.1087
     29 H9          8.6388    2.5734    0.8218 H         1 <0>         0.1088
     30 H10        11.1559    2.2774   -0.0943 H         1 <0>         0.4303
     31 H11        12.8649   -2.7664   -0.1456 H         1 <0>         0.1777
     32 H12        15.1369   -1.4815   -0.1471 H         1 <0>         0.2011
@<TRIPOS>BOND
     1    1    6 ar
     2    1    2 ar
     3    1   21 1
     4    2    3 ar
     5    2   22 1
     6    3    4 ar
     7    3    7 1
     8    4    5 ar
     9    4   23 1
    10    5    6 ar
    11    6   24 1
    12    7    8 2
    13    7   25 1
    14    8    9 1
    15    8   26 1
    16    9   10 2
    17    9   11 am
    18   11   12 1
    19   11   27 1
    20   12   13 1
    21   12   28 1
    22   12   29 1
    23   13   14 2
    24   13   15 am
    25   15   16 1
    26   15   30 1
    27   16   20 1
    28   16   17 2
    29   17   18 1
    30   18   19 2
    31   18   31 1
    32   19   20 1
    33   19   32 1
@<TRIPOS>MOLECULE
ZINC52121866
   34    35     0     0     0
SMALL
USER_CHARGES

@<TRIPOS>ATOM
      1 C1         -0.0184    1.5028    0.0103 C.3       1 <0>        -0.0882
      2 C2          0.0021   -0.0041    0.0020 C.2       1 <0>         0.0771
      3 C3         -1.0762   -0.8075    0.0026 C.2       1 <0>        -0.2831
      4 C4         -0.6253   -2.1466   -0.0076 C.2       1 <0>         0.3507
      5 N1          0.6830   -2.1300   -0.0140 N.2       1 <0>        -0.3594
      6 O1          1.0997   -0.7765   -0.0131 O.3       1 <0>        -0.0716
      7 N2         -1.4320   -3.2846   -0.0100 N.am      1 <0>        -0.6452
      8 C5         -2.7739   -3.1593   -0.0021 C.2       1 <0>         0.7160
      9 O2         -3.2813   -2.0546    0.0070 O.2       1 <0>        -0.5531
     10 N3         -3.5533   -4.2589   -0.0044 N.am      1 <0>        -0.6024
     11 C6         -2.9419   -5.5901   -0.0154 C.3       1 <0>         0.1022
     12 C7         -2.7214   -6.0620    1.4232 C.3       1 <0>         0.0543
     13 O3         -3.9854   -6.2318    2.0678 O.3       1 <0>        -0.5667
     14 C8         -5.0120   -4.1228    0.0041 C.3       1 <0>         0.1908
     15 C9         -5.5197   -4.0678   -1.4137 C.2       1 <0>        -0.1446
     16 C10        -5.6404   -2.8568   -2.0691 C.2       1 <0>        -0.1403
     17 C11        -6.1003   -2.8424   -3.3441 C.2       1 <0>        -0.1737
     18 S1         -6.3798   -4.5779   -3.6555 S.3       1 <0>         0.0315
     19 C12        -5.8595   -5.2057   -2.0673 C.2       1 <0>        -0.1610
     20 H1          1.0042    1.8801    0.0026 H         1 <0>         0.0855
     21 H2         -0.5455    1.8639   -0.8728 H         1 <0>         0.0969
     22 H3         -0.5286    1.8543    0.9071 H         1 <0>         0.0970
     23 H4         -2.1071   -0.4855    0.0099 H         1 <0>         0.1837
     24 H5         -1.0272   -4.1660   -0.0173 H         1 <0>         0.4148
     25 H6         -3.6018   -6.2888   -0.5298 H         1 <0>         0.0991
     26 H7         -1.9843   -5.5459   -0.5341 H         1 <0>         0.0887
     27 H8         -2.1867   -7.0118    1.4161 H         1 <0>         0.0628
     28 H9         -2.1350   -5.3188    1.9635 H         1 <0>         0.0479
     29 H10        -3.9220   -6.5304    2.9854 H         1 <0>         0.3844
     30 H11        -5.4537   -4.9781    0.5153 H         1 <0>         0.1020
     31 H12        -5.2883   -3.2059    0.5248 H         1 <0>         0.0941
     32 H13        -5.3726   -1.9358   -1.5726 H         1 <0>         0.1403
     33 H14        -6.2573   -1.9996   -4.0010 H         1 <0>         0.1848
     34 H15        -5.8253   -6.2269   -1.7176 H         1 <0>         0.1846
@<TRIPOS>BOND
     1    1    2 1
     2    1   20 1
     3    1   21 1
     4    1   22 1
     5    2    6 1
     6    2    3 2
     7    3    4 1
     8    3   23 1
     9    4    5 2
    10    4    7 1
    11    5    6 1
    12    7    8 am
    13    7   24 1
    14    8    9 2
    15    8   10 am
    16   10   11 1
    17   10   14 1
    18   11   12 1
    19   11   25 1
    20   11   26 1
    21   12   13 1
    22   12   27 1
    23   12   28 1
    24   13   29 1
    25   14   15 1
    26   14   30 1
    27   14   31 1
    28   15   19 2
    29   15   16 1
    30   16   17 2
    31   16   32 1
    32   17   18 1
    33   17   33 1
    34   18   19 1
    35   19   34 1
@<TRIPOS>MOLECULE
ZINC66591277
   38    39     0     0     0
SMALL
USER_CHARGES

@<TRIPOS>ATOM
      1 C1         -0.0187    1.5258    0.0104 C.3       1 <0>        -0.1534
      2 C2          0.0021   -0.0041    0.0020 C.3       1 <0>        -0.1098
      3 C3          0.7182   -0.4975   -1.2568 C.3       1 <0>        -0.1347
      4 C4          0.7386   -2.0043   -1.2651 C.2       1 <0>         0.5338
      5 O1          0.2305   -2.6227   -0.3539 O.2       1 <0>        -0.5103
      6 N1          1.3217   -2.6648   -2.2851 N.am      1 <0>        -0.6087
      7 C5          1.9581   -1.9493   -3.4125 C.3       1 <0>         0.1584
      8 S1          3.1192   -3.2388   -4.0460 S.3       1 <0>        -0.2548
      9 C6          2.0886   -4.6975   -3.5698 C.3       1 <0>        -0.0692
     10 C7          1.3629   -4.1166   -2.3313 C.3       1 <0>         0.1280
     11 H1          0.3397   -4.4921   -2.3260 H         1 <0>         0.1202
     12 C8          2.0550   -4.6151   -1.0889 C.2       1 <0>         0.5109
     13 O2          2.4635   -3.8255   -0.2640 O.2       1 <0>        -0.5043
     14 N2          2.2201   -5.9385   -0.8945 N.am      1 <0>        -0.5248
     15 N3          2.8635   -6.4020    0.2605 N.am      1 <0>        -0.5161
     16 C9          3.0285   -7.7254    0.4549 C.2       1 <0>         0.5461
     17 O3          2.6201   -8.5151   -0.3700 O.2       1 <0>        -0.5393
     18 C10         3.7206   -8.2240    1.6973 C.3       1 <0>        -0.1915
     19 C11         5.0955   -8.8735    1.5277 C.3       1 <0>        -0.1488
     20 C12         3.8771   -9.7373    1.8597 C.3       1 <0>        -0.1405
     21 H2          1.0039    1.9031    0.0027 H         1 <0>         0.0554
     22 H3         -0.5459    1.8868   -0.8726 H         1 <0>         0.0552
     23 H4         -0.5289    1.8773    0.9072 H         1 <0>         0.0596
     24 H5          0.5293   -0.3651    0.8851 H         1 <0>         0.0710
     25 H6         -1.0205   -0.3814    0.0098 H         1 <0>         0.0695
     26 H7          0.1910   -0.1364   -2.1398 H         1 <0>         0.0959
     27 H8          1.7408   -0.1202   -1.2645 H         1 <0>         0.0966
     28 H9          1.2225   -1.6780   -4.1698 H         1 <0>         0.1074
     29 H10         2.5006   -1.0709   -3.0630 H         1 <0>         0.1218
     30 H11         1.3847   -4.9600   -4.3595 H         1 <0>         0.1236
     31 H12         2.7108   -5.5501   -3.2974 H         1 <0>         0.1272
     32 H13         1.8934   -6.5701   -1.5543 H         1 <0>         0.4301
     33 H14         3.1901   -5.7705    0.9203 H         1 <0>         0.4339
     34 H15         3.5491   -7.6361    2.5990 H         1 <0>         0.1309
     35 H16         5.4995   -8.9401    0.5175 H         1 <0>         0.1018
     36 H17         5.8289   -8.7128    2.3178 H         1 <0>         0.1097
     37 H18         3.8090  -10.1449    2.8684 H         1 <0>         0.1086
     38 H19         3.4795  -10.3722    1.0680 H         1 <0>         0.1105
@<TRIPOS>BOND
     1    1    2 1
     2    1   21 1
     3    1   22 1
     4    1   23 1
     5    2    3 1
     6    2   24 1
     7    2   25 1
     8    3    4 1
     9    3   26 1
    10    3   27 1
    11    4    5 2
    12    4    6 am
    13    6   10 1
    14    6    7 1
    15    7    8 1
    16    7   28 1
    17    7   29 1
    18    8    9 1
    19    9   10 1
    20    9   30 1
    21    9   31 1
    22   10   11 1
    23   10   12 1
    24   12   13 2
    25   12   14 am
    26   14   15 1
    27   14   32 1
    28   15   16 am
    29   15   33 1
    30   16   17 2
    31   16   18 1
    32   18   20 1
    33   18   19 1
    34   18   34 1
    35   19   20 1
    36   19   35 1
    37   19   36 1
    38   20   37 1
    39   20   38 1
@<TRIPOS>MOLECULE
ZINC20834937
   59    61     0     0     0
SMALL
USER_CHARGES
2-[[5-[(N'E)-N'-[(5-methyl-2-furyl)methylene]hydrazino]-4H-1,2,4-triazol-3-yl]sulfanyl]-N-(2,2,6,6-tetramethyl-4-piperidyl)acetamide
@<TRIPOS>ATOM
      1 C1         -1.2108   -0.8984    0.0088 C.3       1 <0>        -0.0839
      2 C2          0.0021   -0.0041    0.0020 C.2       1 <0>         0.0178
      3 C3          1.2844   -0.4201   -0.0125 C.2       1 <0>        -0.2157
      4 C4          2.0933    0.7319   -0.0140 C.2       1 <0>        -0.1428
      5 C5          1.2492    1.8042   -0.0002 C.2       1 <0>         0.0021
      6 O1         -0.0161    1.3393    0.0094 O.3       1 <0>        -0.1619
      7 C6          1.6486    3.2148    0.0036 C.2       1 <0>         0.1587
      8 N1          0.7415    4.1479    0.0177 N.2       1 <0>        -0.2465
      9 N2          1.1232    5.4959    0.0213 N.pl3     1 <0>        -0.5565
     10 C7          0.1565    6.4903    0.0364 C.2       1 <0>         0.5456
     11 N3          0.3894    7.8377    0.0415 N.2       1 <0>        -0.5503
     12 C8         -0.8188    8.4750    0.0570 C.2       1 <0>         0.2064
     13 N4         -1.7594    7.5607    0.0614 N.2       1 <0>        -0.3293
     14 N5         -1.1413    6.3036    0.0426 N.pl3     1 <0>        -0.4743
     15 S1         -1.0697   10.2190    0.0691 S.3       1 <0>         0.1140
     16 C9         -2.8743   10.4026    0.0881 C.3       1 <0>        -0.1681
     17 C10        -3.2301   11.8670    0.0997 C.2       1 <0>         0.5454
     18 O2         -2.3527   12.7043    0.0955 O.2       1 <0>        -0.5155
     19 N6         -4.5233   12.2461    0.1147 N.am      1 <0>        -0.7388
     20 C11        -4.8700   13.6729    0.1260 C.3       1 <0>         0.1422
     21 C12        -4.8873   14.1753    1.5693 C.3       1 <0>        -0.1439
     22 C13        -5.2680   15.6531    1.6137 C.3       1 <0>         0.0691
     23 N7         -6.4534   15.9554    0.8391 N.4       1 <0>        -0.5133
     24 C14        -6.6614   15.3309   -0.4506 C.3       1 <0>         0.0562
     25 C15        -6.2658   13.8564   -0.4691 C.3       1 <0>        -0.1396
     26 C16        -5.9062   16.0781   -1.5563 C.3       1 <0>        -0.1810
     27 C17        -8.1666   15.4130   -0.7893 C.3       1 <0>        -0.1799
     28 C18        -4.0763   16.5031    1.1571 C.3       1 <0>        -0.1761
     29 C19        -5.5500   16.0166    3.0887 C.3       1 <0>        -0.1776
     30 H1         -0.8905   -1.9507    0.0001 H         1 <0>         0.0967
     31 H2         -1.8222   -0.6938   -0.8825 H         1 <0>         0.0834
     32 H3         -1.8050   -0.7035    0.9137 H         1 <0>         0.0833
     33 H4          1.6266   -1.4444   -0.0215 H         1 <0>         0.1572
     34 H5          3.1729    0.7615   -0.0236 H         1 <0>         0.1600
     35 H6          2.7150    3.4845   -0.0055 H         1 <0>         0.1601
     36 H7          2.1896    5.7656    0.0122 H         1 <0>         0.4411
     37 H8         -3.3005    9.9288   -0.8085 H         1 <0>         0.1260
     38 H9         -3.2826    9.9189    0.9877 H         1 <0>         0.1255
     39 H10        -5.3191   11.4867    0.1185 H         1 <0>         0.4311
     40 H11        -4.1107   14.2005   -0.4699 H         1 <0>         0.1072
     41 H12        -5.6224   13.5984    2.1496 H         1 <0>         0.0911
     42 H13        -3.8889   14.0490    2.0135 H         1 <0>         0.1132
     43 H14        -7.3484   15.6757    1.4142 H         1 <0>         0.4428
     44 H15        -6.2714   13.4966   -1.5086 H         1 <0>         0.1144
     45 H16        -6.9947   13.2821    0.1216 H         1 <0>         0.0955
     46 H17        -6.0834   15.5812   -2.5215 H         1 <0>         0.1043
     47 H18        -4.8291   16.0722   -1.3331 H         1 <0>         0.0824
     48 H19        -6.2644   17.1169   -1.6074 H         1 <0>         0.0848
     49 H20        -8.3485   14.9435   -1.7673 H         1 <0>         0.1073
     50 H21        -8.4773   16.4676   -0.8253 H         1 <0>         0.0855
     51 H22        -8.7456   14.8863   -0.0164 H         1 <0>         0.0825
     52 H23        -4.3515   17.5676    1.1894 H         1 <0>         0.0814
     53 H24        -3.8013   16.2265    0.1286 H         1 <0>         0.0817
     54 H25        -3.2212   16.3249    1.8258 H         1 <0>         0.1055
     55 H26        -5.8284   17.0785    3.1578 H         1 <0>         0.0830
     56 H27        -4.6473   15.8342    3.6903 H         1 <0>         0.1055
     57 H28        -6.3751   15.3958    3.4680 H         1 <0>         0.0804
     58 H29        -1.5501    5.2824    0.0332 H         1 <0>         0.4781
     59 H30        -6.4818   17.0325    0.6175 H         1 <0>         0.4464
@<TRIPOS>BOND
     1    1    2 1
     2    1   30 1
     3    1   31 1
     4    1   32 1
     5    2    6 1
     6    2    3 2
     7    3    4 1
     8    3   33 1
     9    4    5 2
    10    4   34 1
    11    5    6 1
    12    5    7 1
    13    7    8 2
    14    7   35 1
    15    8    9 1
    16    9   10 1
    17    9   36 1
    18   10   14 1
    19   10   11 2
    20   11   12 1
    21   12   13 2
    22   12   15 1
    23   13   14 1
    24   14   58 1
    25   15   16 1
    26   16   17 1
    27   16   37 1
    28   16   38 1
    29   17   18 2
    30   17   19 am
    31   19   20 1
    32   19   39 1
    33   20   25 1
    34   20   21 1
    35   20   40 1
    36   21   22 1
    37   21   41 1
    38   21   42 1
    39   22   23 1
    40   22   28 1
    41   22   29 1
    42   23   24 1
    43   23   43 1
    44   23   59 1
    45   24   25 1
    46   24   26 1
    47   24   27 1
    48   25   44 1
    49   25   45 1
    50   26   46 1
    51   26   47 1
    52   26   48 1
    53   27   49 1
    54   27   50 1
    55   27   51 1
    56   28   52 1
    57   28   53 1
    58   28   54 1
    59   29   55 1
    60   29   56 1
    61   29   57 1
@<TRIPOS>MOLECULE
ZINC40092552
   55    57     0     0     0
SMALL
USER_CHARGES

@<TRIPOS>ATOM
      1 C1         -0.0168    1.3907    0.0097 C.ar      1 <0>        -0.1012
      2 C2          1.1699    2.0941    0.0021 C.ar      1 <0>        -0.1018
      3 C3          2.3782    1.4182   -0.0130 C.ar      1 <0>        -0.0268
      4 C4          2.4030    0.0338   -0.0207 C.ar      1 <0>        -0.1013
      5 C5          1.2223   -0.6798   -0.0137 C.ar      1 <0>        -0.0793
      6 C6          0.0021   -0.0041    0.0020 C.ar      1 <0>        -0.0264
      7 C7         -1.2678   -0.7642    0.0106 C.2       1 <0>         0.0633
      8 C8         -1.4035   -2.1243    0.0046 C.2       1 <0>        -0.1530
      9 C9         -2.7948   -2.3634    0.0180 C.2       1 <0>        -0.0181
     10 N1         -3.3951   -1.1896    0.0307 N.2       1 <0>        -0.2473
     11 H1         -2.7375    0.7046    0.0439 H         1 <0>         0.4491
     12 N2         -2.5275   -0.2423    0.0318 N.pl3     1 <0>        -0.3719
     13 C10        -3.4560   -3.6846    0.0174 C.2       1 <0>         0.6102
     14 O1         -2.7865   -4.6993    0.0044 O.2       1 <0>        -0.5222
     15 N3         -4.8012   -3.7650    0.0312 N.am      1 <0>        -0.7246
     16 C11        -5.4568   -5.0752    0.0306 C.3       1 <0>         0.1189
     17 C12        -6.9750   -4.8858    0.0478 C.3       1 <0>        -0.1300
     18 C13        -7.6596   -6.2541    0.0472 C.3       1 <0>        -0.1474
     19 C14        -9.1777   -6.0647    0.0644 C.3       1 <0>        -0.0089
     20 N4         -9.8351   -7.3784    0.0638 N.4       1 <0>        -0.3854
     21 C15        -9.5096   -8.0873    1.3072 C.3       1 <0>        -0.0113
     22 C16       -10.1251   -9.4879    1.2763 C.3       1 <0>        -0.1290
     23 C17       -11.6456   -9.3684    1.1380 C.3       1 <0>        -0.1238
     24 C18       -11.9719   -8.5632   -0.1231 C.3       1 <0>        -0.1405
     25 C19       -11.2879   -7.1969   -0.0404 C.3       1 <0>        -0.0031
     26 C20       -12.2513  -10.7440    1.0284 C.2       1 <0>         0.5195
     27 O2        -11.5383  -11.7247    1.0578 O.2       1 <0>        -0.5279
     28 N5        -13.5853  -10.8844    0.8976 N.am      1 <0>        -0.8495
     29 Cl1         3.8678    2.3097   -0.0230 Cl        1 <0>        -0.0562
     30 H2         -0.9587    1.9189    0.0260 H         1 <0>         0.1283
     31 H3          1.1565    3.1740    0.0077 H         1 <0>         0.1413
     32 H4          3.3483   -0.4883   -0.0325 H         1 <0>         0.1436
     33 H5          1.2428   -1.7596   -0.0204 H         1 <0>         0.1419
     34 H6         -0.6133   -2.8604   -0.0081 H         1 <0>         0.1697
     35 H7         -5.3354   -2.9554    0.0416 H         1 <0>         0.4089
     36 H8         -5.1694   -5.6248   -0.8657 H         1 <0>         0.0742
     37 H9         -5.1505   -5.6351    0.9141 H         1 <0>         0.0739
     38 H10        -7.2624   -4.3361    0.9441 H         1 <0>         0.0829
     39 H11        -7.2813   -4.3258   -0.8357 H         1 <0>         0.0832
     40 H12        -7.3722   -6.8038   -0.8491 H         1 <0>         0.0929
     41 H13        -7.3532   -6.8141    0.9307 H         1 <0>         0.0927
     42 H14        -9.4652   -5.5150    0.9607 H         1 <0>         0.1316
     43 H15        -9.4841   -5.5047   -0.8192 H         1 <0>         0.1331
     44 H16        -8.4271   -8.1688    1.4058 H         1 <0>         0.1381
     45 H17        -9.9103   -7.5335    2.1562 H         1 <0>         0.1314
     46 H18        -9.7250  -10.0428    0.4278 H         1 <0>         0.0984
     47 H19        -9.8839  -10.0120    2.2011 H         1 <0>         0.1206
     48 H20       -12.0521   -8.8585    2.0114 H         1 <0>         0.1173
     49 H21       -11.6100   -9.0989   -1.0007 H         1 <0>         0.0962
     50 H22       -13.0506   -8.4263   -0.1986 H         1 <0>         0.1172
     51 H23       -11.6506   -6.6620    0.8373 H         1 <0>         0.1324
     52 H24       -11.5183   -6.6209   -0.9367 H         1 <0>         0.1360
     53 H25       -14.1556  -10.1001    0.8741 H         1 <0>         0.4031
     54 H26       -13.9752  -11.7698    0.8270 H         1 <0>         0.4121
     55 H27        -9.5071   -7.9171   -0.7238 H         1 <0>         0.4246
@<TRIPOS>BOND
     1    1    6 ar
     2    1    2 ar
     3    1   30 1
     4    2    3 ar
     5    2   31 1
     6    3    4 ar
     7    3   29 1
     8    4    5 ar
     9    4   32 1
    10    5    6 ar
    11    5   33 1
    12    6    7 1
    13    7    8 2
    14    7   12 1
    15    8   34 1
    16    8    9 1
    17    9   13 1
    18    9   10 2
    19   10   12 1
    20   11   12 1
    21   13   14 2
    22   13   15 am
    23   15   16 1
    24   15   35 1
    25   16   17 1
    26   16   36 1
    27   16   37 1
    28   17   18 1
    29   17   38 1
    30   17   39 1
    31   18   19 1
    32   18   40 1
    33   18   41 1
    34   19   20 1
    35   19   42 1
    36   19   43 1
    37   20   25 1
    38   20   21 1
    39   20   55 1
    40   21   22 1
    41   21   44 1
    42   21   45 1
    43   22   23 1
    44   22   46 1
    45   22   47 1
    46   23   24 1
    47   23   26 1
    48   23   48 1
    49   24   25 1
    50   24   49 1
    51   24   50 1
    52   25   51 1
    53   25   52 1
    54   26   27 2
    55   26   28 am
    56   28   53 1
    57   28   54 1
@<TRIPOS>MOLECULE
ZINC40782339
   45    48     0     0     0
SMALL
USER_CHARGES

@<TRIPOS>ATOM
      1 C1         -1.5392    1.0581    0.6499 C.3       1 <0>        -0.1547
      2 C2         -0.9746   -0.3286    0.4777 C.ar      1 <0>         0.2466
      3 C3         -1.2035   -1.0105   -0.7144 C.ar      1 <0>        -0.1820
      4 C4         -0.6986   -2.2688   -0.8879 C.ar      1 <0>         0.0482
      5 C5          0.0447   -2.8358    0.1610 C.ar      1 <0>        -0.1248
      6 C6          0.2409   -2.0881    1.3482 C.ar      1 <0>         0.1607
      7 N1         -0.2762   -0.8590    1.4525 N.ar      1 <0>        -0.4647
      8 C7          0.9837   -2.6519    2.3991 C.ar      1 <0>        -0.1780
      9 C8          1.5065   -3.9031    2.2707 C.ar      1 <0>         0.0012
     10 C9          1.3201   -4.6456    1.1099 C.ar      1 <0>        -0.1361
     11 C10         0.5971   -4.1295    0.0538 C.ar      1 <0>         0.2384
     12 N2          0.4137   -4.8787   -1.1058 N.pl3     1 <0>        -0.6400
     13 C11         0.5363   -6.2631   -1.0657 C.ar      1 <0>         0.3638
     14 C12         0.4731   -7.0149   -2.2407 C.ar      1 <0>         0.0370
     15 C13         0.6025   -8.4016   -2.1437 C.ar      1 <0>         0.4043
     16 N3          0.7800   -8.9501   -0.9439 N.ar      1 <0>        -0.5380
     17 C14         0.8339   -8.2040    0.1406 C.ar      1 <0>         0.3285
     18 N4          0.7213   -6.8919    0.0926 N.ar      1 <0>        -0.5544
     19 N5          0.5465   -9.1974   -3.2825 N.pl3     1 <0>        -0.6484
     20 C15         0.5643  -10.5901   -3.1636 C.ar      1 <0>         0.1699
     21 C16         1.1828  -11.3638   -4.1374 C.ar      1 <0>        -0.1435
     22 C17         1.1991  -12.7395   -4.0170 C.ar      1 <0>        -0.0669
     23 C18         0.5998  -13.3471   -2.9279 C.ar      1 <0>        -0.1061
     24 C19        -0.0170  -12.5790   -1.9564 C.ar      1 <0>        -0.0685
     25 C20        -0.0316  -11.2027   -2.0684 C.ar      1 <0>        -0.1090
     26 Br1         0.6233  -15.2312   -2.7674 Br        1 <0>        -0.0440
     27 N6          0.2840   -6.3935   -3.4850 N.pl3     1 <0>        -0.8708
     28 H1         -0.8162    1.7916    0.2931 H         1 <0>         0.1231
     29 H2         -2.4617    1.1485    0.0764 H         1 <0>         0.1218
     30 H3         -1.7480    1.2370    1.7046 H         1 <0>         0.1020
     31 H4         -1.7797   -0.5459   -1.5010 H         1 <0>         0.1840
     32 H5         -0.8667   -2.8124   -1.8059 H         1 <0>         0.1636
     33 H6          1.1405   -2.0925    3.3095 H         1 <0>         0.1540
     34 H7          2.0764   -4.3259    3.0849 H         1 <0>         0.1579
     35 H8          1.7454   -5.6354    1.0339 H         1 <0>         0.1840
     36 H9          0.2005   -4.4347   -1.9414 H         1 <0>         0.4178
     37 H10         0.9787   -8.6821    1.0981 H         1 <0>         0.2086
     38 H11         0.4951   -8.7861   -4.1595 H         1 <0>         0.4175
     39 H12         1.6501  -10.8901   -4.9881 H         1 <0>         0.1330
     40 H13         1.6798  -13.3416   -4.7738 H         1 <0>         0.1384
     41 H14        -0.4843  -13.0561   -1.1076 H         1 <0>         0.1373
     42 H15        -0.5093  -10.6034   -1.3075 H         1 <0>         0.1430
     43 H16         0.1953   -5.4290   -3.5370 H         1 <0>         0.3957
     44 H17         0.2421   -6.9287   -4.2929 H         1 <0>         0.4037
     45 H18        -0.1350   -0.3514    2.2669 H         1 <0>         0.4459
@<TRIPOS>BOND
     1    1    2 1
     2    1   28 1
     3    1   29 1
     4    1   30 1
     5    2    7 ar
     6    2    3 ar
     7    3    4 ar
     8    3   31 1
     9    4    5 ar
    10    4   32 1
    11    5   11 ar
    12    5    6 ar
    13    6    7 ar
    14    6    8 ar
    15    7   45 1
    16    8    9 ar
    17    8   33 1
    18    9   10 ar
    19    9   34 1
    20   10   11 ar
    21   10   35 1
    22   11   12 1
    23   12   13 1
    24   12   36 1
    25   13   18 ar
    26   13   14 ar
    27   14   15 ar
    28   14   27 1
    29   15   16 ar
    30   15   19 1
    31   16   17 ar
    32   17   18 ar
    33   17   37 1
    34   19   20 1
    35   19   38 1
    36   20   25 ar
    37   20   21 ar
    38   21   22 ar
    39   21   39 1
    40   22   23 ar
    41   22   40 1
    42   23   24 ar
    43   23   26 1
    44   24   25 ar
    45   24   41 1
    46   25   42 1
    47   27   43 1
    48   27   44 1
@<TRIPOS>MOLECULE
ZINC57415184
   73    76     0     0     0
SMALL
USER_CHARGES

@<TRIPOS>ATOM
      1 C1          1.1040    2.9212    2.4542 C.3       1 <0>        -0.1453
      2 C2          0.9828    1.4253    2.7520 C.3       1 <0>        -0.0899
      3 C3          1.2296    0.6402    1.4895 C.ar      1 <0>        -0.0682
      4 C4          0.1749    0.3288    0.6520 C.ar      1 <0>        -0.1108
      5 C5          0.4012   -0.3913   -0.5061 C.ar      1 <0>        -0.0938
      6 C6          1.6824   -0.7997   -0.8268 C.ar      1 <0>        -0.1147
      7 C7          2.7372   -0.4875    0.0103 C.ar      1 <0>        -0.0898
      8 C8          2.5115    0.2364    1.1662 C.ar      1 <0>        -0.1176
      9 C9          1.9290   -1.5857   -2.0887 C.3       1 <0>         0.2444
     10 H1          0.9801   -2.0229   -2.3995 H         1 <0>         0.0929
     11 C10         2.3707   -0.6147   -3.1649 C.2       1 <0>        -0.2426
     12 C11         3.5706   -0.8257   -3.7477 C.2       1 <0>         0.2099
     13 N1          4.3580   -1.8786   -3.3786 N.am      1 <0>        -0.6389
     14 C12         4.0174   -2.7656   -2.4352 C.2       1 <0>         0.7061
     15 O1          4.7856   -3.6710   -2.1747 O.2       1 <0>        -0.5582
     16 N2          2.8517   -2.6867   -1.7648 N.am      1 <0>        -0.7082
     17 C13         4.0481    0.1159   -4.8230 C.3       1 <0>         0.0785
     18 N3          5.2473    0.8244   -4.3563 N.3       1 <0>        -0.5348
     19 C14         4.9306    1.7076   -3.2267 C.3       1 <0>         0.0469
     20 C15         6.2221    2.3158   -2.6752 C.3       1 <0>        -0.1168
     21 C16         6.9227    3.1058   -3.7840 C.3       1 <0>         0.0345
     22 C17         7.1979    2.1743   -4.9677 C.3       1 <0>        -0.1336
     23 C18         5.8781    1.5702   -5.4528 C.3       1 <0>         0.0519
     24 C19         6.0368    4.2400   -4.2311 C.2       1 <0>         0.5098
     25 O2          5.0810    4.5643   -3.5586 O.2       1 <0>        -0.4756
     26 N4          6.3067    4.8940   -5.3782 N.am      1 <0>        -0.8451
     27 N5          8.1922    3.6433   -3.2768 N.4       1 <0>        -0.3682
     28 C20         7.9250    4.5414   -2.1470 C.3       1 <0>        -0.0172
     29 C21         9.2485    5.0407   -1.5633 C.3       1 <0>        -0.1423
     30 C22        10.0246    5.7965   -2.6458 C.3       1 <0>        -0.1404
     31 C23        10.2328    4.8731   -3.8496 C.3       1 <0>        -0.1406
     32 C24         8.8729    4.3800   -4.3485 C.3       1 <0>        -0.0343
     33 C25         1.5539    0.4753   -3.5465 C.2       1 <0>         0.5332
     34 O3          1.5059    1.4724   -2.8508 O.2       1 <0>        -0.4735
     35 O4          0.8279    0.4093   -4.6821 O.3       1 <0>        -0.3499
     36 C26         0.0254    1.5464   -5.0061 C.3       1 <0>         0.0311
     37 H2          2.1053    3.1375    2.0816 H         1 <0>         0.0527
     38 H3          0.3676    3.2026    1.7015 H         1 <0>         0.0563
     39 H4          0.9255    3.4890    3.3673 H         1 <0>         0.0601
     40 H5          1.7192    1.1439    3.5047 H         1 <0>         0.0727
     41 H6         -0.0184    1.2090    3.1245 H         1 <0>         0.0746
     42 H7         -0.8260    0.6479    0.9025 H         1 <0>         0.1239
     43 H8         -0.4229   -0.6353   -1.1601 H         1 <0>         0.1193
     44 H9          3.7381   -0.8068   -0.2401 H         1 <0>         0.1119
     45 H10         3.3361    0.4835    1.8183 H         1 <0>         0.1198
     46 H11         5.2117   -1.9904   -3.8252 H         1 <0>         0.4305
     47 H12         2.6257   -3.3399   -1.0843 H         1 <0>         0.4370
     48 H13         4.2882   -0.4514   -5.7223 H         1 <0>         0.1163
     49 H14         3.2636    0.8385   -5.0479 H         1 <0>         0.0708
     50 H15         4.2686    2.5053   -3.5639 H         1 <0>         0.0664
     51 H16         4.4365    1.1326   -2.4435 H         1 <0>         0.1037
     52 H17         5.9851    2.9834   -1.8467 H         1 <0>         0.1052
     53 H18         6.8788    1.5194   -2.3251 H         1 <0>         0.1059
     54 H19         7.6581    2.7408   -5.7773 H         1 <0>         0.0970
     55 H20         7.8700    1.3757   -4.6538 H         1 <0>         0.1157
     56 H21         6.0722    0.8954   -6.2865 H         1 <0>         0.1099
     57 H22         5.2117    2.3685   -5.7796 H         1 <0>         0.0499
     58 H23         7.0256    4.5883   -5.9532 H         1 <0>         0.4053
     59 H24         5.7820    5.6704   -5.6288 H         1 <0>         0.4227
     60 H25         7.3362    5.3918   -2.4907 H         1 <0>         0.1262
     61 H26         7.3699    4.0029   -1.3789 H         1 <0>         0.1370
     62 H27         9.0479    5.7087   -0.7257 H         1 <0>         0.1152
     63 H28         9.8380    4.1910   -1.2190 H         1 <0>         0.0911
     64 H29         9.4580    6.6752   -2.9541 H         1 <0>         0.0813
     65 H30        10.9927    6.1054   -2.2516 H         1 <0>         0.0980
     66 H31        10.7358    5.4214   -4.6461 H         1 <0>         0.1153
     67 H32        10.8428    4.0200   -3.5527 H         1 <0>         0.0913
     68 H33         9.0175    3.7225   -5.2057 H         1 <0>         0.1349
     69 H34         8.2638    5.2339   -4.6454 H         1 <0>         0.1331
     70 H35        -0.5051    1.3624   -5.9403 H         1 <0>         0.1069
     71 H36        -0.6954    1.7218   -4.2074 H         1 <0>         0.0658
     72 H37         0.6645    2.4223   -5.1175 H         1 <0>         0.0584
     73 H38         8.7788    2.8827   -2.9679 H         1 <0>         0.4292
@<TRIPOS>BOND
     1    1    2 1
     2    1   37 1
     3    1   38 1
     4    1   39 1
     5    2    3 1
     6    2   40 1
     7    2   41 1
     8    3    8 ar
     9    3    4 ar
    10    4    5 ar
    11    4   42 1
    12    5    6 ar
    13    5   43 1
    14    6    7 ar
    15    6    9 1
    16    7    8 ar
    17    7   44 1
    18    8   45 1
    19    9   10 1
    20    9   16 1
    21    9   11 1
    22   11   12 2
    23   11   33 1
    24   12   13 1
    25   12   17 1
    26   13   14 am
    27   13   46 1
    28   14   15 2
    29   14   16 am
    30   16   47 1
    31   17   18 1
    32   17   48 1
    33   17   49 1
    34   18   23 1
    35   18   19 1
    36   19   20 1
    37   19   50 1
    38   19   51 1
    39   20   21 1
    40   20   52 1
    41   20   53 1
    42   21   22 1
    43   21   24 1
    44   21   27 1
    45   22   23 1
    46   22   54 1
    47   22   55 1
    48   23   56 1
    49   23   57 1
    50   24   25 2
    51   24   26 am
    52   26   58 1
    53   26   59 1
    54   27   32 1
    55   27   28 1
    56   27   73 1
    57   28   29 1
    58   28   60 1
    59   28   61 1
    60   29   30 1
    61   29   62 1
    62   29   63 1
    63   30   31 1
    64   30   64 1
    65   30   65 1
    66   31   32 1
    67   31   66 1
    68   31   67 1
    69   32   68 1
    70   32   69 1
    71   33   34 2
    72   33   35 1
    73   35   36 1
    74   36   70 1
    75   36   71 1
    76   36   72 1
@<TRIPOS>MOLECULE
ZINC64801421
   53    56     0     0     0
SMALL
USER_CHARGES

@<TRIPOS>ATOM
      1 C1         -3.8088   -5.5752    0.5607 C.3       1 <0>        -0.1693
      2 C2         -2.9240   -4.3804    0.9220 C.3       1 <0>         0.0875
      3 N1         -1.7421   -4.8501    1.6490 N.pl3     1 <0>        -0.6735
      4 C3         -0.7906   -3.9433    2.0824 C.ar      1 <0>         0.6559
      5 N2         -0.9677   -2.6536    1.8355 N.ar      1 <0>        -0.5744
      6 C4         -0.0790   -1.7555    2.2344 C.ar      1 <0>         0.2441
      7 C5          1.0462   -2.1751    2.9169 C.ar      1 <0>        -0.2699
      8 C6          1.2058   -3.5405    3.1625 C.ar      1 <0>         0.5157
      9 N3          0.2715   -4.3858    2.7381 N.ar      1 <0>        -0.5686
     10 N4          2.3194   -4.0071    3.8432 N.pl3     1 <0>        -0.5949
     11 C7          2.4240   -5.3652    4.1666 C.ar      1 <0>         0.0902
     12 C8          1.9272   -6.3266    3.2961 C.ar      1 <0>        -0.0839
     13 C9          2.0304   -7.6658    3.6151 C.ar      1 <0>        -0.1304
     14 C10         2.6303   -8.0516    4.8064 C.ar      1 <0>         0.1742
     15 C11         3.1270   -7.0905    5.6769 C.ar      1 <0>        -0.0998
     16 C12         3.0296   -5.7514    5.3552 C.ar      1 <0>        -0.1019
     17 N5          2.7341   -9.4111    5.1306 N.am      1 <0>        -0.6827
     18 C13         2.6238   -9.8082    6.4138 C.2       1 <0>         0.7073
     19 O1          2.5159   -8.9816    7.2989 O.2       1 <0>        -0.5509
     20 N6          2.6331  -11.1217    6.7158 N.am      1 <0>        -0.6743
     21 C14         2.4031  -11.5392    8.0335 C.ar      1 <0>         0.1670
     22 C15         1.5124  -10.8408    8.8376 C.ar      1 <0>        -0.1060
     23 C16         1.2841  -11.2516   10.1370 C.ar      1 <0>        -0.0795
     24 C17         1.9430  -12.3612   10.6413 C.ar      1 <0>         0.0230
     25 C18         2.8370  -13.0638    9.8371 C.ar      1 <0>         0.0553
     26 C19         3.0612  -12.6544    8.5331 C.ar      1 <0>        -0.1245
     27 O2          3.3491  -14.1033   10.5588 O.3       1 <0>        -0.3059
     28 C20         3.0711  -13.7892   11.9361 C.3       1 <0>         0.2133
     29 O3          1.8952  -12.9612   11.8675 O.3       1 <0>        -0.3060
     30 C21        -0.2934   -0.2919    1.9462 C.3       1 <0>        -0.1401
     31 H1         -4.1215   -6.0846    1.4722 H         1 <0>         0.0753
     32 H2         -4.6882   -5.2257    0.0198 H         1 <0>         0.0941
     33 H3         -3.2469   -6.2666   -0.0673 H         1 <0>         0.0751
     34 H4         -2.6113   -3.8710    0.0105 H         1 <0>         0.0854
     35 H5         -3.4859   -3.6890    1.5500 H         1 <0>         0.0852
     36 H6         -1.6264   -5.7967    1.8267 H         1 <0>         0.4409
     37 H7          1.7860   -1.4634    3.2526 H         1 <0>         0.1854
     38 H8          3.0263   -3.3926    4.0955 H         1 <0>         0.4375
     39 H9          1.4599   -6.0266    2.3698 H         1 <0>         0.1439
     40 H10         1.6441   -8.4135    2.9382 H         1 <0>         0.1356
     41 H11         3.5933   -7.3907    6.6036 H         1 <0>         0.1536
     42 H12         3.4202   -5.0041    6.0300 H         1 <0>         0.1361
     43 H13         2.8854  -10.0662    4.4314 H         1 <0>         0.4133
     44 H14         2.7991  -11.7780    6.0211 H         1 <0>         0.4125
     45 H15         0.9978   -9.9753    8.4471 H         1 <0>         0.1478
     46 H16         0.5911  -10.7065   10.7607 H         1 <0>         0.1419
     47 H17         3.7507  -13.2005    7.9064 H         1 <0>         0.1407
     48 H18         2.8672  -14.6979   12.5026 H         1 <0>         0.1360
     49 H19         3.9016  -13.2391   12.3786 H         1 <0>         0.0881
     50 H20        -0.8476    0.1627    2.7673 H         1 <0>         0.1181
     51 H21         0.6722    0.2030    1.8416 H         1 <0>         0.1193
     52 H22        -0.8596   -0.1829    1.0212 H         1 <0>         0.0989
     53 H23        -1.7590   -2.3629    1.3557 H         1 <0>         0.4382
@<TRIPOS>BOND
     1    1    2 1
     2    1   31 1
     3    1   32 1
     4    1   33 1
     5    2    3 1
     6    2   34 1
     7    2   35 1
     8    3    4 1
     9    3   36 1
    10    4    9 ar
    11    4    5 ar
    12    5    6 ar
    13    5   53 1
    14    6    7 ar
    15    6   30 1
    16    7    8 ar
    17    7   37 1
    18    8    9 ar
    19    8   10 1
    20   10   11 1
    21   10   38 1
    22   11   16 ar
    23   11   12 ar
    24   12   13 ar
    25   12   39 1
    26   13   14 ar
    27   13   40 1
    28   14   15 ar
    29   14   17 1
    30   15   16 ar
    31   15   41 1
    32   16   42 1
    33   17   18 am
    34   17   43 1
    35   18   19 2
    36   18   20 am
    37   20   21 1
    38   20   44 1
    39   21   26 ar
    40   21   22 ar
    41   22   23 ar
    42   22   45 1
    43   23   24 ar
    44   23   46 1
    45   24   29 1
    46   24   25 ar
    47   25   26 ar
    48   25   27 1
    49   26   47 1
    50   27   28 1
    51   28   29 1
    52   28   48 1
    53   28   49 1
    54   30   50 1
    55   30   51 1
    56   30   52 1
@<TRIPOS>MOLECULE
ZINC05439026
   44    46     0     0     0
SMALL
USER_CHARGES
2-[2-(2,5-dioxo-4,4-diphenyl-imidazolidin-1-yl)ethyl]isothiourea
@<TRIPOS>ATOM
      1 C1         -4.2683    3.5678   -2.6105 C.ar      1 <0>        -0.1051
      2 C2         -3.6125    4.4385   -1.7604 C.ar      1 <0>        -0.1151
      3 C3         -2.6307    3.9659   -0.9098 C.ar      1 <0>        -0.0978
      4 C4         -2.3050    2.6225   -0.9089 C.ar      1 <0>        -0.0981
      5 C5         -2.9572    1.7526   -1.7627 C.ar      1 <0>        -0.1016
      6 C6         -3.9420    2.2245   -2.6103 C.ar      1 <0>        -0.1132
      7 C7         -1.2347    2.1072    0.0185 C.3       1 <0>         0.2094
      8 C8         -0.2430    1.2458   -0.7380 C.2       1 <0>         0.5405
      9 O1         -0.4726    0.2135   -1.3307 O.2       1 <0>        -0.4455
     10 N1          0.9458    1.8694   -0.6196 N.am      1 <0>        -0.5749
     11 C9          0.8450    2.9908    0.1032 C.2       1 <0>         0.7159
     12 O2          1.7832    3.7240    0.3471 O.2       1 <0>        -0.5314
     13 N2         -0.4107    3.2161    0.5298 N.am      1 <0>        -0.7218
     14 C10         2.1941    1.3803   -1.2100 C.3       1 <0>         0.1341
     15 C11         2.3547    1.9605   -2.6166 C.3       1 <0>        -0.1854
     16 S1          3.8970    1.3561   -3.3461 S.3       1 <0>         0.1013
     17 C12         3.8281    2.1567   -4.9142 C.cat     1 <0>         0.4819
     18 N3          2.8175    2.9265   -5.2096 N.pl3     1 <0>        -0.7872
     19 N4          4.8402    1.9699   -5.8270 N.pl3     1 <0>        -0.8006
     20 C13        -1.8462    1.3347    1.1589 C.ar      1 <0>        -0.1034
     21 C14        -2.4045    0.0909    0.9303 C.ar      1 <0>        -0.0985
     22 C15        -2.9615   -0.6195    1.9772 C.ar      1 <0>        -0.1128
     23 C16        -2.9683   -0.0823    3.2509 C.ar      1 <0>        -0.1024
     24 C17        -2.4147    1.1638    3.4784 C.ar      1 <0>        -0.1144
     25 C18        -1.8539    1.8724    2.4323 C.ar      1 <0>        -0.0971
     26 H1         -5.0359    3.9369   -3.2746 H         1 <0>         0.1290
     27 H2         -3.8674    5.4880   -1.7606 H         1 <0>         0.1301
     28 H3         -2.1183    4.6462   -0.2456 H         1 <0>         0.1236
     29 H4         -2.6996    0.7038   -1.7651 H         1 <0>         0.1336
     30 H5         -4.4546    1.5442   -3.2742 H         1 <0>         0.1301
     31 H6         -0.8720    4.0107    1.1347 H         1 <0>         0.4759
     32 H7          3.0430    1.6941   -0.5848 H         1 <0>         0.1237
     33 H8          2.1671    0.2821   -1.2672 H         1 <0>         0.1205
     34 H9          1.5057    1.6468   -3.2418 H         1 <0>         0.1210
     35 H10         2.3818    3.0587   -2.5594 H         1 <0>         0.1244
     36 H11         2.7745    3.4263   -6.1886 H         1 <0>         0.4621
     37 H12         4.7971    2.4697   -6.8059 H         1 <0>         0.4582
     38 H13         5.6926    1.3207   -5.5780 H         1 <0>         0.4760
     39 H14        -2.4025   -0.3272   -0.0654 H         1 <0>         0.1316
     40 H15        -3.3937   -1.5932    1.7995 H         1 <0>         0.1308
     41 H16        -3.4059   -0.6362    4.0682 H         1 <0>         0.1300
     42 H17        -2.4201    1.5835    4.4735 H         1 <0>         0.1308
     43 H18        -1.4214    2.8459    2.6101 H         1 <0>         0.1233
     44 H19         2.0082    3.0759   -4.4798 H         1 <0>         0.4686
@<TRIPOS>BOND
     1    1    6 ar
     2    1    2 ar
     3    1   26 1
     4    2    3 ar
     5    2   27 1
     6    3    4 ar
     7    3   28 1
     8    4    5 ar
     9    4    7 1
    10    5    6 ar
    11    5   29 1
    12    6   30 1
    13    7   13 1
    14    7    8 1
    15    7   20 1
    16    8    9 2
    17    8   10 am
    18   10   11 am
    19   10   14 1
    20   11   12 2
    21   11   13 am
    22   13   31 1
    23   14   15 1
    24   14   32 1
    25   14   33 1
    26   15   16 1
    27   15   34 1
    28   15   35 1
    29   16   17 1
    30   17   18 2
    31   17   19 1
    32   18   36 1
    33   18   44 1
    34   19   37 1
    35   19   38 1
    36   20   25 ar
    37   20   21 ar
    38   21   22 ar
    39   21   39 1
    40   22   23 ar
    41   22   40 1
    42   23   24 ar
    43   23   41 1
    44   24   25 ar
    45   24   42 1
    46   25   43 1
@<TRIPOS>MOLECULE
ZINC40824734
   50    52     0     0     0
SMALL
USER_CHARGES

@<TRIPOS>ATOM
      1 C1         -0.0184    1.5028    0.0103 C.3       1 <0>        -0.1216
      2 C2          0.0021   -0.0041    0.0020 C.ar      1 <0>        -0.0703
      3 C3          0.0057   -0.6887   -1.1989 C.ar      1 <0>        -0.1225
      4 C4          0.0245   -2.0709   -1.2065 C.ar      1 <0>        -0.0940
      5 C5          0.0400   -2.7685   -0.0132 C.ar      1 <0>        -0.1254
      6 C6          0.0373   -2.0839    1.1877 C.ar      1 <0>        -0.0941
      7 C7          0.0229   -0.7016    1.1953 C.ar      1 <0>        -0.1226
      8 C8          0.0595   -4.2753   -0.0215 C.3       1 <0>         0.1628
      9 N1          1.4468   -4.7457   -0.0317 N.am      1 <0>        -0.7123
     10 C9          1.7102   -6.0675   -0.0404 C.2       1 <0>         0.6027
     11 O1          0.7955   -6.8701   -0.0397 O.2       1 <0>        -0.5099
     12 C10         3.0997   -6.5387   -0.0506 C.2       1 <0>        -0.0826
     13 C11         3.4995   -7.8459   -0.0655 C.2       1 <0>        -0.0349
     14 C12         4.8994   -7.8271   -0.0713 C.2       1 <0>        -0.1895
     15 C13         5.2946   -6.5105   -0.0580 C.2       1 <0>         0.0958
     16 O2          4.2003   -5.7526   -0.0530 O.3       1 <0>        -0.1369
     17 C14         6.7420   -6.0885   -0.0540 C.3       1 <0>        -0.0556
     18 C15         7.6087   -7.2485    0.4432 C.3       1 <0>        -0.1110
     19 C16         7.3188   -8.5219   -0.3583 C.3       1 <0>        -0.1291
     20 C17         5.8794   -8.9363   -0.0900 C.2       1 <0>         0.2582
     21 N2          5.5364  -10.1713    0.1082 N.2       1 <0>        -0.2843
     22 N3          6.5070  -11.1812    0.0792 N.pl3     1 <0>        -0.5592
     23 C18         6.1449  -12.4849    0.2884 C.cat     1 <0>         0.7717
     24 N4          7.0682  -13.4455    0.2608 N.pl3     1 <0>        -0.7944
     25 N5          4.8692  -12.7932    0.5197 N.pl3     1 <0>        -0.7750
     26 C19         2.6112   -9.0633   -0.0731 C.3       1 <0>        -0.0969
     27 H1          1.0042    1.8801    0.0026 H         1 <0>         0.0741
     28 H2         -0.5455    1.8639   -0.8728 H         1 <0>         0.0699
     29 H3         -0.5286    1.8543    0.9071 H         1 <0>         0.0698
     30 H4         -0.0064   -0.1436   -2.1312 H         1 <0>         0.1261
     31 H5          0.0266   -2.6057   -2.1448 H         1 <0>         0.1244
     32 H6          0.0491   -2.6289    2.1200 H         1 <0>         0.1243
     33 H7          0.0245   -0.1667    2.1335 H         1 <0>         0.1261
     34 H8         -0.4447   -4.6501    0.8693 H         1 <0>         0.0831
     35 H9         -0.4546   -4.6404   -0.9106 H         1 <0>         0.0832
     36 H10         2.1759   -4.1059   -0.0323 H         1 <0>         0.4074
     37 H11         7.0441   -5.8163   -1.0653 H         1 <0>         0.1123
     38 H12         6.8687   -5.2308    0.6067 H         1 <0>         0.1103
     39 H13         8.6604   -6.9849    0.3309 H         1 <0>         0.1046
     40 H14         7.3952   -7.4306    1.4965 H         1 <0>         0.0809
     41 H15         7.4524   -8.3251   -1.4220 H         1 <0>         0.1162
     42 H16         7.9951   -9.3165   -0.0431 H         1 <0>         0.0832
     43 H17         7.4356  -10.9568   -0.0892 H         1 <0>         0.4160
     44 H18         7.9968  -13.2211    0.0924 H         1 <0>         0.4399
     45 H19         4.1972  -12.0940    0.5398 H         1 <0>         0.4483
     46 H20         4.6126  -13.7168    0.6680 H         1 <0>         0.4393
     47 H21         2.3924   -9.3470   -1.1026 H         1 <0>         0.0804
     48 H22         3.1183   -9.8862    0.4305 H         1 <0>         0.0703
     49 H23         1.6804   -8.8372    0.4471 H         1 <0>         0.0949
     50 H24         6.8117  -14.3692    0.4091 H         1 <0>         0.4455
@<TRIPOS>BOND
     1    1    2 1
     2    1   27 1
     3    1   28 1
     4    1   29 1
     5    2    7 ar
     6    2    3 ar
     7    3    4 ar
     8    3   30 1
     9    4    5 ar
    10    4   31 1
    11    5    6 ar
    12    5    8 1
    13    6    7 ar
    14    6   32 1
    15    7   33 1
    16    8    9 1
    17    8   34 1
    18    8   35 1
    19    9   10 am
    20    9   36 1
    21   10   11 2
    22   10   12 1
    23   12   16 1
    24   12   13 2
    25   13   14 1
    26   13   26 1
    27   14   20 1
    28   14   15 2
    29   15   16 1
    30   15   17 1
    31   17   18 1
    32   17   37 1
    33   17   38 1
    34   18   19 1
    35   18   39 1
    36   18   40 1
    37   19   20 1
    38   19   41 1
    39   19   42 1
    40   20   21 2
    41   21   22 1
    42   22   23 1
    43   22   43 1
    44   23   24 2
    45   23   25 1
    46   24   44 1
    47   24   50 1
    48   25   45 1
    49   25   46 1
    50   26   47 1
    51   26   48 1
    52   26   49 1
@<TRIPOS>MOLECULE
ZINC44253849
   41    42     0     0     0
SMALL
USER_CHARGES

@<TRIPOS>ATOM
      1 C1         -0.0167    1.3780    0.0096 C.ar      1 <0>        -0.0703
      2 C2          1.1705    2.0859    0.0021 C.ar      1 <0>        -0.1044
      3 C3          2.3784    1.4113   -0.0135 C.ar      1 <0>        -0.0027
      4 C4          2.3978    0.0281   -0.0210 C.ar      1 <0>        -0.0980
      5 C5          1.2094   -0.6798   -0.0130 C.ar      1 <0>        -0.0035
      6 C6          0.0021   -0.0041    0.0020 C.ar      1 <0>        -0.1052
      7 Cl1         1.2327   -2.4156   -0.0231 Cl        1 <0>        -0.0460
      8 C7          3.7131   -0.7072   -0.0385 C.3       1 <0>         0.0895
      9 O1          4.1427   -0.9468    1.3032 O.3       1 <0>        -0.2883
     10 C8          5.3204   -1.6052    1.4656 C.ar      1 <0>         0.2173
     11 C9          6.0506   -2.0072    0.3563 C.ar      1 <0>        -0.1917
     12 C10         7.2475   -2.6758    0.5241 C.ar      1 <0>         0.0142
     13 C11         7.7184   -2.9445    1.7963 C.ar      1 <0>        -0.0716
     14 C12         6.9925   -2.5454    2.9031 C.ar      1 <0>        -0.0244
     15 C13         5.7975   -1.8713    2.7406 C.ar      1 <0>        -0.1778
     16 C14         5.0098   -1.4310    3.9476 C.3       1 <0>         0.1163
     17 H1          4.5187   -0.4816    3.7345 H         1 <0>         0.1685
     18 C15         3.9546   -2.4875    4.2812 C.3       1 <0>        -0.1720
     19 C16         3.0876   -1.9926    5.4101 C.2       1 <0>         0.5164
     20 O2          3.2935   -0.9023    5.8997 O.2       1 <0>        -0.5556
     21 N1          2.0835   -2.7616    5.8757 N.am      1 <0>        -0.8313
     22 N2          5.9171   -1.2671    5.0913 N.4       1 <0>        -0.6374
     23 N3          9.0012   -3.6611    1.9732 N.pl3     1 <0>         0.0305
     24 O3          9.6366   -4.0109    1.0059 O.2       1 <0>        -0.1337
     25 O4          9.4138   -3.8966    3.0849 O.3       1 <0>        -0.1538
     26 Cl2         3.8693    2.3005   -0.0241 Cl        1 <0>        -0.0439
     27 H2         -0.9592    1.9050    0.0259 H         1 <0>         0.1526
     28 H3          1.1552    3.1657    0.0080 H         1 <0>         0.1500
     29 H4         -0.9258   -0.5566    0.0082 H         1 <0>         0.1495
     30 H5          3.5906   -1.6586   -0.5562 H         1 <0>         0.0968
     31 H6          4.4592   -0.1049   -0.5568 H         1 <0>         0.0966
     32 H7          5.6831   -1.7979   -0.6374 H         1 <0>         0.1662
     33 H8          7.8161   -2.9892   -0.3390 H         1 <0>         0.1716
     34 H9          7.3622   -2.7568    3.8956 H         1 <0>         0.1553
     35 H10         3.3363   -2.6734    3.4029 H         1 <0>         0.1470
     36 H11         4.4481   -3.4121    4.5805 H         1 <0>         0.1257
     37 H12         1.9188   -3.6337    5.4841 H         1 <0>         0.4125
     38 H13         1.5255   -2.4431    6.6023 H         1 <0>         0.4178
     39 H14         5.3898   -0.9723    5.8994 H         1 <0>         0.4478
     40 H15         6.3717   -2.1460    5.2886 H         1 <0>         0.4284
     41 H16         6.6131   -0.5704    4.8713 H         1 <0>         0.4411
@<TRIPOS>BOND
     1    1    6 ar
     2    1    2 ar
     3    1   27 1
     4    2    3 ar
     5    2   28 1
     6    3    4 ar
     7    3   26 1
     8    4    5 ar
     9    4    8 1
    10    5    6 ar
    11    5    7 1
    12    6   29 1
    13    8    9 1
    14    8   30 1
    15    8   31 1
    16    9   10 1
    17   10   15 ar
    18   10   11 ar
    19   11   12 ar
    20   11   32 1
    21   12   13 ar
    22   12   33 1
    23   13   14 ar
    24   13   23 1
    25   14   15 ar
    26   14   34 1
    27   15   16 1
    28   16   17 1
    29   16   18 1
    30   16   22 1
    31   18   19 1
    32   18   35 1
    33   18   36 1
    34   19   20 2
    35   19   21 am
    36   21   37 1
    37   21   38 1
    38   22   39 1
    39   22   40 1
    40   22   41 1
    41   23   24 2
    42   23   25 1
@<TRIPOS>MOLECULE
ZINC61899659
   56    58     0     0     0
SMALL
USER_CHARGES

@<TRIPOS>ATOM
      1 C1          1.5158   -1.7593   -2.5426 C.3       1 <0>        -0.1524
      2 C2          0.7439   -1.5922   -1.2322 C.3       1 <0>        -0.0960
      3 C3          1.5412   -2.2209   -0.0871 C.3       1 <0>        -0.1346
      4 C4          0.7818   -2.0213    1.2283 C.3       1 <0>         0.0961
      5 N1         -0.5782   -2.5560    1.0751 N.pl3     1 <0>        -0.5796
      6 C5         -1.3997   -2.0856   -0.0486 C.3       1 <0>         0.1061
      7 C6         -0.6159   -2.2845   -1.3497 C.3       1 <0>        -0.1356
      8 C7         -1.0778   -3.4894    1.9757 C.ar      1 <0>         0.4495
      9 C8         -2.4076   -3.8893    1.8876 C.ar      1 <0>        -0.1975
     10 C9         -2.8915   -4.8187    2.7902 C.ar      1 <0>         0.0508
     11 C10        -2.0263   -5.3191    3.7545 C.ar      1 <0>        -0.1616
     12 C11        -0.7188   -4.8779    3.7840 C.ar      1 <0>         0.1655
     13 N2         -0.2828   -3.9939    2.9064 N.ar      1 <0>        -0.5081
     14 C12        -2.5103   -6.3331    4.7588 C.3       1 <0>         0.1653
     15 N3         -2.3037   -7.6829    4.2282 N.am      1 <0>        -0.7351
     16 C13        -2.6644   -8.7566    4.9587 C.2       1 <0>         0.5651
     17 O1         -3.1612   -8.6050    6.0576 O.2       1 <0>        -0.5180
     18 C14        -2.4559  -10.1189    4.4232 C.ar      1 <0>        -0.1351
     19 C15        -1.8805  -10.2966    3.1641 C.ar      1 <0>        -0.0888
     20 C16        -1.6883  -11.5704    2.6705 C.ar      1 <0>        -0.1065
     21 C17        -2.0650  -12.6704    3.4205 C.ar      1 <0>        -0.0747
     22 C18        -2.6364  -12.5011    4.6692 C.ar      1 <0>        -0.1024
     23 C19        -2.8284  -11.2329    5.1771 C.ar      1 <0>        -0.0553
     24 C20        -1.8525  -14.0589    2.8747 C.3       1 <0>         0.1724
     25 N4         -0.5297  -14.5441    3.2760 N.am      1 <0>        -0.7440
     26 C21        -0.1192  -15.7713    2.8992 C.2       1 <0>         0.7053
     27 O2         -0.8468  -16.4757    2.2262 O.2       1 <0>        -0.5891
     28 N5          1.0977  -16.2177    3.2683 N.am      1 <0>        -0.8657
     29 H1          0.9487   -1.3105   -3.3581 H         1 <0>         0.0644
     30 H2          2.4844   -1.2663   -2.4592 H         1 <0>         0.0629
     31 H3          1.6643   -2.8202   -2.7441 H         1 <0>         0.0577
     32 H4          0.5951   -0.5313   -1.0312 H         1 <0>         0.0813
     33 H5          1.6690   -3.2869   -0.2752 H         1 <0>         0.0744
     34 H6          2.5185   -1.7432   -0.0191 H         1 <0>         0.0952
     35 H7          1.2947   -2.5518    2.0305 H         1 <0>         0.0766
     36 H8          0.7321   -0.9582    1.4638 H         1 <0>         0.1039
     37 H9         -2.3261   -2.6586   -0.0889 H         1 <0>         0.1019
     38 H10        -1.6273   -1.0278    0.0828 H         1 <0>         0.0984
     39 H11        -1.1738   -1.8521   -2.1802 H         1 <0>         0.0966
     40 H12        -0.4677   -3.3499   -1.5259 H         1 <0>         0.0750
     41 H13        -3.0531   -3.4793    1.1250 H         1 <0>         0.1824
     42 H14        -3.9193   -5.1477    2.7464 H         1 <0>         0.1762
     43 H15        -0.0427   -5.2642    4.5324 H         1 <0>         0.2072
     44 H16        -1.9525   -6.2187    5.6883 H         1 <0>         0.0954
     45 H17        -3.5718   -6.1766    4.9505 H         1 <0>         0.1001
     46 H18        -1.9073   -7.8039    3.3513 H         1 <0>         0.4014
     47 H19        -1.5866   -9.4388    2.5774 H         1 <0>         0.1231
     48 H20        -1.2431  -11.7093    1.6964 H         1 <0>         0.1336
     49 H21        -2.9286  -13.3639    5.2495 H         1 <0>         0.1378
     50 H22        -3.2701  -11.1022    6.1540 H         1 <0>         0.1420
     51 H23        -2.6191  -14.7257    3.2693 H         1 <0>         0.0824
     52 H24        -1.9163  -14.0354    1.7869 H         1 <0>         0.0810
     53 H25         0.0508  -13.9822    3.8128 H         1 <0>         0.3976
     54 H26         1.6782  -15.6558    3.8051 H         1 <0>         0.3972
     55 H27         1.3932  -17.1009    2.9971 H         1 <0>         0.4183
     56 H28         0.6419   -3.7037    2.9469 H         1 <0>         0.4399
@<TRIPOS>BOND
     1    1    2 1
     2    1   29 1
     3    1   30 1
     4    1   31 1
     5    2    7 1
     6    2    3 1
     7    2   32 1
     8    3    4 1
     9    3   33 1
    10    3   34 1
    11    4    5 1
    12    4   35 1
    13    4   36 1
    14    5    6 1
    15    5    8 1
    16    6    7 1
    17    6   37 1
    18    6   38 1
    19    7   39 1
    20    7   40 1
    21    8   13 ar
    22    8    9 ar
    23    9   10 ar
    24    9   41 1
    25   10   11 ar
    26   10   42 1
    27   11   12 ar
    28   11   14 1
    29   12   13 ar
    30   12   43 1
    31   13   56 1
    32   14   15 1
    33   14   44 1
    34   14   45 1
    35   15   16 am
    36   15   46 1
    37   16   17 2
    38   16   18 1
    39   18   23 ar
    40   18   19 ar
    41   19   20 ar
    42   19   47 1
    43   20   21 ar
    44   20   48 1
    45   21   22 ar
    46   21   24 1
    47   22   23 ar
    48   22   49 1
    49   23   50 1
    50   24   25 1
    51   24   51 1
    52   24   52 1
    53   25   26 am
    54   25   53 1
    55   26   27 2
    56   26   28 am
    57   28   54 1
    58   28   55 1
@<TRIPOS>MOLECULE
ZINC67624121
   59    61     0     0     0
SMALL
USER_CHARGES

@<TRIPOS>ATOM
      1 C1         -2.1580    1.5667    1.1243 C.3       1 <0>        -0.1545
      2 C2         -2.2217    0.0382    1.1505 C.3       1 <0>        -0.1046
      3 C3         -1.6741   -0.4743    2.4856 C.3       1 <0>        -0.1421
      4 C4         -1.6666   -2.0045    2.4740 C.3       1 <0>        -0.0115
      5 N1         -0.8166   -2.4849    1.3780 N.4       1 <0>        -0.3778
      6 C5         -1.3757   -2.0574    0.0899 C.3       1 <0>        -0.0067
      7 C6         -1.3720   -0.5293    0.0098 C.3       1 <0>        -0.1435
      8 C7         -0.7502   -3.9518    1.4187 C.3       1 <0>        -0.0433
      9 C8         -0.0232   -4.3944    2.6901 C.3       1 <0>         0.0716
     10 H1         -0.5625   -4.0274    3.5634 H         1 <0>         0.1302
     11 C9          0.0410   -5.9224    2.7352 C.3       1 <0>         0.1128
     12 N2          0.6296   -6.3490    4.0071 N.am      1 <0>        -0.7461
     13 C10         0.7865   -7.6615    4.2704 C.2       1 <0>         0.7082
     14 O1          0.4395   -8.4914    3.4524 O.2       1 <0>        -0.5823
     15 N3          1.3281   -8.0540    5.4405 N.am      1 <0>        -0.7349
     16 C11         1.4986   -9.4806    5.7267 C.3       1 <0>         0.2060
     17 H2          0.6702  -10.0400    5.2920 H         1 <0>         0.1005
     18 C12         2.8165   -9.9682    5.1215 C.3       1 <0>        -0.1612
     19 C13         1.5213   -9.6945    7.2183 C.ar      1 <0>        -0.0874
     20 C14         2.1834   -8.7951    8.0337 C.ar      1 <0>        -0.1060
     21 C15         2.2078   -8.9834    9.4037 C.ar      1 <0>        -0.1001
     22 C16         1.5677  -10.0767    9.9607 C.ar      1 <0>         0.0821
     23 C17         0.9013  -10.9840    9.1387 C.ar      1 <0>         0.1031
     24 C18         0.8751  -10.7865    7.7680 C.ar      1 <0>        -0.1096
     25 N4          0.2591  -12.0888    9.7158 N.am      1 <0>        -0.6620
     26 C19         0.0263  -12.0891   11.0464 C.2       1 <0>         0.4898
     27 O2         -0.4995  -13.0473   11.5724 O.2       1 <0>        -0.5000
     28 C20         0.4231  -10.8938   11.8751 C.3       1 <0>         0.0504
     29 O3          1.5807  -10.2771   11.3057 O.3       1 <0>        -0.2994
     30 O4          1.3028   -3.8617    2.6905 O.3       1 <0>        -0.5508
     31 H3         -2.5414    1.9300    0.1709 H         1 <0>         0.0677
     32 H4         -2.7630    1.9695    1.9365 H         1 <0>         0.0677
     33 H5         -1.1241    1.8894    1.2469 H         1 <0>         0.0623
     34 H6         -3.2555   -0.2856    1.0308 H         1 <0>         0.0886
     35 H7         -0.6579   -0.1065    2.6276 H         1 <0>         0.0893
     36 H8         -2.3072   -0.1196    3.2990 H         1 <0>         0.1127
     37 H9         -1.2775   -2.3727    3.4232 H         1 <0>         0.1297
     38 H10        -2.6832   -2.3712    2.3322 H         1 <0>         0.1293
     39 H11        -0.7718   -2.4648   -0.7210 H         1 <0>         0.1308
     40 H12        -2.3985   -2.4230   -0.0010 H         1 <0>         0.1294
     41 H13        -1.7891   -0.2139   -0.9465 H         1 <0>         0.1134
     42 H14        -0.3495   -0.1626    0.1004 H         1 <0>         0.0888
     43 H15        -1.7603   -4.3614    1.4164 H         1 <0>         0.1444
     44 H16        -0.2088   -4.3154    0.5453 H         1 <0>         0.1398
     45 H17        -0.9655   -6.3311    2.6454 H         1 <0>         0.0862
     46 H18         0.6552   -6.2847    1.9109 H         1 <0>         0.0819
     47 H19         0.9065   -5.6869    4.6597 H         1 <0>         0.4024
     48 H20         1.6049   -7.3919    6.0931 H         1 <0>         0.3978
     49 H21         3.6449   -9.4088    5.5562 H         1 <0>         0.0616
     50 H22         2.9434  -11.0296    5.3344 H         1 <0>         0.0727
     51 H23         2.8001   -9.8135    4.0426 H         1 <0>         0.0664
     52 H24         2.6831   -7.9420    7.5990 H         1 <0>         0.1313
     53 H25         2.7257   -8.2788   10.0375 H         1 <0>         0.1442
     54 H26         0.3547  -11.4854    7.1300 H         1 <0>         0.1379
     55 H27        -0.0142  -12.8411    9.1679 H         1 <0>         0.4187
     56 H28        -0.3977  -10.1769   11.8940 H         1 <0>         0.1030
     57 H29         0.6466  -11.2156   12.8922 H         1 <0>         0.1506
     58 H30         1.8415   -4.1470    1.9398 H         1 <0>         0.3938
     59 H31         0.1123   -2.1052    1.4829 H         1 <0>         0.4267
@<TRIPOS>BOND
     1    1    2 1
     2    1   31 1
     3    1   32 1
     4    1   33 1
     5    2    7 1
     6    2    3 1
     7    2   34 1
     8    3    4 1
     9    3   35 1
    10    3   36 1
    11    4    5 1
    12    4   37 1
    13    4   38 1
    14    5    6 1
    15    5    8 1
    16    5   59 1
    17    6    7 1
    18    6   39 1
    19    6   40 1
    20    7   41 1
    21    7   42 1
    22    8    9 1
    23    8   43 1
    24    8   44 1
    25    9   10 1
    26    9   11 1
    27    9   30 1
    28   11   12 1
    29   11   45 1
    30   11   46 1
    31   12   13 am
    32   12   47 1
    33   13   14 2
    34   13   15 am
    35   15   16 1
    36   15   48 1
    37   16   17 1
    38   16   18 1
    39   16   19 1
    40   18   49 1
    41   18   50 1
    42   18   51 1
    43   19   24 ar
    44   19   20 ar
    45   20   21 ar
    46   20   52 1
    47   21   22 ar
    48   21   53 1
    49   22   29 1
    50   22   23 ar
    51   23   24 ar
    52   23   25 1
    53   24   54 1
    54   25   26 am
    55   25   55 1
    56   26   27 2
    57   26   28 1
    58   28   29 1
    59   28   56 1
    60   28   57 1
    61   30   58 1
@<TRIPOS>MOLECULE
ZINC09433382
   53    57     0     0     0
SMALL
USER_CHARGES
2-cyclopentyl-N-(5-methylisoxazol-3-yl)-1-oxo-3-(2-thienyl)-3,4-dihydroisoquinoline-4-carboxamide
@<TRIPOS>ATOM
      1 C1          0.6854   -1.5786    6.7937 C.3       1 <0>        -0.0757
      2 C2          0.1287   -1.8429    5.4184 C.2       1 <0>        -0.0209
      3 C3          0.3345   -1.1005    4.3068 C.2       1 <0>        -0.2264
      4 C4         -0.4042   -1.7781    3.3007 C.2       1 <0>         0.2561
      5 N1         -0.9573   -2.8082    3.8854 N.2       1 <0>        -0.3895
      6 O1         -0.6668   -2.8603    5.0580 O.3       1 <0>         0.0960
      7 N2         -0.5210   -1.4141    1.9591 N.am      1 <0>        -0.6252
      8 C5          0.1083   -0.3133    1.5023 C.2       1 <0>         0.5315
      9 O2          0.7761    0.3608    2.2575 O.2       1 <0>        -0.4832
     10 C6         -0.0179    0.0799    0.0530 C.3       1 <0>        -0.0726
     11 H1         -0.8971   -0.4003   -0.3764 H         1 <0>         0.1243
     12 C7         -0.1667    1.5752   -0.0474 C.ar      1 <0>        -0.0502
     13 C8         -1.4159    2.1575   -0.0709 C.ar      1 <0>        -0.1136
     14 C9         -1.5357    3.5338   -0.1561 C.ar      1 <0>        -0.0922
     15 C10        -0.4075    4.3333   -0.2096 C.ar      1 <0>        -0.1178
     16 C11         0.8492    3.7621   -0.1874 C.ar      1 <0>        -0.0578
     17 C12         0.9745    2.3766   -0.1114 C.ar      1 <0>        -0.1105
     18 C13         2.3053    1.7332   -0.1060 C.2       1 <0>         0.5746
     19 O3          3.3073    2.3956    0.0802 O.2       1 <0>        -0.5091
     20 N3          2.3955    0.4049   -0.3100 N.am      1 <0>        -0.5996
     21 C14         1.2257   -0.3767   -0.7053 C.3       1 <0>         0.2513
     22 H2          1.0582   -0.2531   -1.7753 H         1 <0>         0.1124
     23 C15         1.4797   -1.8323   -0.4090 C.2       1 <0>        -0.2025
     24 C16         1.2856   -2.9120   -1.2052 C.2       1 <0>        -0.1178
     25 C17         1.5957   -4.1681   -0.7187 C.2       1 <0>        -0.1661
     26 C18         2.0746   -4.2840    0.5440 C.2       1 <0>        -0.1650
     27 S1          2.1068   -2.5828    1.0845 S.3       1 <0>         0.0863
     28 C19         3.6858   -0.2662   -0.1335 C.3       1 <0>         0.1368
     29 C20         4.2187   -0.0201    1.2931 C.3       1 <0>        -0.1270
     30 C21         5.7487    0.1321    1.1060 C.3       1 <0>        -0.1192
     31 C22         5.8540    0.9144   -0.2267 C.3       1 <0>        -0.1159
     32 C23         4.7255    0.3279   -1.0998 C.3       1 <0>        -0.1243
     33 H3         -0.0072   -0.9478    7.3509 H         1 <0>         0.0898
     34 H4          0.8192   -2.5240    7.3194 H         1 <0>         0.0850
     35 H5          1.6469   -1.0727    6.7054 H         1 <0>         0.0930
     36 H6          0.9236   -0.2008    4.2074 H         1 <0>         0.1877
     37 H7         -1.0551   -1.9533    1.3550 H         1 <0>         0.4169
     38 H8         -2.3008    1.5400   -0.0256 H         1 <0>         0.1302
     39 H9         -2.5159    3.9868   -0.1781 H         1 <0>         0.1317
     40 H10        -0.5103    5.4067   -0.2693 H         1 <0>         0.1336
     41 H11         1.7301    4.3857   -0.2283 H         1 <0>         0.1393
     42 H12         0.8971   -2.7923   -2.2058 H         1 <0>         0.1396
     43 H13         1.4541   -5.0444   -1.3338 H         1 <0>         0.1387
     44 H14         2.3619   -5.1745    1.0834 H         1 <0>         0.1868
     45 H15         3.5775   -1.3359   -0.3131 H         1 <0>         0.0964
     46 H16         3.7923    0.8936    1.7072 H         1 <0>         0.0810
     47 H17         3.9958   -0.8717    1.9358 H         1 <0>         0.0644
     48 H18         6.2263   -0.8439    1.0197 H         1 <0>         0.0631
     49 H19         6.1830    0.7048    1.9254 H         1 <0>         0.0668
     50 H20         6.8245    0.7447   -0.6930 H         1 <0>         0.0593
     51 H21         5.6917    1.9789   -0.0580 H         1 <0>         0.0774
     52 H22         5.1225   -0.4536   -1.7477 H         1 <0>         0.0622
     53 H23         4.2701    1.1156   -1.7001 H         1 <0>         0.0703
@<TRIPOS>BOND
     1    1    2 1
     2    1   33 1
     3    1   34 1
     4    1   35 1
     5    2    6 1
     6    2    3 2
     7    3    4 1
     8    3   36 1
     9    4    5 2
    10    4    7 1
    11    5    6 1
    12    7    8 am
    13    7   37 1
    14    8    9 2
    15    8   10 1
    16   10   11 1
    17   10   21 1
    18   10   12 1
    19   12   17 ar
    20   12   13 ar
    21   13   14 ar
    22   13   38 1
    23   14   15 ar
    24   14   39 1
    25   15   16 ar
    26   15   40 1
    27   16   17 ar
    28   16   41 1
    29   17   18 1
    30   18   19 2
    31   18   20 am
    32   20   21 1
    33   20   28 1
    34   21   22 1
    35   21   23 1
    36   23   27 1
    37   23   24 2
    38   24   25 1
    39   24   42 1
    40   25   26 2
    41   25   43 1
    42   26   27 1
    43   26   44 1
    44   28   32 1
    45   28   29 1
    46   28   45 1
    47   29   30 1
    48   29   46 1
    49   29   47 1
    50   30   31 1
    51   30   48 1
    52   30   49 1
    53   31   32 1
    54   31   50 1
    55   31   51 1
    56   32   52 1
    57   32   53 1
@<TRIPOS>MOLECULE
ZINC13811020
   43    46     0     0     0
SMALL
USER_CHARGES
(1R)-7-bromo-2-(2-hydroxyethyl)-1-(2-methoxyphenyl)-1H-chromeno[2,3-c]pyrrole-3,9-dione
@<TRIPOS>ATOM
      1 C1         -1.6345    5.5479    0.6875 C.3       1 <0>         0.0307
      2 O1         -0.3252    5.0075    0.4991 O.3       1 <0>        -0.2970
      3 C2         -0.2276    3.6584    0.3674 C.ar      1 <0>         0.1639
      4 C3         -1.3688    2.8708    0.4189 C.ar      1 <0>        -0.2102
      5 C4         -1.2676    1.5004    0.2795 C.ar      1 <0>        -0.0690
      6 C5         -0.0290    0.9121    0.1001 C.ar      1 <0>        -0.1596
      7 C6          1.1095    1.6946    0.0484 C.ar      1 <0>        -0.0682
      8 C7          1.0130    3.0664    0.1816 C.ar      1 <0>        -0.1344
      9 C8          2.2544    3.9188    0.1247 C.3       1 <0>         0.2431
     10 H1          2.1296    4.8051    0.7468 H         1 <0>         0.1347
     11 C9          2.5434    4.3201   -1.2983 C.2       1 <0>        -0.2352
     12 C10         1.7845    5.0930   -2.2856 C.2       1 <0>         0.4466
     13 O2          0.6886    5.5588   -2.0281 O.2       1 <0>        -0.4194
     14 C11         2.4146    5.2793   -3.6075 C.ar      1 <0>        -0.2147
     15 C12         1.7804    5.9970   -4.6203 C.ar      1 <0>         0.0050
     16 C13         2.4050    6.1469   -5.8397 C.ar      1 <0>        -0.1258
     17 C14         3.6568    5.5857   -6.0566 C.ar      1 <0>        -0.0241
     18 C15         4.2926    4.8743   -5.0632 C.ar      1 <0>        -0.1300
     19 C16         3.6813    4.7101   -3.8234 C.ar      1 <0>         0.1733
     20 O3          4.2954    4.0145   -2.8442 O.3       1 <0>        -0.1982
     21 C17         3.7614    3.8175   -1.6228 C.2       1 <0>         0.0873
     22 C18         4.2950    3.0884   -0.4450 C.2       1 <0>         0.5745
     23 O4          5.3688    2.5213   -0.4067 O.2       1 <0>        -0.4907
     24 N1          3.4193    3.1462    0.5732 N.am      1 <0>        -0.5814
     25 C19         3.5966    2.5449    1.8973 C.3       1 <0>         0.1377
     26 C20         4.1772    3.5859    2.8565 C.3       1 <0>         0.0551
     27 O5          3.2348    4.6448    3.0375 O.3       1 <0>        -0.5686
     28 Br1         1.5553    7.1193   -7.2211 Br        1 <0>        -0.0274
     29 H2         -1.5704    6.6323    0.7782 H         1 <0>         0.1004
     30 H3         -2.2601    5.2912   -0.1674 H         1 <0>         0.0559
     31 H4         -2.0718    5.1327    1.5955 H         1 <0>         0.0534
     32 H5         -2.3359    3.3294    0.5634 H         1 <0>         0.1318
     33 H6         -2.1560    0.8873    0.3151 H         1 <0>         0.1271
     34 H7          0.0485   -0.1601   -0.0042 H         1 <0>         0.1264
     35 H8          2.0752    1.2331   -0.0958 H         1 <0>         0.1240
     36 H9          0.8068    6.4326   -4.4506 H         1 <0>         0.1550
     37 H10         4.1377    5.7090   -7.0157 H         1 <0>         0.1546
     38 H11         5.2661    4.4438   -5.2462 H         1 <0>         0.1580
     39 H12         2.6323    2.2025    2.2729 H         1 <0>         0.1006
     40 H13         4.2791    1.6983    1.8234 H         1 <0>         0.1109
     41 H14         4.3861    3.1172    3.8182 H         1 <0>         0.0665
     42 H15         5.1006    3.9885    2.4403 H         1 <0>         0.0537
     43 H16         3.5370    5.3423    3.6352 H         1 <0>         0.3834
@<TRIPOS>BOND
     1    1    2 1
     2    1   29 1
     3    1   30 1
     4    1   31 1
     5    2    3 1
     6    3    8 ar
     7    3    4 ar
     8    4    5 ar
     9    4   32 1
    10    5    6 ar
    11    5   33 1
    12    6    7 ar
    13    6   34 1
    14    7    8 ar
    15    7   35 1
    16    8    9 1
    17    9   10 1
    18    9   24 1
    19    9   11 1
    20   11   21 2
    21   11   12 1
    22   12   13 2
    23   12   14 1
    24   14   19 ar
    25   14   15 ar
    26   15   16 ar
    27   15   36 1
    28   16   17 ar
    29   16   28 1
    30   17   18 ar
    31   17   37 1
    32   18   19 ar
    33   18   38 1
    34   19   20 1
    35   20   21 1
    36   21   22 1
    37   22   23 2
    38   22   24 am
    39   24   25 1
    40   25   26 1
    41   25   39 1
    42   25   40 1
    43   26   27 1
    44   26   41 1
    45   26   42 1
    46   27   43 1
@<TRIPOS>MOLECULE
ZINC20219970
   43    45     0     0     0
SMALL
USER_CHARGES
5-(4-fluorophenyl)-2-methyl-N-(2-methylsulfanylphenyl)-1,1-dioxo-1,2,6-thiadiazine-3-carboxamide
@<TRIPOS>ATOM
      1 C1          2.3968    1.6451    0.5848 C.3       1 <0>         0.0648
      2 N1          1.1762    2.1884   -0.0162 N.pl3     1 <0>        -0.9278
      3 C2         -0.0186    1.4742   -0.0051 C.2       1 <0>         0.2129
      4 C3         -1.1959    2.1344   -0.0036 C.2       1 <0>        -0.2710
      5 C4         -1.2921    3.5910    0.0145 C.2       1 <0>         0.4121
      6 N2         -0.2905    4.3679   -0.2989 N.2       1 <0>        -0.9035
      7 S1          1.1583    3.6862   -0.7421 S.o2      1 <0>         2.6944
      8 O1          2.1826    4.4559   -0.1276 O.2       1 <0>        -0.9317
      9 O2          1.0995    3.4653   -2.1446 O.2       1 <0>        -0.9554
     10 C5         -2.5806    4.2141    0.3988 C.ar      1 <0>        -0.1118
     11 C6         -3.6724    3.4134    0.7338 C.ar      1 <0>        -0.0412
     12 C7         -4.8683    3.9977    1.0946 C.ar      1 <0>        -0.1633
     13 C8         -4.9890    5.3784    1.1158 C.ar      1 <0>         0.1419
     14 C9         -3.9081    6.1782    0.7790 C.ar      1 <0>        -0.1659
     15 C10        -2.7070    5.6029    0.4211 C.ar      1 <0>        -0.0148
     16 F1         -6.1639    5.9464    1.4653 F         1 <0>        -0.1289
     17 C11         0.0019   -0.0038   -0.0013 C.2       1 <0>         0.5573
     18 O3          1.0631   -0.5970   -0.0078 O.2       1 <0>        -0.4838
     19 N3         -1.1558   -0.6938    0.0094 N.am      1 <0>        -0.6581
     20 C12        -1.1402   -2.0888   -0.1039 C.ar      1 <0>         0.1670
     21 C13        -0.0741   -2.7246   -0.7226 C.ar      1 <0>        -0.1134
     22 C14        -0.0585   -4.1027   -0.8291 C.ar      1 <0>        -0.0986
     23 C15        -1.1088   -4.8514   -0.3296 C.ar      1 <0>        -0.1123
     24 C16        -2.1780   -4.2267    0.2838 C.ar      1 <0>        -0.1116
     25 C17        -2.2001   -2.8439    0.4002 C.ar      1 <0>        -0.1106
     26 S2         -3.5622   -2.0443    1.1813 S.3       1 <0>        -0.1311
     27 C18        -4.6577   -3.4093    1.6583 C.3       1 <0>        -0.1377
     28 H1          2.1871    0.6505    1.0052 H         1 <0>         0.1145
     29 H2          2.7415    2.3163    1.3852 H         1 <0>         0.0862
     30 H3          3.1782    1.5606   -0.1848 H         1 <0>         0.0795
     31 H4         -2.1415    1.5726   -0.0164 H         1 <0>         0.1757
     32 H5         -3.5805    2.3375    0.7136 H         1 <0>         0.1446
     33 H6         -5.7133    3.3785    1.3574 H         1 <0>         0.1486
     34 H7         -4.0069    7.2535    0.7966 H         1 <0>         0.1476
     35 H8         -1.8656    6.2268    0.1582 H         1 <0>         0.1545
     36 H9         -2.1130   -0.1606    0.1072 H         1 <0>         0.4377
     37 H10         0.7460   -2.1432   -1.1176 H         1 <0>         0.1510
     38 H11         0.7744   -4.5962   -1.3079 H         1 <0>         0.1321
     39 H12        -1.0934   -5.9275   -0.4196 H         1 <0>         0.1298
     40 H13        -2.9965   -4.8145    0.6723 H         1 <0>         0.1296
     41 H14        -5.5492   -3.0056    2.1605 H         1 <0>         0.1145
     42 H15        -4.1249   -4.0846    2.3439 H         1 <0>         0.0883
     43 H16        -4.9633   -3.9653    0.7597 H         1 <0>         0.0881
@<TRIPOS>BOND
     1    1    2 1
     2    1   28 1
     3    1   29 1
     4    1   30 1
     5    2    7 1
     6    2    3 1
     7    3    4 2
     8    3   17 1
     9    4    5 1
    10    4   31 1
    11    5    6 2
    12    5   10 1
    13    6    7 1
    14    7    8 2
    15    7    9 2
    16   10   15 ar
    17   10   11 ar
    18   11   12 ar
    19   11   32 1
    20   12   13 ar
    21   12   33 1
    22   13   14 ar
    23   13   16 1
    24   14   15 ar
    25   14   34 1
    26   15   35 1
    27   17   18 2
    28   17   19 am
    29   19   20 1
    30   19   36 1
    31   20   25 ar
    32   20   21 ar
    33   21   22 ar
    34   21   37 1
    35   22   23 ar
    36   22   38 1
    37   23   24 ar
    38   23   39 1
    39   24   25 ar
    40   24   40 1
    41   25   26 1
    42   26   27 1
    43   27   41 1
    44   27   42 1
    45   27   43 1
@<TRIPOS>MOLECULE
ZINC44449129
   42    45     0     0     0
SMALL
USER_CHARGES

@<TRIPOS>ATOM
      1 C1         -0.0165    1.3780    0.0240 C.ar      1 <0>        -0.0827
      2 C2          1.1693    2.0866    0.0165 C.ar      1 <0>        -0.1399
      3 C3          2.3813    1.4096   -0.0131 C.ar      1 <0>         0.1699
      4 C4          2.3975    0.0211   -0.0351 C.ar      1 <0>        -0.1296
      5 C5          1.2081   -0.6823   -0.0275 C.ar      1 <0>        -0.0636
      6 C6          0.0021   -0.0041    0.0020 C.ar      1 <0>        -0.1126
      7 Br1         1.2283   -2.5729   -0.0574 Br        1 <0>        -0.0408
      8 N1          3.5839    2.1248   -0.0212 N.am      1 <0>        -0.5571
      9 C7          4.9138    1.5098    0.0625 C.3       1 <0>         0.1077
     10 C8          5.9017    2.5976   -0.4140 C.3       1 <0>        -0.1145
     11 H1          6.0938    2.5087   -1.4832 H         1 <0>         0.1384
     12 C9          5.1198    3.8938   -0.0981 C.3       1 <0>        -0.1458
     13 C10         3.6697    3.4632   -0.1125 C.2       1 <0>         0.5231
     14 O1          2.7222    4.2162   -0.1922 O.2       1 <0>        -0.4946
     15 C11         7.1879    2.5384    0.3690 C.2       1 <0>         0.5281
     16 O2          7.3297    1.7067    1.2401 O.2       1 <0>        -0.4814
     17 N2          8.1807    3.4097    0.1012 N.am      1 <0>        -0.6015
     18 C12         9.3607    3.3553    0.8195 C.2       1 <0>         0.2471
     19 N3         10.4290    4.1270    0.6972 N.2       1 <0>        -0.5620
     20 C13        11.4925    3.9705    1.4471 C.2       1 <0>         0.1875
     21 C14        11.3943    2.9280    2.3775 C.2       1 <0>        -0.3954
     22 S1          9.7756    2.2948    2.0635 S.3       1 <0>         0.3398
     23 C15        12.3802    2.5652    3.2888 C.2       1 <0>         0.4416
     24 O3         12.2263    1.6316    4.0509 O.2       1 <0>        -0.4638
     25 C16        13.6571    3.3859    3.2897 C.3       1 <0>        -0.1549
     26 C17        13.9257    3.9092    1.8785 C.3       1 <0>        -0.1155
     27 C18        12.7727    4.7909    1.3898 C.3       1 <0>        -0.0493
     28 H2         -0.9591    1.9044    0.0515 H         1 <0>         0.1392
     29 H3          1.1538    3.1664    0.0333 H         1 <0>         0.1612
     30 H4          3.3385   -0.5083   -0.0585 H         1 <0>         0.1371
     31 H5         -0.9264   -0.5557    0.0083 H         1 <0>         0.1362
     32 H6          5.1336    1.2252    1.0915 H         1 <0>         0.1081
     33 H7          4.9683    0.6387   -0.5904 H         1 <0>         0.1023
     34 H8          5.3981    4.2775    0.8834 H         1 <0>         0.1195
     35 H9          5.2996    4.6448   -0.8674 H         1 <0>         0.1260
     36 H10         8.0672    4.0749   -0.5956 H         1 <0>         0.4306
     37 H11        13.5483    4.2268    3.9747 H         1 <0>         0.1044
     38 H12        14.4907    2.7610    3.6104 H         1 <0>         0.1014
     39 H13        14.8459    4.4935    1.8827 H         1 <0>         0.0896
     40 H14        14.0425    3.0644    1.1998 H         1 <0>         0.0724
     41 H15        12.9610    5.1080    0.3641 H         1 <0>         0.0960
     42 H16        12.6789    5.6648    2.0344 H         1 <0>         0.0979
@<TRIPOS>BOND
     1    1    6 ar
     2    1    2 ar
     3    1   28 1
     4    2    3 ar
     5    2   29 1
     6    3    4 ar
     7    3    8 1
     8    4    5 ar
     9    4   30 1
    10    5    6 ar
    11    5    7 1
    12    6   31 1
    13    8   13 am
    14    8    9 1
    15    9   10 1
    16    9   32 1
    17    9   33 1
    18   10   11 1
    19   10   12 1
    20   10   15 1
    21   12   13 1
    22   12   34 1
    23   12   35 1
    24   13   14 2
    25   15   16 2
    26   15   17 am
    27   17   18 1
    28   17   36 1
    29   18   22 1
    30   18   19 2
    31   19   20 1
    32   20   27 1
    33   20   21 2
    34   21   22 1
    35   21   23 1
    36   23   24 2
    37   23   25 1
    38   25   26 1
    39   25   37 1
    40   25   38 1
    41   26   27 1
    42   26   39 1
    43   26   40 1
    44   27   41 1
    45   27   42 1
@<TRIPOS>MOLECULE
ZINC64076534
   39    42     0     0     0
SMALL
USER_CHARGES

@<TRIPOS>ATOM
      1 C1         -0.0151    1.3954    0.0609 C.ar      1 <0>        -0.0327
      2 C2          1.1702    2.0961    0.0625 C.ar      1 <0>        -0.1601
      3 C3          2.3809    1.4183    0.0481 C.ar      1 <0>         0.1325
      4 C4          2.4072    0.0310    0.0316 C.ar      1 <0>        -0.1592
      5 C5          1.2301   -0.6834    0.0298 C.ar      1 <0>        -0.0480
      6 C6          0.0034   -0.0059    0.0447 C.ar      1 <0>        -0.0700
      7 C7         -1.2547   -0.7595    0.0434 C.2       1 <0>         0.1617
      8 N1         -2.4765   -0.2784    0.0502 N.2       1 <0>        -0.2960
      9 N2         -3.3896   -1.1686    0.0462 N.2       1 <0>        -0.2229
     10 C8         -2.9454   -2.3984    0.0360 C.2       1 <0>         0.0169
     11 C9         -1.4311   -2.2692    0.0271 C.3       1 <0>        -0.1436
     12 C10        -3.7360   -3.6330    0.0299 C.2       1 <0>         0.5997
     13 O1         -3.1766   -4.7137    0.0208 O.2       1 <0>        -0.4968
     14 N3         -5.0823   -3.5711    0.0342 N.am      1 <0>        -0.6479
     15 C11        -5.8372   -4.7454   -0.0670 C.ar      1 <0>         0.1762
     16 C12        -5.3807   -5.9175    0.5204 C.ar      1 <0>        -0.1105
     17 C13        -6.1286   -7.0802    0.4209 C.ar      1 <0>         0.0890
     18 C14        -7.3374   -7.0702   -0.2662 C.ar      1 <0>         0.0464
     19 C15        -7.7904   -5.8981   -0.8532 C.ar      1 <0>        -0.0643
     20 C16        -7.0467   -4.7376   -0.7504 C.ar      1 <0>        -0.1146
     21 Br1        -7.6723   -3.1405   -1.5465 Br        1 <0>        -0.0250
     22 O2         -8.0897   -8.2010   -0.3679 O.3       1 <0>        -0.3013
     23 C17        -7.4295   -9.4405   -0.0896 C.3       1 <0>         0.0193
     24 C18        -6.6167   -9.2728    1.2013 C.3       1 <0>         0.0184
     25 O3         -5.6653   -8.2224    0.9987 O.3       1 <0>        -0.2985
     26 F1          3.5399    2.1126    0.0498 F         1 <0>        -0.1300
     27 H1         -0.9567    1.9242    0.0766 H         1 <0>         0.1493
     28 H2          1.1575    3.1760    0.0746 H         1 <0>         0.1468
     29 H3          3.3534   -0.4897    0.0197 H         1 <0>         0.1469
     30 H4          1.2521   -1.7631    0.0169 H         1 <0>         0.1433
     31 H5         -1.0056   -2.7026   -0.8781 H         1 <0>         0.1575
     32 H6         -0.9963   -2.7231    0.9176 H         1 <0>         0.1571
     33 H7         -5.5281   -2.7127    0.1075 H         1 <0>         0.4263
     34 H8         -4.4422   -5.9235    1.0548 H         1 <0>         0.1625
     35 H9         -8.7281   -5.8914   -1.3889 H         1 <0>         0.1525
     36 H10        -8.1696  -10.2298    0.0419 H         1 <0>         0.1274
     37 H11        -6.7625   -9.6947   -0.9134 H         1 <0>         0.0814
     38 H12        -7.2828   -9.0119    2.0238 H         1 <0>         0.0825
     39 H13        -6.0951  -10.2021    1.4306 H         1 <0>         0.1276
@<TRIPOS>BOND
     1    1    6 ar
     2    1    2 ar
     3    1   27 1
     4    2    3 ar
     5    2   28 1
     6    3    4 ar
     7    3   26 1
     8    4    5 ar
     9    4   29 1
    10    5    6 ar
    11    5   30 1
    12    6    7 1
    13    7   11 1
    14    7    8 2
    15    8    9 1
    16    9   10 2
    17   10   11 1
    18   10   12 1
    19   11   31 1
    20   11   32 1
    21   12   13 2
    22   12   14 am
    23   14   15 1
    24   14   33 1
    25   15   20 ar
    26   15   16 ar
    27   16   17 ar
    28   16   34 1
    29   17   25 1
    30   17   18 ar
    31   18   19 ar
    32   18   22 1
    33   19   20 ar
    34   19   35 1
    35   20   21 1
    36   22   23 1
    37   23   24 1
    38   23   36 1
    39   23   37 1
    40   24   25 1
    41   24   38 1
    42   24   39 1
@<TRIPOS>MOLECULE
ZINC20188616
   38    39     0     0     0
SMALL
USER_CHARGES
4-(ethylaminomethyl)-N-(3-fluorophenyl)benzenesulfonamide
@<TRIPOS>ATOM
      1 C1          4.5981   -4.7276    6.1793 C.3       1 <0>        -0.1897
      2 C2          4.3890   -3.2120    6.1667 C.3       1 <0>        -0.0045
      3 N1          3.5900   -2.8377    4.9923 N.4       1 <0>        -0.5396
      4 C3          3.3687   -1.3862    4.9470 C.3       1 <0>         0.0507
      5 C4          2.5474   -1.0409    3.7316 C.ar      1 <0>        -0.1419
      6 C5          1.1677   -1.0155    3.8141 C.ar      1 <0>        -0.1185
      7 C6          0.4144   -0.6979    2.6994 C.ar      1 <0>        -0.0269
      8 C7          1.0408   -0.4052    1.5024 C.ar      1 <0>        -0.6167
      9 C8          2.4202   -0.4357    1.4185 C.ar      1 <0>        -0.0231
     10 C9          3.1737   -0.7490    2.5343 C.ar      1 <0>        -0.1201
     11 S1          0.0805   -0.0003    0.0816 S.o2      1 <0>         2.5694
     12 O1         -1.2379   -0.4649    0.3366 O.2       1 <0>        -1.0274
     13 O2          0.8311   -0.4210   -1.0493 O.2       1 <0>        -0.9866
     14 N2         -0.0065    1.6516    0.0039 N.2       1 <0>        -1.0493
     15 C10        -0.6332    2.3668    1.0269 C.ar      1 <0>         0.2459
     16 C11        -0.0329    3.5063    1.5483 C.ar      1 <0>        -0.1673
     17 C12        -0.6541    4.2120    2.5598 C.ar      1 <0>        -0.0766
     18 C13        -1.8732    3.7867    3.0545 C.ar      1 <0>        -0.2211
     19 C14        -2.4754    2.6517    2.5376 C.ar      1 <0>         0.1157
     20 C15        -1.8599    1.9435    1.5209 C.ar      1 <0>        -0.2523
     21 F1         -3.6667    2.2388    3.0228 F         1 <0>        -0.1532
     22 H1          5.1964   -5.0079    7.0588 H         1 <0>         0.1031
     23 H2          5.1266   -5.0324    5.2640 H         1 <0>         0.0797
     24 H3          3.6216   -5.2321    6.2242 H         1 <0>         0.0797
     25 H4          3.8605   -2.9072    7.0820 H         1 <0>         0.1259
     26 H5          5.3654   -2.7075    6.1218 H         1 <0>         0.1259
     27 H6          4.1184   -3.1427    4.0770 H         1 <0>         0.4489
     28 H7          2.8331   -1.0685    5.8538 H         1 <0>         0.1329
     29 H8          4.3380   -0.8690    4.8935 H         1 <0>         0.1329
     30 H9          0.6784   -1.2435    4.7495 H         1 <0>         0.1298
     31 H10        -0.6635   -0.6781    2.7639 H         1 <0>         0.1447
     32 H11         2.9094   -0.2113    0.4822 H         1 <0>         0.1445
     33 H12         4.2516   -0.7685    2.4700 H         1 <0>         0.1302
     34 H13         0.9189    3.8402    1.1624 H         1 <0>         0.1189
     35 H14        -0.1872    5.0977    2.9647 H         1 <0>         0.1176
     36 H15        -2.3569    4.3408    3.8454 H         1 <0>         0.1175
     37 H16        -2.3312    1.0610    1.1144 H         1 <0>         0.1519
     38 H17         2.6135   -3.3421    5.0372 H         1 <0>         0.4491
@<TRIPOS>BOND
     1    1    2 1
     2    1   22 1
     3    1   23 1
     4    1   24 1
     5    2    3 1
     6    2   25 1
     7    2   26 1
     8    3    4 1
     9    3   27 1
    10    3   38 1
    11    4    5 1
    12    4   28 1
    13    4   29 1
    14    5   10 ar
    15    5    6 ar
    16    6    7 ar
    17    6   30 1
    18    7    8 ar
    19    7   31 1
    20    8    9 ar
    21    8   11 1
    22    9   10 ar
    23    9   32 1
    24   10   33 1
    25   11   12 2
    26   11   13 2
    27   11   14 1
    28   14   15 1
    29   15   20 ar
    30   15   16 ar
    31   16   17 ar
    32   16   34 1
    33   17   18 ar
    34   17   35 1
    35   18   19 ar
    36   18   36 1
    37   19   20 ar
    38   19   21 1
    39   20   37 1
@<TRIPOS>MOLECULE
ZINC40330342
   41    42     0     0     0
SMALL
USER_CHARGES

@<TRIPOS>ATOM
      1 C1         -0.0187    1.5258    0.0104 C.3       1 <0>        -0.1589
      2 C2          0.0021   -0.0041    0.0020 C.3       1 <0>         0.2218
      3 H1          0.5123   -0.3556   -0.8948 H         1 <0>         0.1232
      4 C3         -1.4117   -0.5257    0.0127 C.2       1 <0>        -0.1573
      5 C4         -2.1573   -0.9923   -1.0187 C.2       1 <0>        -0.1457
      6 C5         -3.4466   -1.4250   -0.7719 C.2       1 <0>        -0.1565
      7 C6         -3.9274   -1.3700    0.4943 C.2       1 <0>        -0.1773
      8 S1         -2.5366   -0.6968    1.3885 S.3       1 <0>         0.0440
      9 N1          0.7106   -0.4894    1.1889 N.am      1 <0>        -0.6095
     10 C7          0.2181   -0.1495    2.5261 C.3       1 <0>         0.0625
     11 C8          1.8156   -1.2486    1.0506 C.2       1 <0>         0.5255
     12 O1          2.2234   -1.5300   -0.0564 O.2       1 <0>        -0.5350
     13 C9          2.5445   -1.7478    2.2715 C.3       1 <0>        -0.1386
     14 C10         3.7539   -2.5791    1.8390 C.3       1 <0>         0.0767
     15 O2          4.4451   -3.0525    2.9967 O.3       1 <0>        -0.3207
     16 C11         5.5525   -3.8134    2.7866 C.ar      1 <0>         0.0727
     17 C12         5.9665   -4.0923    1.4925 C.ar      1 <0>        -0.1558
     18 C13         7.0909   -4.8650    1.2782 C.ar      1 <0>        -0.1596
     19 C14         7.8072   -5.3627    2.3587 C.ar      1 <0>         0.1819
     20 C15         7.3921   -5.0829    3.6539 C.ar      1 <0>        -0.1602
     21 C16         6.2706   -4.3054    3.8664 C.ar      1 <0>        -0.1008
     22 N2          8.9464   -6.1461    2.1424 N.pl3     1 <0>        -0.8823
     23 H2          1.0039    1.9031    0.0027 H         1 <0>         0.0703
     24 H3         -0.5459    1.8868   -0.8726 H         1 <0>         0.0757
     25 H4         -0.5289    1.8773    0.9072 H         1 <0>         0.0641
     26 H5         -1.7501   -1.0251   -2.0185 H         1 <0>         0.1341
     27 H6         -4.0619   -1.8010   -1.5759 H         1 <0>         0.1344
     28 H7         -4.8985   -1.6616    0.8663 H         1 <0>         0.1851
     29 H8         -0.4859   -0.9122    2.8587 H         1 <0>         0.0670
     30 H9          1.0567   -0.1013    3.2208 H         1 <0>         0.0834
     31 H10        -0.2829    0.8180    2.4937 H         1 <0>         0.0793
     32 H11         2.8812   -0.8986    2.8662 H         1 <0>         0.1079
     33 H12         1.8733   -2.3658    2.8679 H         1 <0>         0.1073
     34 H13         3.4173   -3.4282    1.2443 H         1 <0>         0.0688
     35 H14         4.4251   -1.9611    1.2426 H         1 <0>         0.0692
     36 H15         5.4091   -3.7055    0.6522 H         1 <0>         0.1290
     37 H16         7.4129   -5.0824    0.2704 H         1 <0>         0.1226
     38 H17         7.9486   -5.4696    4.4949 H         1 <0>         0.1269
     39 H18         5.9503   -4.0837    4.8738 H         1 <0>         0.1303
     40 H19         9.2360   -6.3416    1.2375 H         1 <0>         0.3972
     41 H20         9.4465   -6.4936    2.8974 H         1 <0>         0.3974
@<TRIPOS>BOND
     1    1    2 1
     2    1   23 1
     3    1   24 1
     4    1   25 1
     5    2    3 1
     6    2    4 1
     7    2    9 1
     8    4    8 1
     9    4    5 2
    10    5    6 1
    11    5   26 1
    12    6    7 2
    13    6   27 1
    14    7    8 1
    15    7   28 1
    16    9   10 1
    17    9   11 am
    18   10   29 1
    19   10   30 1
    20   10   31 1
    21   11   12 2
    22   11   13 1
    23   13   14 1
    24   13   32 1
    25   13   33 1
    26   14   15 1
    27   14   34 1
    28   14   35 1
    29   15   16 1
    30   16   21 ar
    31   16   17 ar
    32   17   18 ar
    33   17   36 1
    34   18   19 ar
    35   18   37 1
    36   19   20 ar
    37   19   22 1
    38   20   21 ar
    39   20   38 1
    40   21   39 1
    41   22   40 1
    42   22   41 1
@<TRIPOS>MOLECULE
ZINC48545516
   33    34     0     0     0
SMALL
USER_CHARGES

@<TRIPOS>ATOM
      1 C1         -0.0187    1.5258    0.0104 C.3       1 <0>        -0.1670
      2 C2          0.0021   -0.0041    0.0020 C.3       1 <0>         0.1252
      3 N1          0.7106   -0.4894    1.1889 N.pl3     1 <0>        -0.6706
      4 C3          0.8582   -1.8552    1.4001 C.2       1 <0>         0.3519
      5 N2          0.4449   -2.8647    0.6594 N.2       1 <0>        -0.3730
      6 N3          0.7007   -4.1564    1.0578 N.2       1 <0>        -0.2749
      7 C4          1.3586   -4.3789    2.1794 C.2       1 <0>         0.0360
      8 S1          1.6655   -2.7121    2.7436 S.3       1 <0>        -0.0092
      9 S2          1.8173   -5.9106    2.9198 S.3       1 <0>         0.0734
     10 C5          1.1728   -7.1617    1.7752 C.3       1 <0>        -0.1493
     11 C6          1.5064   -8.5577    2.3051 C.3       1 <0>         0.1657
     12 H1          1.0499   -8.6929    3.2856 H         1 <0>         0.1266
     13 C7          0.9710   -9.5971    1.3542 C.ar      1 <0>        -0.1092
     14 C8          1.7945  -10.1352    0.3830 C.ar      1 <0>        -0.0960
     15 C9          1.3036  -11.0885   -0.4892 C.ar      1 <0>        -0.1095
     16 C10        -0.0113  -11.5045   -0.3909 C.ar      1 <0>        -0.1017
     17 C11        -0.8355  -10.9673    0.5796 C.ar      1 <0>        -0.1064
     18 C12        -0.3431  -10.0170    1.4567 C.ar      1 <0>        -0.0260
     19 Cl1        -1.3760   -9.3465    2.6802 Cl        1 <0>        -0.0601
     20 O1          2.9240   -8.6989    2.4161 O.3       1 <0>        -0.5399
     21 H2          1.0039    1.9031    0.0027 H         1 <0>         0.0653
     22 H3         -0.5459    1.8868   -0.8726 H         1 <0>         0.0826
     23 H4         -0.5289    1.8773    0.9072 H         1 <0>         0.0653
     24 H5         -1.0205   -0.3814    0.0098 H         1 <0>         0.0731
     25 H6          0.5123   -0.3556   -0.8948 H         1 <0>         0.0732
     26 H7          1.0768    0.1425    1.8273 H         1 <0>         0.4210
     27 H8          0.0915   -7.0540    1.6906 H         1 <0>         0.1107
     28 H9          1.6293   -7.0266    0.7947 H         1 <0>         0.1033
     29 H10         2.8216   -9.8104    0.3056 H         1 <0>         0.1342
     30 H11         1.9473  -11.5084   -1.2480 H         1 <0>         0.1337
     31 H12        -0.3944  -12.2491   -1.0729 H         1 <0>         0.1356
     32 H13        -1.8627  -11.2920    0.6561 H         1 <0>         0.1376
     33 H14         3.3968   -8.5908    1.5795 H         1 <0>         0.3785
@<TRIPOS>BOND
     1    1    2 1
     2    1   21 1
     3    1   22 1
     4    1   23 1
     5    2    3 1
     6    2   24 1
     7    2   25 1
     8    3    4 1
     9    3   26 1
    10    4    8 1
    11    4    5 2
    12    5    6 1
    13    6    7 2
    14    7    8 1
    15    7    9 1
    16    9   10 1
    17   10   11 1
    18   10   27 1
    19   10   28 1
    20   11   12 1
    21   11   13 1
    22   11   20 1
    23   13   18 ar
    24   13   14 ar
    25   14   15 ar
    26   14   29 1
    27   15   16 ar
    28   15   30 1
    29   16   17 ar
    30   16   31 1
    31   17   18 ar
    32   17   32 1
    33   18   19 1
    34   20   33 1
@<TRIPOS>MOLECULE
ZINC42572345
   45    46     0     0     0
SMALL
USER_CHARGES

@<TRIPOS>ATOM
      1 C1          1.4877    0.4371   -1.4349 C.3       1 <0>        -0.1642
      2 C2          0.5786   -0.4044   -0.5369 C.3       1 <0>         0.1137
      3 N1          1.3646   -0.9663    0.5643 N.am      1 <0>        -0.7258
      4 C3          0.7691   -1.7474    1.4872 C.2       1 <0>         0.5235
      5 O1         -0.4315   -1.9157    1.4557 O.2       1 <0>        -0.5292
      6 C4          1.5952   -2.4116    2.5584 C.3       1 <0>         0.1682
      7 C5          0.7130   -2.7072    3.7730 C.3       1 <0>        -0.1164
      8 C6          1.5517   -3.3816    4.8605 C.3       1 <0>        -0.1153
      9 C7          2.1306   -4.6906    4.3199 C.3       1 <0>        -0.1233
     10 C8          3.0128   -4.3950    3.1053 C.3       1 <0>        -0.1162
     11 C9          2.1741   -3.7206    2.0178 C.3       1 <0>        -0.1189
     12 N2          2.6888   -1.5208    2.9544 N.am      1 <0>        -0.7273
     13 C10         2.4159   -0.2959    3.4458 C.2       1 <0>         0.5099
     14 O2          1.2711    0.1033    3.4780 O.2       1 <0>        -0.5173
     15 C11         3.5331    0.5777    3.9553 C.3       1 <0>        -0.1330
     16 C12         2.9564    1.9044    4.4535 C.3       1 <0>        -0.0477
     17 C13         4.0737    2.7781    4.9629 C.2       1 <0>        -0.1221
     18 C14         4.4653    2.7151    6.2871 C.2       1 <0>        -0.1545
     19 C15         5.4737    3.5145    6.7131 C.2       1 <0>        -0.1695
     20 S1          5.9030    4.3946    5.2203 S.3       1 <0>         0.0303
     21 C16         4.7133    3.6334    4.1283 C.2       1 <0>        -0.1718
     22 H1          2.2818   -0.1909   -1.8387 H         1 <0>         0.0606
     23 H2          0.9029    0.8552   -2.2542 H         1 <0>         0.0752
     24 H3          1.9261    1.2467   -0.8514 H         1 <0>         0.0605
     25 H4         -0.2155    0.2237   -0.1331 H         1 <0>         0.0679
     26 H5          0.1402   -1.2140   -1.1204 H         1 <0>         0.0663
     27 H6          2.3135   -0.7761    0.6293 H         1 <0>         0.3962
     28 H7          0.3007   -1.7746    4.1581 H         1 <0>         0.0842
     29 H8         -0.1006   -3.3700    3.4784 H         1 <0>         0.0818
     30 H9          2.3654   -2.7188    5.1551 H         1 <0>         0.0611
     31 H10         0.9232   -3.5922    5.7258 H         1 <0>         0.0668
     32 H11         2.7281   -5.1711    5.0947 H         1 <0>         0.0655
     33 H12         1.3169   -5.3534    4.0253 H         1 <0>         0.0657
     34 H13         3.8264   -3.7322    3.3999 H         1 <0>         0.0638
     35 H14         3.4251   -5.3276    2.7202 H         1 <0>         0.0721
     36 H15         1.3604   -4.3834    1.7232 H         1 <0>         0.0875
     37 H16         2.8026   -3.5100    1.1525 H         1 <0>         0.0739
     38 H17         3.6094   -1.8126    2.8629 H         1 <0>         0.4036
     39 H18         4.0441    0.0729    4.7752 H         1 <0>         0.0964
     40 H19         4.2411    0.7693    3.1490 H         1 <0>         0.0946
     41 H20         2.4455    2.4092    3.6336 H         1 <0>         0.0795
     42 H21         2.2484    1.7129    5.2598 H         1 <0>         0.0798
     43 H22         3.9750    2.0392    6.9721 H         1 <0>         0.1338
     44 H23         5.9051    3.5977    7.6996 H         1 <0>         0.1857
     45 H24         4.5459    3.8095    3.0760 H         1 <0>         0.1842
@<TRIPOS>BOND
     1    1    2 1
     2    1   22 1
     3    1   23 1
     4    1   24 1
     5    2    3 1
     6    2   25 1
     7    2   26 1
     8    3    4 am
     9    3   27 1
    10    4    5 2
    11    4    6 1
    12    6   11 1
    13    6    7 1
    14    6   12 1
    15    7    8 1
    16    7   28 1
    17    7   29 1
    18    8    9 1
    19    8   30 1
    20    8   31 1
    21    9   10 1
    22    9   32 1
    23    9   33 1
    24   10   11 1
    25   10   34 1
    26   10   35 1
    27   11   36 1
    28   11   37 1
    29   12   13 am
    30   12   38 1
    31   13   14 2
    32   13   15 1
    33   15   16 1
    34   15   39 1
    35   15   40 1
    36   16   17 1
    37   16   41 1
    38   16   42 1
    39   17   21 2
    40   17   18 1
    41   18   19 2
    42   18   43 1
    43   19   20 1
    44   19   44 1
    45   20   21 1
    46   21   45 1
@<TRIPOS>MOLECULE
ZINC67413462
   45    46     0     0     0
SMALL
USER_CHARGES

@<TRIPOS>ATOM
      1 C1         -0.0187    1.5258    0.0104 C.3       1 <0>        -0.1452
      2 C2          0.0021   -0.0041    0.0020 C.3       1 <0>        -0.0336
      3 C3          0.7421   -0.5109    1.2415 C.3       1 <0>        -0.1452
      4 C4         -1.4333   -0.5336    0.0129 C.3       1 <0>        -0.1296
      5 S1          0.8511   -0.5891   -1.4904 S.3       1 <0>        -0.2297
      6 C5          2.5167    0.1163   -1.3528 C.3       1 <0>        -0.1063
      7 C6          3.3506   -0.3047   -2.5645 C.3       1 <0>         0.1575
      8 N1          4.6957    0.2649   -2.4533 N.am      1 <0>        -0.7460
      9 C7          5.6103    0.0259   -3.4140 C.2       1 <0>         0.7079
     10 O1          5.3190   -0.6626   -4.3729 O.2       1 <0>        -0.5862
     11 N2          6.8478    0.5499   -3.3117 N.am      1 <0>        -0.7342
     12 C8          7.8419    0.2901   -4.3559 C.3       1 <0>         0.1914
     13 C9          9.1325    0.9844   -4.0047 C.ar      1 <0>        -0.0882
     14 C10         9.4472    2.1752   -4.5840 C.ar      1 <0>        -0.0764
     15 C11        10.6349    2.8340   -4.2737 C.ar      1 <0>        -0.1185
     16 C12        11.5153    2.3036   -3.3805 C.ar      1 <0>        -0.0865
     17 C13        11.2232    1.0769   -2.7633 C.ar      1 <0>        -0.1065
     18 C14        10.0132    0.4076   -3.0734 C.ar      1 <0>         0.1382
     19 N3          9.7285   -0.7586   -2.4851 N.ar      1 <0>        -0.4681
     20 C15        10.5465   -1.3011   -1.6163 C.ar      1 <0>         0.1353
     21 C16        11.7493   -0.6930   -1.2627 C.ar      1 <0>        -0.1751
     22 C17        12.1068    0.4945   -1.8350 C.ar      1 <0>        -0.0553
     23 H1          1.0039    1.9031    0.0027 H         1 <0>         0.0550
     24 H2         -0.5459    1.8868   -0.8726 H         1 <0>         0.0693
     25 H3         -0.5289    1.8773    0.9072 H         1 <0>         0.0665
     26 H4          0.2319   -0.1594    2.1383 H         1 <0>         0.0665
     27 H5          0.7568   -1.6008    1.2356 H         1 <0>         0.0694
     28 H6          1.7647   -0.1336    1.2338 H         1 <0>         0.0551
     29 H7         -1.9605   -0.1726   -0.8702 H         1 <0>         0.0663
     30 H8         -1.4185   -1.6235    0.0069 H         1 <0>         0.0663
     31 H9         -1.9435   -0.1821    0.9097 H         1 <0>         0.0727
     32 H10         2.4491    1.2036   -1.3183 H         1 <0>         0.0872
     33 H11         2.9911   -0.2473   -0.4412 H         1 <0>         0.0873
     34 H12         3.4182   -1.3921   -2.5990 H         1 <0>         0.0767
     35 H13         2.8763    0.0589   -3.4760 H         1 <0>         0.0766
     36 H14         4.9281    0.8142   -1.6883 H         1 <0>         0.3950
     37 H15         7.0802    1.0992   -2.5467 H         1 <0>         0.3944
     38 H16         8.0160   -0.7832   -4.4328 H         1 <0>         0.0840
     39 H17         7.4741    0.6678   -5.3099 H         1 <0>         0.0744
     40 H18         8.7653    2.6163   -5.2959 H         1 <0>         0.1341
     41 H19        10.8604    3.7777   -4.7480 H         1 <0>         0.1320
     42 H20        12.4332    2.8233   -3.1486 H         1 <0>         0.1325
     43 H21        10.2809   -2.2443   -1.1622 H         1 <0>         0.1600
     44 H22        12.4023   -1.1646   -0.5433 H         1 <0>         0.1390
     45 H23        13.0358    0.9792   -1.5734 H         1 <0>         0.1399
@<TRIPOS>BOND
     1    1    2 1
     2    1   23 1
     3    1   24 1
     4    1   25 1
     5    2    3 1
     6    2    4 1
     7    2    5 1
     8    3   26 1
     9    3   27 1
    10    3   28 1
    11    4   29 1
    12    4   30 1
    13    4   31 1
    14    5    6 1
    15    6    7 1
    16    6   32 1
    17    6   33 1
    18    7    8 1
    19    7   34 1
    20    7   35 1
    21    8    9 am
    22    8   36 1
    23    9   10 2
    24    9   11 am
    25   11   12 1
    26   11   37 1
    27   12   13 1
    28   12   38 1
    29   12   39 1
    30   13   18 ar
    31   13   14 ar
    32   14   15 ar
    33   14   40 1
    34   15   16 ar
    35   15   41 1
    36   16   17 ar
    37   16   42 1
    38   17   22 ar
    39   17   18 ar
    40   18   19 ar
    41   19   20 ar
    42   20   21 ar
    43   20   43 1
    44   21   22 ar
    45   21   44 1
    46   22   45 1
@<TRIPOS>MOLECULE
ZINC20341719
   46    47     0     0     0
SMALL
USER_CHARGES
5-ethyl-2-[[2-[(2R)-2-ethyl-1-piperidyl]acetyl]amino]thiophene-3-carboxylic acid
@<TRIPOS>ATOM
      1 C1          7.5052    2.2096    3.7223 C.3       1 <0>        -0.1500
      2 C2          6.5141    3.0689    4.5098 C.3       1 <0>        -0.0347
      3 C3          5.2003    2.3401    4.6275 C.2       1 <0>        -0.2005
      4 C4          4.8007    1.4910    5.5908 C.2       1 <0>        -0.0887
      5 C5          3.4772    0.9275    5.4657 C.2       1 <0>        -0.1713
      6 C6          2.7385    1.3091    4.3506 C.2       1 <0>         0.0365
      7 S1          3.8038    2.3953    3.5239 S.3       1 <0>         0.1444
      8 N1          1.4578    0.9191    3.9914 N.am      1 <0>        -0.5825
      9 C7          0.8968    1.4031    2.8656 C.2       1 <0>         0.4828
     10 O1          1.5126    2.1799    2.1668 O.2       1 <0>        -0.5235
     11 C8         -0.4955    0.9791    2.4751 C.3       1 <0>        -0.0277
     12 N2         -0.8748    1.6407    1.2195 N.4       1 <0>        -0.3750
     13 C9         -0.0067    1.2118    0.1156 C.3       1 <0>        -0.0198
     14 C10        -0.5195    1.8055   -1.1984 C.3       1 <0>        -0.1390
     15 C11        -0.5269    3.3332   -1.0940 C.3       1 <0>        -0.1382
     16 C12        -1.3990    3.7516    0.0929 C.3       1 <0>        -0.1339
     17 C13        -0.8607    3.1014    1.3695 C.3       1 <0>         0.0094
     18 H1          0.1831    3.4010    1.5449 H         1 <0>         0.1646
     19 C14        -1.7414    3.5005    2.5553 C.3       1 <0>        -0.1456
     20 C15        -1.6587    5.0137    2.7654 C.3       1 <0>        -0.1549
     21 C16         2.9405   -0.0023    6.4616 C.2       1 <0>         0.5090
     22 O2          1.8224   -0.4613    6.3248 O.co2     1 <0>        -0.6482
     23 O3          3.6860   -0.3497    7.5307 O.co2     1 <0>        -0.7320
     24 H2          8.4642    2.7416    3.6364 H         1 <0>         0.0611
     25 H3          7.1031    2.0140    2.7173 H         1 <0>         0.0544
     26 H4          7.6609    1.2555    4.2471 H         1 <0>         0.0607
     27 H5          6.9162    3.2645    5.5148 H         1 <0>         0.0852
     28 H6          6.3584    4.0231    3.9851 H         1 <0>         0.0734
     29 H7          5.4411    1.2441    6.4246 H         1 <0>         0.1455
     30 H8          0.8993    0.2146    4.6252 H         1 <0>         0.4671
     31 H9         -0.5214   -0.1119    2.3371 H         1 <0>         0.1630
     32 H10        -1.2019    1.2652    3.2683 H         1 <0>         0.1637
     33 H11         1.0200    1.5613    0.2994 H         1 <0>         0.1488
     34 H12        -0.0138    0.1138    0.0489 H         1 <0>         0.1252
     35 H13         0.1398    1.4957   -2.0227 H         1 <0>         0.1087
     36 H14        -1.5407    1.4443   -1.3901 H         1 <0>         0.0830
     37 H15         0.5008    3.6954   -0.9432 H         1 <0>         0.0836
     38 H16        -0.9345    3.7621   -2.0213 H         1 <0>         0.0895
     39 H17        -1.3741    4.8463    0.1983 H         1 <0>         0.1100
     40 H18        -2.4346    3.4233   -0.0793 H         1 <0>         0.0834
     41 H19        -2.7838    3.2152    2.3502 H         1 <0>         0.0847
     42 H20        -1.3917    2.9848    3.4618 H         1 <0>         0.0818
     43 H21        -2.2919    5.3006    3.6179 H         1 <0>         0.0743
     44 H22        -2.0085    5.5294    1.8589 H         1 <0>         0.0670
     45 H23        -0.6163    5.2990    2.9704 H         1 <0>         0.0678
     46 H24        -1.9035    1.3388    0.9735 H         1 <0>         0.4369
@<TRIPOS>BOND
     1    1    2 1
     2    1   24 1
     3    1   25 1
     4    1   26 1
     5    2    3 1
     6    2   27 1
     7    2   28 1
     8    3    7 1
     9    3    4 2
    10    4    5 1
    11    4   29 1
    12    5    6 2
    13    5   21 1
    14    6    7 1
    15    6    8 1
    16    8    9 am
    17    8   30 1
    18    9   10 2
    19    9   11 1
    20   11   12 1
    21   11   31 1
    22   11   32 1
    23   12   17 1
    24   12   13 1
    25   12   46 1
    26   13   14 1
    27   13   33 1
    28   13   34 1
    29   14   15 1
    30   14   35 1
    31   14   36 1
    32   15   16 1
    33   15   37 1
    34   15   38 1
    35   16   17 1
    36   16   39 1
    37   16   40 1
    38   17   18 1
    39   17   19 1
    40   19   20 1
    41   19   41 1
    42   19   42 1
    43   20   43 1
    44   20   44 1
    45   20   45 1
    46   21   22 2
    47   21   23 1
@<TRIPOS>MOLECULE
ZINC18149597
   44    45     0     0     0
SMALL
USER_CHARGES

@<TRIPOS>ATOM
      1 C1         -0.0187    1.5258    0.0104 C.3       1 <0>        -0.1509
      2 C2          0.0021   -0.0041    0.0020 C.3       1 <0>        -0.1365
      3 C3          0.7421   -0.5109    1.2415 C.3       1 <0>         0.1167
      4 N1          0.7619   -1.9757    1.2335 N.am      1 <0>        -0.7258
      5 C4          1.3642   -2.6470    2.2350 C.2       1 <0>         0.5110
      6 O1          1.8898   -2.0384    3.1429 O.2       1 <0>        -0.5297
      7 C5          1.3847   -4.1539    2.2267 C.3       1 <0>         0.1244
      8 H1          0.3621   -4.5312    2.2345 H         1 <0>         0.1170
      9 C6          2.1008   -4.6473    0.9679 C.3       1 <0>        -0.1601
     10 N2          2.0932   -4.6392    3.4136 N.am      1 <0>        -0.6969
     11 C7          1.8287   -5.8675    3.9010 C.2       1 <0>         0.5972
     12 O2          1.0017   -6.5732    3.3556 O.2       1 <0>        -0.5361
     13 C8          2.5412   -6.3555    5.0945 C.2       1 <0>        -0.0115
     14 C9          2.2835   -7.6044    5.5948 C.2       1 <0>        -0.1988
     15 S1          3.3194   -7.6867    6.9188 S.3       1 <0>         0.1723
     16 C10         4.0566   -6.0692    6.7655 C.2       1 <0>         0.1171
     17 N3          3.4447   -5.5942    5.6960 N.2       1 <0>        -0.4583
     18 C11         5.0873   -5.4296    7.6119 C.ar      1 <0>        -0.0247
     19 C12         5.5300   -4.1387    7.3216 C.ar      1 <0>        -0.0649
     20 C13         6.4913   -3.5474    8.1153 C.ar      1 <0>        -0.1208
     21 C14         7.0165   -4.2319    9.1968 C.ar      1 <0>        -0.0641
     22 C15         6.5821   -5.5124    9.4897 C.ar      1 <0>        -0.1188
     23 C16         5.6168   -6.1124    8.7074 C.ar      1 <0>        -0.0883
     24 C17         8.0665   -3.5802   10.0592 C.3       1 <0>        -0.1209
     25 H2          1.0039    1.9031    0.0027 H         1 <0>         0.0586
     26 H3         -0.5459    1.8868   -0.8726 H         1 <0>         0.0617
     27 H4         -0.5289    1.8773    0.9072 H         1 <0>         0.0585
     28 H5         -1.0205   -0.3814    0.0098 H         1 <0>         0.0699
     29 H6          0.5123   -0.3556   -0.8948 H         1 <0>         0.0700
     30 H7          1.7647   -0.1336    1.2338 H         1 <0>         0.0702
     31 H8          0.2319   -0.1594    2.1383 H         1 <0>         0.0696
     32 H9          0.3416   -2.4625    0.5073 H         1 <0>         0.4034
     33 H10         1.5736   -4.2862    0.0849 H         1 <0>         0.0732
     34 H11         3.1234   -4.2700    0.9602 H         1 <0>         0.0656
     35 H12         2.1156   -5.7372    0.9619 H         1 <0>         0.0767
     36 H13         2.7528   -4.0764    3.8486 H         1 <0>         0.4200
     37 H14         1.5899   -8.3484    5.2317 H         1 <0>         0.2107
     38 H15         5.1213   -3.6035    6.4772 H         1 <0>         0.1363
     39 H16         6.8348   -2.5482    7.8916 H         1 <0>         0.1314
     40 H17         6.9962   -6.0417   10.3351 H         1 <0>         0.1318
     41 H18         5.2753   -7.1103    8.9397 H         1 <0>         0.1277
     42 H19         7.5836   -3.0351   10.8701 H         1 <0>         0.0757
     43 H20         8.7213   -4.3458   10.4754 H         1 <0>         0.0701
     44 H21         8.6542   -2.8884    9.4557 H         1 <0>         0.0702
@<TRIPOS>BOND
     1    1    2 1
     2    1   25 1
     3    1   26 1
     4    1   27 1
     5    2    3 1
     6    2   28 1
     7    2   29 1
     8    3    4 1
     9    3   30 1
    10    3   31 1
    11    4    5 am
    12    4   32 1
    13    5    6 2
    14    5    7 1
    15    7    8 1
    16    7    9 1
    17    7   10 1
    18    9   33 1
    19    9   34 1
    20    9   35 1
    21   10   11 am
    22   10   36 1
    23   11   12 2
    24   11   13 1
    25   13   17 1
    26   13   14 2
    27   14   15 1
    28   14   37 1
    29   15   16 1
    30   16   17 2
    31   16   18 1
    32   18   23 ar
    33   18   19 ar
    34   19   20 ar
    35   19   38 1
    36   20   21 ar
    37   20   39 1
    38   21   22 ar
    39   21   24 1
    40   22   23 ar
    41   22   40 1
    42   23   41 1
    43   24   42 1
    44   24   43 1
    45   24   44 1
@<TRIPOS>MOLECULE
ZINC47283746
   46    47     0     0     0
SMALL
USER_CHARGES

@<TRIPOS>ATOM
      1 C1         -0.0187    1.5258    0.0104 C.3       1 <0>        -0.1400
      2 C2          0.0021   -0.0041    0.0020 C.3       1 <0>        -0.0350
      3 C3          0.7421   -0.5109    1.2415 C.3       1 <0>        -0.1400
      4 C4         -1.4333   -0.5336    0.0129 C.3       1 <0>        -0.1477
      5 C5          0.7074   -0.4901   -1.2379 C.ar      1 <0>        -0.0401
      6 C6          0.0326   -1.2849   -2.1473 C.ar      1 <0>        -0.1291
      7 C7          0.6725   -1.7332   -3.2844 C.ar      1 <0>        -0.0542
      8 C8          2.0036   -1.3831   -3.5162 C.ar      1 <0>        -0.1435
      9 C9          2.6786   -0.5810   -2.5947 C.ar      1 <0>        -0.0823
     10 C10         2.0253   -0.1348   -1.4645 C.ar      1 <0>        -0.1235
     11 C11         2.6958   -1.8603   -4.7324 C.2       1 <0>         0.5626
     12 O1          2.1056   -2.5591   -5.5330 O.2       1 <0>        -0.5324
     13 N1          3.9811   -1.5206   -4.9534 N.am      1 <0>        -0.7243
     14 C12         4.6670   -1.9935   -6.1584 C.3       1 <0>         0.1054
     15 C13         6.1044   -1.4694   -6.1660 C.3       1 <0>         0.1199
     16 N2          6.7903   -1.9422   -7.3711 N.pl3     1 <0>        -0.7120
     17 C14         8.1102   -1.5934   -7.5980 C.ar      1 <0>         0.4500
     18 C15         8.7631   -2.0444   -8.7585 C.ar      1 <0>        -0.1526
     19 C16        10.0975   -1.6782   -8.9662 C.ar      1 <0>         0.0197
     20 C17        10.7173   -0.8852   -8.0159 C.ar      1 <0>        -0.2334
     21 C18        10.0089   -0.4807   -6.8993 C.ar      1 <0>         0.1838
     22 N3          8.7496   -0.8324   -6.7240 N.ar      1 <0>        -0.5383
     23 C19         8.0752   -2.8638   -9.7103 C.1       1 <0>         0.2534
     24 N4          7.5295   -3.5139  -10.4654 N.1       1 <0>        -0.4128
     25 H1          1.0039    1.9031    0.0027 H         1 <0>         0.0583
     26 H2         -0.5459    1.8868   -0.8726 H         1 <0>         0.0577
     27 H3         -0.5289    1.8773    0.9072 H         1 <0>         0.0617
     28 H4          0.2319   -0.1594    2.1383 H         1 <0>         0.0617
     29 H5          0.7568   -1.6008    1.2356 H         1 <0>         0.0577
     30 H6          1.7647   -0.1336    1.2338 H         1 <0>         0.0583
     31 H7         -1.9605   -0.1726   -0.8702 H         1 <0>         0.0604
     32 H8         -1.4185   -1.6235    0.0069 H         1 <0>         0.0604
     33 H9         -1.9435   -0.1821    0.9097 H         1 <0>         0.0613
     34 H10        -0.9973   -1.5553   -1.9666 H         1 <0>         0.1353
     35 H11         0.1447   -2.3538   -3.9933 H         1 <0>         0.1360
     36 H12         3.7086   -0.3067   -2.7683 H         1 <0>         0.1255
     37 H13         2.5451    0.4895   -0.7528 H         1 <0>         0.1291
     38 H14         4.4521   -0.9630   -4.3145 H         1 <0>         0.4033
     39 H15         4.6776   -3.0834   -6.1664 H         1 <0>         0.0766
     40 H16         4.1426   -1.6287   -7.0417 H         1 <0>         0.0766
     41 H17         6.0938   -0.3795   -6.1580 H         1 <0>         0.0791
     42 H18         6.6288   -1.8341   -5.2828 H         1 <0>         0.0791
     43 H19         6.3193   -2.4998   -8.0099 H         1 <0>         0.4122
     44 H20        10.6308   -2.0065   -9.8461 H         1 <0>         0.1444
     45 H21        11.7466   -0.5849   -8.1454 H         1 <0>         0.1450
     46 H22        10.4944    0.1377   -6.1589 H         1 <0>         0.1665
@<TRIPOS>BOND
     1    1    2 1
     2    1   25 1
     3    1   26 1
     4    1   27 1
     5    2    3 1
     6    2    4 1
     7    2    5 1
     8    3   28 1
     9    3   29 1
    10    3   30 1
    11    4   31 1
    12    4   32 1
    13    4   33 1
    14    5   10 ar
    15    5    6 ar
    16    6    7 ar
    17    6   34 1
    18    7    8 ar
    19    7   35 1
    20    8    9 ar
    21    8   11 1
    22    9   10 ar
    23    9   36 1
    24   10   37 1
    25   11   12 2
    26   11   13 am
    27   13   14 1
    28   13   38 1
    29   14   15 1
    30   14   39 1
    31   14   40 1
    32   15   16 1
    33   15   41 1
    34   15   42 1
    35   16   17 1
    36   16   43 1
    37   17   22 ar
    38   17   18 ar
    39   18   19 ar
    40   18   23 1
    41   19   20 ar
    42   19   44 1
    43   20   21 ar
    44   20   45 1
    45   21   22 ar
    46   21   46 1
    47   23   24 3
@<TRIPOS>MOLECULE
ZINC66111005
   48    50     0     0     0
SMALL
USER_CHARGES

@<TRIPOS>ATOM
      1 C1         -0.4270    1.0924   -0.5852 C.3       1 <0>        -0.1073
      2 C2         -0.2992   -0.4066   -0.4985 C.ar      1 <0>        -0.1833
      3 C3         -0.3114   -1.1738   -1.6552 C.ar      1 <0>         0.2336
      4 C4         -0.1934   -2.5557   -1.5716 C.ar      1 <0>        -0.2088
      5 C5         -0.0641   -3.1661   -0.3387 C.ar      1 <0>        -0.0589
      6 C6         -0.0517   -2.4052    0.8142 C.ar      1 <0>        -0.1712
      7 C7         -0.1635   -1.0223    0.7371 C.ar      1 <0>         0.1889
      8 N1         -0.1449   -0.2521    1.9051 N.am      1 <0>        -0.6682
      9 C8         -0.6974   -0.7313    3.0372 C.2       1 <0>         0.5437
     10 O1         -1.1436   -1.8588    3.0642 O.2       1 <0>        -0.5153
     11 C9         -0.7608    0.1338    4.2695 C.3       1 <0>        -0.1995
     12 C10         0.1153   -0.2653    5.4587 C.3       1 <0>        -0.1506
     13 C11        -1.3999   -0.4676    5.5228 C.3       1 <0>        -0.1444
     14 N2         -0.4425   -0.5574   -2.9016 N.pl3     1 <0>        -0.7368
     15 C12        -0.4553   -1.3679   -4.1219 C.3       1 <0>         0.1110
     16 C13        -0.6065   -0.4680   -5.3212 C.2       1 <0>         0.5114
     17 O2         -0.6950    0.7323   -5.1713 O.2       1 <0>        -0.5161
     18 N3         -0.6435   -0.9969   -6.5603 N.am      1 <0>        -0.5697
     19 C14        -0.6521   -2.4513   -6.7359 C.3       1 <0>         0.0711
     20 C15        -0.6738   -0.1570   -7.6789 C.ar      1 <0>         0.1384
     21 C16         0.3231    0.7920   -7.8637 C.ar      1 <0>        -0.1081
     22 C17         0.2904    1.6197   -8.9689 C.ar      1 <0>        -0.1055
     23 C18        -0.7336    1.5041   -9.8909 C.ar      1 <0>        -0.1213
     24 C19        -1.7280    0.5604   -9.7096 C.ar      1 <0>        -0.1065
     25 C20        -1.6977   -0.2743   -8.6098 C.ar      1 <0>        -0.1255
     26 H1          0.5641    1.5369   -0.6770 H         1 <0>         0.0671
     27 H2         -1.0256    1.3562   -1.4571 H         1 <0>         0.0650
     28 H3         -0.9118    1.4685    0.3157 H         1 <0>         0.0641
     29 H4         -0.2032   -3.1534   -2.4711 H         1 <0>         0.1205
     30 H5          0.0271   -4.2404   -0.2763 H         1 <0>         0.1253
     31 H6          0.0495   -2.8854    1.7762 H         1 <0>         0.1357
     32 H7          0.2655    0.6268    1.9000 H         1 <0>         0.4114
     33 H8         -0.9108    1.1983    4.0894 H         1 <0>         0.1269
     34 H9          0.7375   -1.1536    5.3497 H         1 <0>         0.1010
     35 H10         0.5419    0.5367    6.0611 H         1 <0>         0.1073
     36 H11        -1.9701    0.2013    6.1674 H         1 <0>         0.1059
     37 H12        -1.7745   -1.4890    5.4560 H         1 <0>         0.1096
     38 H13        -0.5252    0.4073   -2.9593 H         1 <0>         0.4109
     39 H14         0.4799   -1.9226   -4.1995 H         1 <0>         0.0949
     40 H15        -1.2905   -2.0673   -4.0848 H         1 <0>         0.0936
     41 H16        -1.6814   -2.8096   -6.7498 H         1 <0>         0.0672
     42 H17        -0.1658   -2.7065   -7.6774 H         1 <0>         0.0816
     43 H18        -0.1154   -2.9201   -5.9110 H         1 <0>         0.0819
     44 H19         1.1230    0.8830   -7.1437 H         1 <0>         0.1218
     45 H20         1.0652    2.3581   -9.1129 H         1 <0>         0.1277
     46 H21        -0.7570    2.1524  -10.7544 H         1 <0>         0.1264
     47 H22        -2.5266    0.4729  -10.4314 H         1 <0>         0.1283
     48 H23        -2.4718   -1.0146   -8.4714 H         1 <0>         0.1251
@<TRIPOS>BOND
     1    1    2 1
     2    1   26 1
     3    1   27 1
     4    1   28 1
     5    2    7 ar
     6    2    3 ar
     7    3    4 ar
     8    3   14 1
     9    4    5 ar
    10    4   29 1
    11    5    6 ar
    12    5   30 1
    13    6    7 ar
    14    6   31 1
    15    7    8 1
    16    8    9 am
    17    8   32 1
    18    9   10 2
    19    9   11 1
    20   11   13 1
    21   11   12 1
    22   11   33 1
    23   12   13 1
    24   12   34 1
    25   12   35 1
    26   13   36 1
    27   13   37 1
    28   14   15 1
    29   14   38 1
    30   15   16 1
    31   15   39 1
    32   15   40 1
    33   16   17 2
    34   16   18 am
    35   18   19 1
    36   18   20 1
    37   19   41 1
    38   19   42 1
    39   19   43 1
    40   20   25 ar
    41   20   21 ar
    42   21   22 ar
    43   21   44 1
    44   22   23 ar
    45   22   45 1
    46   23   24 ar
    47   23   46 1
    48   24   25 ar
    49   24   47 1
    50   25   48 1
@<TRIPOS>MOLECULE
ZINC67355668
   38    39     0     0     0
SMALL
USER_CHARGES

@<TRIPOS>ATOM
      1 C1         -0.0303    1.4545    0.0141 C.3       1 <0>         0.0992
      2 N1         -0.0038   -0.0102    0.0081 N.pl3     1 <0>        -0.3749
      3 C2         -0.0011   -0.7998   -1.0862 C.2       1 <0>         0.0637
      4 C3          0.0267   -2.0860   -0.6668 C.2       1 <0>        -0.2408
      5 C4          0.0414   -2.0823    0.7318 C.2       1 <0>         0.0558
      6 N2          0.0293   -0.8384    1.1374 N.2       1 <0>        -0.2953
      7 C5          0.0387   -3.3067   -1.5504 C.3       1 <0>        -0.0474
      8 C6          1.4850   -3.6939   -1.8656 C.3       1 <0>         0.1408
      9 N3          1.4967   -4.8806   -2.7246 N.am      1 <0>        -0.7404
     10 C7          2.6690   -5.4055   -3.1327 C.2       1 <0>         0.7025
     11 O1          3.7169   -4.8942   -2.7880 O.2       1 <0>        -0.5686
     12 N4          2.6797   -6.4972   -3.9230 N.am      1 <0>        -0.6862
     13 C8          3.8912   -6.9852   -4.4258 C.ar      1 <0>         0.1800
     14 C9          3.9423   -7.5419   -5.6979 C.ar      1 <0>        -0.1411
     15 C10         5.1376   -8.0240   -6.1955 C.ar      1 <0>        -0.0793
     16 C11         6.2859   -7.9551   -5.4305 C.ar      1 <0>        -0.1377
     17 C12         6.2418   -7.3995   -4.1571 C.ar      1 <0>        -0.0756
     18 C13         5.0429   -6.9085   -3.6570 C.ar      1 <0>        -0.0912
     19 S1          7.7065   -7.3122   -3.1815 S.3       1 <0>        -0.0873
     20 C14         8.9820   -8.0527   -4.2376 C.3       1 <0>         0.2702
     21 F1          8.6284   -9.3719   -4.5406 F         1 <0>        -0.1808
     22 F2          9.0927   -7.3158   -5.4216 F         1 <0>        -0.1803
     23 H1          0.9905    1.8365   -0.0004 H         1 <0>         0.0767
     24 H2         -0.5645    1.8118   -0.8664 H         1 <0>         0.0885
     25 H3         -0.5367    1.8051    0.9134 H         1 <0>         0.0905
     26 H4         -0.0183   -0.4651   -2.1129 H         1 <0>         0.1741
     27 H5          0.0640   -2.9554    1.3672 H         1 <0>         0.1836
     28 H6         -0.4547   -4.1318   -1.0368 H         1 <0>         0.0785
     29 H7         -0.4895   -3.0886   -2.4786 H         1 <0>         0.0747
     30 H8          1.9784   -2.8687   -2.3791 H         1 <0>         0.0678
     31 H9          2.0132   -3.9120   -0.9374 H         1 <0>         0.0703
     32 H10         0.6607   -5.2885   -2.9996 H         1 <0>         0.3986
     33 H11         1.8478   -6.9447   -4.1433 H         1 <0>         0.4096
     34 H12         3.0464   -7.5980   -6.2984 H         1 <0>         0.1316
     35 H13         5.1743   -8.4561   -7.1846 H         1 <0>         0.1344
     36 H14         7.2186   -8.3335   -5.8221 H         1 <0>         0.1271
     37 H15         5.0065   -6.4723   -2.6696 H         1 <0>         0.1499
     38 H16         9.9377   -8.0439   -3.7135 H         1 <0>         0.1590
@<TRIPOS>BOND
     1    1    2 1
     2    1   23 1
     3    1   24 1
     4    1   25 1
     5    2    6 1
     6    2    3 1
     7    3    4 2
     8    3   26 1
     9    4    5 1
    10    4    7 1
    11    5    6 2
    12    5   27 1
    13    7    8 1
    14    7   28 1
    15    7   29 1
    16    8    9 1
    17    8   30 1
    18    8   31 1
    19    9   10 am
    20    9   32 1
    21   10   11 2
    22   10   12 am
    23   12   13 1
    24   12   33 1
    25   13   18 ar
    26   13   14 ar
    27   14   15 ar
    28   14   34 1
    29   15   16 ar
    30   15   35 1
    31   16   17 ar
    32   16   36 1
    33   17   18 ar
    34   17   19 1
    35   18   37 1
    36   19   20 1
    37   20   21 1
    38   20   22 1
    39   20   38 1
@<TRIPOS>MOLECULE
ZINC37183172
   44    45     0     0     0
SMALL
USER_CHARGES

@<TRIPOS>ATOM
      1 C1         -0.2095    2.1121    0.6117 C.3       1 <0>        -0.1524
      2 C2         -0.0870    0.5935    0.4718 C.3       1 <0>         0.0546
      3 O1         -1.3900    0.0197    0.3489 O.3       1 <0>        -0.2910
      4 C3         -1.4593   -1.3317    0.2152 C.ar      1 <0>         0.1436
      5 C4         -0.2983   -2.0927    0.2080 C.ar      1 <0>        -0.1516
      6 C5         -0.3744   -3.4610    0.0741 C.ar      1 <0>        -0.1236
      7 C6         -1.6030   -4.0972   -0.0486 C.ar      1 <0>         0.0816
      8 C7         -2.7637   -3.3284   -0.0456 C.ar      1 <0>        -0.1153
      9 C8         -2.6906   -1.9576    0.0910 C.ar      1 <0>        -0.0972
     10 C9         -3.9540   -1.1361    0.0999 C.3       1 <0>         0.0047
     11 H1         -3.8332   -0.2912    0.7779 H         1 <0>         0.1449
     12 C10        -4.2326   -0.6280   -1.2912 C.2       1 <0>         0.4981
     13 O2         -5.1117   -1.1406   -1.9628 O.co2     1 <0>        -0.6722
     14 O3         -3.5789    0.2957   -1.7452 O.co2     1 <0>        -0.6194
     15 N1         -5.0766   -1.9693    0.5509 N.4       1 <0>        -0.4835
     16 C11        -4.8722   -2.3479    1.9555 C.3       1 <0>         0.0129
     17 C12        -4.9390   -1.0981    2.8354 C.3       1 <0>        -0.1774
     18 C13        -5.9636   -3.3314    2.3826 C.3       1 <0>        -0.1779
     19 O4         -1.4510   -5.4476   -0.1461 O.3       1 <0>        -0.2997
     20 C14        -0.1000   -5.7445   -0.5382 C.3       1 <0>         0.0775
     21 H2         -0.0148   -5.7929   -1.6238 H         1 <0>         0.0898
     22 C15         0.6916   -4.5384    0.0204 C.3       1 <0>        -0.1096
     23 C16         0.3747   -7.0517    0.0996 C.3       1 <0>        -0.1501
     24 H3          0.7843    2.5497    0.7055 H         1 <0>         0.0782
     25 H4         -0.7042    2.5195   -0.2700 H         1 <0>         0.0737
     26 H5         -0.7961    2.3491    1.4994 H         1 <0>         0.0645
     27 H6          0.4996    0.3565   -0.4158 H         1 <0>         0.0636
     28 H7          0.4077    0.1861    1.3536 H         1 <0>         0.0596
     29 H8          0.6637   -1.6119    0.3071 H         1 <0>         0.1386
     30 H9         -3.7262   -3.8079   -0.1464 H         1 <0>         0.1260
     31 H10        -5.9372   -1.4496    0.4645 H         1 <0>         0.4272
     32 H11        -3.8953   -2.8186    2.0664 H         1 <0>         0.1330
     33 H12        -5.8764   -0.5734    2.6508 H         1 <0>         0.0787
     34 H13        -4.8861   -1.3891    3.8845 H         1 <0>         0.0973
     35 H14        -4.1021   -0.4413    2.5979 H         1 <0>         0.0812
     36 H15        -5.9159   -4.2218    1.7557 H         1 <0>         0.0782
     37 H16        -5.8118   -3.6123    3.4248 H         1 <0>         0.0987
     38 H17        -6.9404   -2.8607    2.2717 H         1 <0>         0.0793
     39 H18         1.4981   -4.2550   -0.6559 H         1 <0>         0.0964
     40 H19         1.0781   -4.7538    1.0165 H         1 <0>         0.0970
     41 H20        -0.2564   -7.8724   -0.2413 H         1 <0>         0.0712
     42 H21         1.4079   -7.2432   -0.1902 H         1 <0>         0.0813
     43 H22         0.3107   -6.9707    1.1847 H         1 <0>         0.0670
     44 H23        -5.1276   -2.8013   -0.0177 H         1 <0>         0.4227
@<TRIPOS>BOND
     1    1    2 1
     2    1   24 1
     3    1   25 1
     4    1   26 1
     5    2    3 1
     6    2   27 1
     7    2   28 1
     8    3    4 1
     9    4    9 ar
    10    4    5 ar
    11    5    6 ar
    12    5   29 1
    13    6   22 1
    14    6    7 ar
    15    7    8 ar
    16    7   19 1
    17    8    9 ar
    18    8   30 1
    19    9   10 1
    20   10   11 1
    21   10   12 1
    22   10   15 1
    23   12   13 2
    24   12   14 1
    25   15   16 1
    26   15   31 1
    27   15   44 1
    28   16   17 1
    29   16   18 1
    30   16   32 1
    31   17   33 1
    32   17   34 1
    33   17   35 1
    34   18   36 1
    35   18   37 1
    36   18   38 1
    37   19   20 1
    38   20   21 1
    39   20   22 1
    40   20   23 1
    41   22   39 1
    42   22   40 1
    43   23   41 1
    44   23   42 1
    45   23   43 1
@<TRIPOS>MOLECULE
ZINC44942732
   37    38     0     0     0
SMALL
USER_CHARGES

@<TRIPOS>ATOM
      1 C1         -0.0184    1.5028    0.0103 C.3       1 <0>        -0.0988
      2 C2          0.0021   -0.0041    0.0020 C.2       1 <0>        -0.0549
      3 C3          0.0088   -0.8769   -1.1714 C.ar      1 <0>        -0.1471
      4 C4         -0.0011   -0.6545   -2.5506 C.ar      1 <0>        -0.0544
      5 C5          0.0093   -1.7181   -3.4080 C.ar      1 <0>        -0.1378
      6 C6          0.0291   -3.0169   -2.9177 C.ar      1 <0>        -0.0754
      7 C7          0.0391   -3.2575   -1.5610 C.ar      1 <0>        -0.1130
      8 C8          0.0293   -2.1913   -0.6689 C.ar      1 <0>         0.0798
      9 O1          0.0345   -2.1131    0.6760 O.3       1 <0>        -0.1850
     10 C9          0.0240   -0.8264    1.0826 C.2       1 <0>        -0.0434
     11 C10         0.0320   -0.3820    2.4836 C.2       1 <0>         0.6080
     12 O2          0.0186    0.8061    2.7450 O.2       1 <0>        -0.5115
     13 N1          0.0542   -1.2907    3.4787 N.am      1 <0>        -0.5096
     14 N2          0.0619   -0.8671    4.8141 N.am      1 <0>        -0.5176
     15 C11         0.0841   -1.7758    5.8092 C.2       1 <0>         0.5340
     16 O3          0.0974   -2.9602    5.5486 O.2       1 <0>        -0.5088
     17 C12         0.0923   -1.3201    7.2456 C.3       1 <0>        -0.1249
     18 S1          0.1228   -2.7673    8.3389 S.3       1 <0>        -0.1671
     19 C13         0.1299   -2.0565   10.0078 C.3       1 <0>        -0.0777
     20 C14         0.1551   -3.1667   11.0266 C.2       1 <0>        -0.1469
     21 C15         1.1932   -3.3113   11.8123 C.2       1 <0>        -0.1610
     22 H1          1.0042    1.8801    0.0026 H         1 <0>         0.0822
     23 H2         -0.5455    1.8639   -0.8728 H         1 <0>         0.0737
     24 H3         -0.5286    1.8543    0.9071 H         1 <0>         0.0925
     25 H4         -0.0172    0.3537   -2.9373 H         1 <0>         0.1326
     26 H5          0.0017   -1.5474   -4.4744 H         1 <0>         0.1349
     27 H6          0.0364   -3.8479   -3.6075 H         1 <0>         0.1405
     28 H7          0.0542   -4.2722   -1.1914 H         1 <0>         0.1380
     29 H8          0.0649   -2.2380    3.2703 H         1 <0>         0.4398
     30 H9          0.0512    0.0802    5.0225 H         1 <0>         0.4353
     31 H10         0.9760   -0.7085    7.4278 H         1 <0>         0.1191
     32 H11        -0.8037   -0.7325    7.4456 H         1 <0>         0.1193
     33 H12         1.0128   -1.4295   10.1319 H         1 <0>         0.0866
     34 H13        -0.7669   -1.4535   10.1497 H         1 <0>         0.0921
     35 H14        -0.6828   -3.8432   11.1089 H         1 <0>         0.1198
     36 H15         2.0311   -2.6348   11.7301 H         1 <0>         0.0999
     37 H16         1.2113   -4.1069   12.5424 H         1 <0>         0.1069
@<TRIPOS>BOND
     1    1    2 1
     2    1   22 1
     3    1   23 1
     4    1   24 1
     5    2   10 2
     6    2    3 1
     7    3    8 ar
     8    3    4 ar
     9    4    5 ar
    10    4   25 1
    11    5    6 ar
    12    5   26 1
    13    6    7 ar
    14    6   27 1
    15    7    8 ar
    16    7   28 1
    17    8    9 1
    18    9   10 1
    19   10   11 1
    20   11   12 2
    21   11   13 am
    22   13   14 1
    23   13   29 1
    24   14   15 am
    25   14   30 1
    26   15   16 2
    27   15   17 1
    28   17   18 1
    29   17   31 1
    30   17   32 1
    31   18   19 1
    32   19   20 1
    33   19   33 1
    34   19   34 1
    35   20   21 2
    36   20   35 1
    37   21   36 1
    38   21   37 1
@<TRIPOS>MOLECULE
ZINC51786942
   38    39     0     0     0
SMALL
USER_CHARGES

@<TRIPOS>ATOM
      1 C1         -0.8107    2.0561    0.0163 C.3       1 <0>        -0.1513
      2 C2         -0.6188    0.5384   -0.0094 C.3       1 <0>        -0.1239
      3 C3         -1.9855   -0.1490    0.0151 C.3       1 <0>         0.0559
      4 O1         -1.8063   -1.5665   -0.0090 O.3       1 <0>        -0.3136
      5 C4         -2.9301   -2.3310    0.0084 C.ar      1 <0>         0.1184
      6 C5         -4.1847   -1.7183    0.0423 C.ar      1 <0>        -0.1533
      7 C6         -5.3261   -2.4597    0.0608 C.ar      1 <0>        -0.0656
      8 C7         -5.2540   -3.8621    0.0454 C.ar      1 <0>         0.1531
      9 C8         -3.9852   -4.4874    0.0106 C.ar      1 <0>        -0.1270
     10 C9         -2.8231   -3.7042   -0.0132 C.ar      1 <0>        -0.1236
     11 C10        -3.9150   -5.9014   -0.0050 C.ar      1 <0>         0.3438
     12 C11        -5.1225   -6.6160    0.0152 C.ar      1 <0>        -0.2981
     13 C12        -6.3372   -5.9109    0.0496 C.ar      1 <0>         0.2222
     14 N1         -6.3715   -4.6036    0.0628 N.ar      1 <0>        -0.5169
     15 C13        -5.1166   -8.0865    0.0001 C.2       1 <0>         0.5335
     16 O2         -4.0648   -8.6909    0.0769 O.2       1 <0>        -0.5310
     17 O3         -6.2777   -8.7642   -0.0989 O.3       1 <0>        -0.3440
     18 C14        -6.1974  -10.1909   -0.1077 C.3       1 <0>         0.0616
     19 C15        -7.6045  -10.7802   -0.2252 C.3       1 <0>        -0.1535
     20 N2         -2.7024   -6.5536   -0.0392 N.pl3     1 <0>        -0.8187
     21 H1          0.1629    2.5458   -0.0012 H         1 <0>         0.0660
     22 H2         -1.3880    2.3641   -0.8555 H         1 <0>         0.0585
     23 H3         -1.3438    2.3396    0.9238 H         1 <0>         0.0585
     24 H4         -0.0858    0.2549   -0.9169 H         1 <0>         0.0742
     25 H5         -0.0415    0.2303    0.8623 H         1 <0>         0.0742
     26 H6         -2.5186    0.1345    0.9226 H         1 <0>         0.0646
     27 H7         -2.5628    0.1591   -0.8567 H         1 <0>         0.0646
     28 H8         -4.2502   -0.6403    0.0544 H         1 <0>         0.1393
     29 H9         -6.2879   -1.9691    0.0877 H         1 <0>         0.1457
     30 H10        -1.8510   -4.1738   -0.0442 H         1 <0>         0.1336
     31 H11        -7.2658   -6.4621    0.0648 H         1 <0>         0.1704
     32 H12        -5.5954  -10.5158   -0.9563 H         1 <0>         0.0685
     33 H13        -5.7357  -10.5346    0.8180 H         1 <0>         0.0688
     34 H14        -8.2065  -10.4554    0.6234 H         1 <0>         0.0683
     35 H15        -8.0661  -10.4366   -1.1509 H         1 <0>         0.0681
     36 H16        -7.5432  -11.8685   -0.2319 H         1 <0>         0.0806
     37 H17        -1.8812   -6.0461   -0.1343 H         1 <0>         0.4036
     38 H18        -2.6695   -7.5205    0.0317 H         1 <0>         0.4245
@<TRIPOS>BOND
     1    1    2 1
     2    1   21 1
     3    1   22 1
     4    1   23 1
     5    2    3 1
     6    2   24 1
     7    2   25 1
     8    3    4 1
     9    3   26 1
    10    3   27 1
    11    4    5 1
    12    5   10 ar
    13    5    6 ar
    14    6    7 ar
    15    6   28 1
    16    7    8 ar
    17    7   29 1
    18    8   14 ar
    19    8    9 ar
    20    9   10 ar
    21    9   11 ar
    22   10   30 1
    23   11   12 ar
    24   11   20 1
    25   12   13 ar
    26   12   15 1
    27   13   14 ar
    28   13   31 1
    29   15   16 2
    30   15   17 1
    31   17   18 1
    32   18   19 1
    33   18   32 1
    34   18   33 1
    35   19   34 1
    36   19   35 1
    37   19   36 1
    38   20   37 1
    39   20   38 1
@<TRIPOS>MOLECULE
ZINC35055101
   42    43     0     0     0
SMALL
USER_CHARGES

@<TRIPOS>ATOM
      1 C1         -0.0187    1.5258    0.0104 C.3       1 <0>        -0.1511
      2 C2          0.0021   -0.0041    0.0020 C.3       1 <0>        -0.1361
      3 C3          0.7182   -0.4975   -1.2568 C.3       1 <0>         0.1168
      4 N1          0.7381   -1.9623   -1.2648 N.am      1 <0>        -0.7297
      5 C4          1.3211   -2.6228   -2.2848 C.2       1 <0>         0.5125
      6 O1          1.8293   -2.0044   -3.1960 O.2       1 <0>        -0.5296
      7 C5          1.3415   -4.1296   -2.2931 C.3       1 <0>         0.0674
      8 H1          0.3189   -4.5069   -2.2854 H         1 <0>         0.0735
      9 C6          2.0815   -4.6364   -1.0536 C.3       1 <0>        -0.1383
     10 N2          2.0291   -4.6034   -3.5017 N.3       1 <0>        -0.6647
     11 C7          1.5831   -5.9549   -3.8656 C.3       1 <0>         0.1277
     12 H2          1.3801   -6.5266   -2.9600 H         1 <0>         0.0921
     13 C8          0.3083   -5.8621   -4.7066 C.3       1 <0>        -0.1816
     14 C9          2.6617   -6.6423   -4.6624 C.ar      1 <0>        -0.0594
     15 C10         3.3821   -5.9319   -5.6047 C.ar      1 <0>        -0.0857
     16 C11         4.3728   -6.5580   -6.3378 C.ar      1 <0>        -0.0990
     17 C12         4.6459   -7.9003   -6.1299 C.ar      1 <0>         0.0289
     18 C13         3.9202   -8.6159   -5.1808 C.ar      1 <0>         0.0312
     19 C14         2.9326   -7.9805   -4.4456 C.ar      1 <0>        -0.0951
     20 O2          4.3732   -9.9035   -5.1652 O.3       1 <0>        -0.3099
     21 C15         5.1006  -10.0701   -6.3966 C.3       1 <0>         0.2134
     22 O3          5.5535   -8.7394   -6.7089 O.3       1 <0>        -0.3097
     23 H3          1.0039    1.9031    0.0027 H         1 <0>         0.0587
     24 H4         -0.5459    1.8868   -0.8726 H         1 <0>         0.0582
     25 H5         -0.5289    1.8773    0.9072 H         1 <0>         0.0613
     26 H6          0.5293   -0.3651    0.8851 H         1 <0>         0.0694
     27 H7         -1.0205   -0.3814    0.0098 H         1 <0>         0.0687
     28 H8          0.1910   -0.1364   -2.1398 H         1 <0>         0.0681
     29 H9          1.7408   -0.1202   -1.2645 H         1 <0>         0.0692
     30 H10         0.3316   -2.4569   -0.5361 H         1 <0>         0.4014
     31 H11         1.5713   -4.2849   -0.1568 H         1 <0>         0.0608
     32 H12         2.0963   -5.7263   -1.0596 H         1 <0>         0.0685
     33 H13         3.1041   -4.2592   -1.0613 H         1 <0>         0.0699
     34 H14         1.8973   -3.9605   -4.2682 H         1 <0>         0.3581
     35 H15        -0.4718   -5.3649   -4.1303 H         1 <0>         0.0588
     36 H16         0.5113   -5.2904   -5.6122 H         1 <0>         0.0638
     37 H17        -0.0226   -6.8649   -4.9766 H         1 <0>         0.0686
     38 H18         3.1700   -4.8857   -5.7686 H         1 <0>         0.1376
     39 H19         4.9340   -6.0006   -7.0732 H         1 <0>         0.1356
     40 H20         2.3714   -8.5318   -3.7058 H         1 <0>         0.1334
     41 H21         5.9487  -10.7395   -6.2529 H         1 <0>         0.1319
     42 H22         4.4439  -10.4452   -7.1815 H         1 <0>         0.0843
@<TRIPOS>BOND
     1    1    2 1
     2    1   23 1
     3    1   24 1
     4    1   25 1
     5    2    3 1
     6    2   26 1
     7    2   27 1
     8    3    4 1
     9    3   28 1
    10    3   29 1
    11    4    5 am
    12    4   30 1
    13    5    6 2
    14    5    7 1
    15    7    8 1
    16    7    9 1
    17    7   10 1
    18    9   31 1
    19    9   32 1
    20    9   33 1
    21   10   11 1
    22   10   34 1
    23   11   12 1
    24   11   13 1
    25   11   14 1
    26   13   35 1
    27   13   36 1
    28   13   37 1
    29   14   19 ar
    30   14   15 ar
    31   15   16 ar
    32   15   38 1
    33   16   17 ar
    34   16   39 1
    35   17   22 1
    36   17   18 ar
    37   18   19 ar
    38   18   20 1
    39   19   40 1
    40   20   21 1
    41   21   22 1
    42   21   41 1
    43   21   42 1
@<TRIPOS>MOLECULE
ZINC67575099
   39    40     0     0     0
SMALL
USER_CHARGES

@<TRIPOS>ATOM
      1 C1         -0.0417    1.5462    0.0324 C.3       1 <0>        -0.1529
      2 C2         -0.0121    0.0165    0.0178 C.3       1 <0>         0.0568
      3 O1         -1.3499   -0.4858    0.0238 O.3       1 <0>        -0.3884
      4 C3         -1.4353   -1.9122    0.0111 C.3       1 <0>         0.0481
      5 C4         -2.9056   -2.3352    0.0189 C.3       1 <0>         0.1404
      6 N1         -3.5463   -1.8976   -1.2237 N.am      1 <0>        -0.7343
      7 C5         -4.8502   -2.1619   -1.4390 C.2       1 <0>         0.7056
      8 O2         -5.4948   -2.7635   -0.6019 O.2       1 <0>        -0.5701
      9 N2         -5.4396   -1.7592   -2.5822 N.am      1 <0>        -0.6861
     10 C6         -6.7660   -2.1169   -2.8493 C.ar      1 <0>         0.1946
     11 C7         -7.6865   -2.1989   -1.8120 C.ar      1 <0>        -0.1316
     12 C8         -8.9958   -2.5519   -2.0750 C.ar      1 <0>        -0.0703
     13 C9         -9.3940   -2.8249   -3.3698 C.ar      1 <0>        -0.1563
     14 C10        -8.4787   -2.7447   -4.4108 C.ar      1 <0>         0.1601
     15 C11        -7.1644   -2.3844   -4.1510 C.ar      1 <0>        -0.1712
     16 N3         -8.8836   -3.0219   -5.7242 N.pl3     1 <0>        -0.3970
     17 C12        -8.0822   -2.9842   -6.8293 C.2       1 <0>        -0.0175
     18 C13        -8.8299   -3.3105   -7.9031 C.2       1 <0>        -0.1888
     19 C14       -10.1400   -3.5588   -7.4467 C.2       1 <0>        -0.1900
     20 C15       -10.1437   -3.3802   -6.1101 C.2       1 <0>        -0.0135
     21 H1          0.9788    1.9293    0.0278 H         1 <0>         0.0725
     22 H2         -0.5695    1.9078   -0.8501 H         1 <0>         0.0626
     23 H3         -0.5553    1.8911    0.9297 H         1 <0>         0.0638
     24 H4          0.5015   -0.3285   -0.8796 H         1 <0>         0.0493
     25 H5          0.5157   -0.3451    0.9002 H         1 <0>         0.0506
     26 H6         -0.9512   -2.2972   -0.8864 H         1 <0>         0.0578
     27 H7         -0.9370   -2.3138    0.8934 H         1 <0>         0.0710
     28 H8         -2.9711   -3.4203    0.0989 H         1 <0>         0.0859
     29 H9         -3.4110   -1.8771    0.8691 H         1 <0>         0.0793
     30 H10        -3.0320   -1.4176   -1.8916 H         1 <0>         0.4015
     31 H11        -4.9445   -1.2216   -3.2199 H         1 <0>         0.4088
     32 H12        -7.3780   -1.9868   -0.7989 H         1 <0>         0.1470
     33 H13        -9.7096   -2.6150   -1.2670 H         1 <0>         0.1367
     34 H14       -10.4182   -3.1014   -3.5722 H         1 <0>         0.1315
     35 H15        -6.4519   -2.3167   -4.9597 H         1 <0>         0.1322
     36 H16        -7.0313   -2.7357   -6.8413 H         1 <0>         0.1631
     37 H17        -8.4876   -3.3700   -8.9257 H         1 <0>         0.1412
     38 H18       -10.9854   -3.8435   -8.0555 H         1 <0>         0.1418
     39 H19       -10.9964   -3.4979   -5.4578 H         1 <0>         0.1658
@<TRIPOS>BOND
     1    1    2 1
     2    1   21 1
     3    1   22 1
     4    1   23 1
     5    2    3 1
     6    2   24 1
     7    2   25 1
     8    3    4 1
     9    4    5 1
    10    4   26 1
    11    4   27 1
    12    5    6 1
    13    5   28 1
    14    5   29 1
    15    6    7 am
    16    6   30 1
    17    7    8 2
    18    7    9 am
    19    9   10 1
    20    9   31 1
    21   10   15 ar
    22   10   11 ar
    23   11   12 ar
    24   11   32 1
    25   12   13 ar
    26   12   33 1
    27   13   14 ar
    28   13   34 1
    29   14   15 ar
    30   14   16 1
    31   15   35 1
    32   16   20 1
    33   16   17 1
    34   17   18 2
    35   17   36 1
    36   18   19 1
    37   18   37 1
    38   19   20 2
    39   19   38 1
    40   20   39 1
@<TRIPOS>MOLECULE
ZINC06187198
   44    45     0     0     0
SMALL
USER_CHARGES

@<TRIPOS>ATOM
      1 C1         -0.0187    1.5258    0.0104 C.3       1 <0>        -0.1538
      2 C2          0.0021   -0.0041    0.0020 C.3       1 <0>         0.0603
      3 O1         -1.3386   -0.4987    0.0122 O.3       1 <0>        -0.3466
      4 C3         -1.4964   -1.8317    0.0065 C.2       1 <0>         0.4600
      5 O2         -0.5283   -2.5546   -0.0066 O.2       1 <0>        -0.5034
      6 C4         -2.8809   -2.4266    0.0165 C.3       1 <0>         0.1265
      7 N1         -2.7844   -3.8884    0.0078 N.am      1 <0>        -0.7280
      8 C5         -3.9046   -4.6377    0.0144 C.2       1 <0>         0.5189
      9 O3         -4.9926   -4.1019    0.0277 O.2       1 <0>        -0.5340
     10 C6         -3.8054   -6.1414    0.0054 C.3       1 <0>        -0.1387
     11 C7         -5.2111   -6.7454    0.0156 C.3       1 <0>        -0.0978
     12 C8         -5.1103   -8.2720    0.0064 C.3       1 <0>        -0.1071
     13 C9         -6.5160   -8.8760    0.0166 C.3       1 <0>        -0.1128
     14 S1         -6.3965  -10.6860    0.0057 S.3       1 <0>        -0.0010
     15 C10        -8.0743  -11.2241    0.0189 C.ar      1 <0>         0.2684
     16 C11        -8.3893  -12.5949    0.0204 C.ar      1 <0>        -0.0895
     17 C12        -9.7432  -12.9668    0.0316 C.ar      1 <0>         0.3356
     18 N2         -9.7594  -14.3386    0.0306 N.pl3     1 <0>        -0.5846
     19 H1        -10.5479  -14.9034    0.0365 H         1 <0>         0.4315
     20 C13        -8.4625  -14.7626    0.0193 C.2       1 <0>         0.2577
     21 N3         -7.6607  -13.7380    0.0134 N.2       1 <0>        -0.4517
     22 N4        -10.6756  -12.0186    0.0398 N.ar      1 <0>        -0.5856
     23 C14       -10.3358  -10.7399    0.0376 C.ar      1 <0>         0.6050
     24 N5         -9.0696  -10.3435    0.0331 N.ar      1 <0>        -0.5732
     25 N6        -11.3365   -9.7821    0.0460 N.pl3     1 <0>        -0.8158
     26 H2          1.0039    1.9031    0.0027 H         1 <0>         0.0825
     27 H3         -0.5459    1.8868   -0.8726 H         1 <0>         0.0685
     28 H4         -0.5289    1.8773    0.9072 H         1 <0>         0.0685
     29 H5          0.5123   -0.3556   -0.8948 H         1 <0>         0.0708
     30 H6          0.5293   -0.3651    0.8851 H         1 <0>         0.0708
     31 H7         -3.4091   -2.1027    0.9134 H         1 <0>         0.1145
     32 H8         -3.4261   -2.0931   -0.8665 H         1 <0>         0.1145
     33 H9         -1.9143   -4.3169   -0.0028 H         1 <0>         0.4133
     34 H10        -3.2773   -6.4653   -0.8914 H         1 <0>         0.0994
     35 H11        -3.2603   -6.4748    0.8885 H         1 <0>         0.0994
     36 H12        -5.7392   -6.4215    0.9124 H         1 <0>         0.0755
     37 H13        -5.7562   -6.4119   -0.8674 H         1 <0>         0.0755
     38 H14        -4.5822   -8.5959   -0.8904 H         1 <0>         0.0761
     39 H15        -4.5652   -8.6055    0.8895 H         1 <0>         0.0761
     40 H16        -7.0441   -8.5521    0.9134 H         1 <0>         0.0959
     41 H17        -7.0611   -8.5426   -0.8664 H         1 <0>         0.0959
     42 H18        -8.1481  -15.7958    0.0158 H         1 <0>         0.2293
     43 H19       -12.2677  -10.0536    0.0533 H         1 <0>         0.4161
     44 H20       -11.1060   -8.8399    0.0445 H         1 <0>         0.4176
@<TRIPOS>BOND
     1    1    2 1
     2    1   26 1
     3    1   27 1
     4    1   28 1
     5    2    3 1
     6    2   29 1
     7    2   30 1
     8    3    4 1
     9    4    5 2
    10    4    6 1
    11    6    7 1
    12    6   31 1
    13    6   32 1
    14    7    8 am
    15    7   33 1
    16    8    9 2
    17    8   10 1
    18   10   11 1
    19   10   34 1
    20   10   35 1
    21   11   12 1
    22   11   36 1
    23   11   37 1
    24   12   13 1
    25   12   38 1
    26   12   39 1
    27   13   14 1
    28   13   40 1
    29   13   41 1
    30   14   15 1
    31   15   24 ar
    32   15   16 ar
    33   16   21 1
    34   16   17 ar
    35   17   18 1
    36   17   22 ar
    37   18   19 1
    38   18   20 1
    39   20   21 2
    40   20   42 1
    41   22   23 ar
    42   23   24 ar
    43   23   25 1
    44   25   43 1
    45   25   44 1
@<TRIPOS>MOLECULE
ZINC41961419
   46    46     0     0     0
SMALL
USER_CHARGES

@<TRIPOS>ATOM
      1 C1         -0.0187    1.5258    0.0104 C.3       1 <0>        -0.1581
      2 C2          0.0021   -0.0041    0.0020 C.3       1 <0>        -0.1257
      3 C3          0.7182   -0.4975   -1.2568 C.3       1 <0>         0.1415
      4 H1          1.7103   -0.0491   -1.3098 H         1 <0>         0.0946
      5 C4          0.8493   -2.0210   -1.2049 C.3       1 <0>        -0.1781
      6 N1         -0.0549   -0.1139   -2.4405 N.pl3     1 <0>        -1.1074
      7 S1          0.7258    0.3012   -3.8407 S.o2      1 <0>         2.6909
      8 O1         -0.2835    0.5918   -4.7978 O.2       1 <0>        -0.9520
      9 O2          1.7295    1.2412   -3.4827 O.2       1 <0>        -0.9459
     10 C5          1.5653   -1.1375   -4.4152 C.ar      1 <0>        -0.6502
     11 C6          2.8613   -1.3899   -4.0017 C.ar      1 <0>        -0.0221
     12 C7          3.5243   -2.5145   -4.4478 C.ar      1 <0>        -0.0708
     13 C8          2.8847   -3.3986   -5.3181 C.ar      1 <0>        -0.0753
     14 C9          1.5772   -3.1381   -5.7313 C.ar      1 <0>        -0.1088
     15 C10         0.9236   -2.0128   -5.2733 C.ar      1 <0>        -0.0203
     16 C11         3.5893   -4.6056   -5.8005 C.2       1 <0>         0.5637
     17 O3          4.7280   -4.8297   -5.4393 O.2       1 <0>        -0.5033
     18 N2          2.9689   -5.4573   -6.6408 N.am      1 <0>        -0.5440
     19 N3          3.6365   -6.6010   -7.0980 N.pl3     1 <0>        -0.4696
     20 C12         3.0162   -7.4528   -7.9383 C.2       1 <0>         0.5575
     21 S2          3.8320   -8.8503   -8.4969 S.2       1 <0>        -0.5779
     22 N4          1.7535   -7.2043   -8.3389 N.pl3     1 <0>        -0.6810
     23 C13         1.0792   -8.1301   -9.2523 C.3       1 <0>         0.1506
     24 C14        -0.3114   -7.6267   -9.5416 C.2       1 <0>        -0.1957
     25 C15        -0.6963   -7.4409  -10.7799 C.2       1 <0>        -0.1451
     26 H2          1.0039    1.9031    0.0027 H         1 <0>         0.0596
     27 H3         -0.5459    1.8868   -0.8726 H         1 <0>         0.0560
     28 H4         -0.5289    1.8773    0.9072 H         1 <0>         0.0582
     29 H5          0.5293   -0.3651    0.8851 H         1 <0>         0.0794
     30 H6         -1.0205   -0.3814    0.0098 H         1 <0>         0.0708
     31 H7          1.3594   -2.3725   -2.1017 H         1 <0>         0.0581
     32 H8          1.4245   -2.3064   -0.3242 H         1 <0>         0.0733
     33 H9         -0.1428   -2.4694   -1.1520 H         1 <0>         0.0657
     34 H10        -1.0242   -0.1030   -2.4042 H         1 <0>         0.4211
     35 H11         3.3552   -0.7048   -3.3285 H         1 <0>         0.1537
     36 H12         4.5360   -2.7102   -4.1246 H         1 <0>         0.1531
     37 H13         1.0767   -3.8183   -6.4046 H         1 <0>         0.1325
     38 H14        -0.0896   -1.8123   -5.5889 H         1 <0>         0.1520
     39 H15         2.0602   -5.2785   -6.9291 H         1 <0>         0.4200
     40 H16         4.5453   -6.7799   -6.8097 H         1 <0>         0.4607
     41 H17         1.2913   -6.4124   -8.0223 H         1 <0>         0.3906
     42 H18         1.6424   -8.1969  -10.1831 H         1 <0>         0.0963
     43 H19         1.0201   -9.1163   -8.7918 H         1 <0>         0.1006
     44 H20        -0.9907   -7.4190   -8.7281 H         1 <0>         0.1169
     45 H21        -1.6929   -7.0801  -10.9873 H         1 <0>         0.1084
     46 H22        -0.0170   -7.6485  -11.5935 H         1 <0>         0.1055
@<TRIPOS>BOND
     1    1    2 1
     2    1   26 1
     3    1   27 1
     4    1   28 1
     5    2    3 1
     6    2   29 1
     7    2   30 1
     8    3    4 1
     9    3    5 1
    10    3    6 1
    11    5   31 1
    12    5   32 1
    13    5   33 1
    14    6    7 1
    15    6   34 1
    16    7    8 2
    17    7    9 2
    18    7   10 1
    19   10   15 ar
    20   10   11 ar
    21   11   12 ar
    22   11   35 1
    23   12   13 ar
    24   12   36 1
    25   13   14 ar
    26   13   16 1
    27   14   15 ar
    28   14   37 1
    29   15   38 1
    30   16   17 2
    31   16   18 am
    32   18   19 1
    33   18   39 1
    34   19   20 1
    35   19   40 1
    36   20   21 2
    37   20   22 1
    38   22   23 1
    39   22   41 1
    40   23   24 1
    41   23   42 1
    42   23   43 1
    43   24   25 2
    44   24   44 1
    45   25   45 1
    46   25   46 1
@<TRIPOS>MOLECULE
ZINC47877234
   51    53     0     0     0
SMALL
USER_CHARGES

@<TRIPOS>ATOM
      1 C1         -0.0079    1.4452    0.0076 C.ar      1 <0>        -0.1283
      2 C2          1.1816    2.1600    0.0029 C.ar      1 <0>        -0.1001
      3 C3          2.3925    1.5014   -0.0140 C.ar      1 <0>        -0.1120
      4 C4          2.4202    0.1134   -0.0261 C.ar      1 <0>         0.0472
      5 C5          1.2156   -0.6099   -0.0209 C.ar      1 <0>         0.0430
      6 C6         -0.0000    0.0793   -0.0041 C.ar      1 <0>        -0.0632
      7 N1          1.5451   -1.9270   -0.0352 N.2       1 <0>        -0.4951
      8 C7          2.8399   -2.0539   -0.0484 C.2       1 <0>         0.2608
      9 N2          3.4298   -0.8280   -0.0436 N.pl3     1 <0>        -0.4932
     10 C8          4.8694   -0.5571   -0.0552 C.3       1 <0>         0.1159
     11 C9          5.3613   -0.3511    1.3789 C.3       1 <0>        -0.1503
     12 C10         6.8648   -0.0682    1.3667 C.3       1 <0>         0.1419
     13 N3          7.3357    0.1291    2.7398 N.am      1 <0>        -0.7424
     14 C11         8.6363    0.3931    2.9748 C.2       1 <0>         0.7058
     15 O1          9.4188    0.4677    2.0471 O.2       1 <0>        -0.5727
     16 N4          9.0695    0.5746    4.2381 N.am      1 <0>        -0.6765
     17 C12        10.4362    0.7563    4.4910 C.ar      1 <0>         0.1334
     18 C13        11.2270    1.4411    3.5801 C.ar      1 <0>        -0.0846
     19 C14        12.5742    1.6190    3.8316 C.ar      1 <0>        -0.1361
     20 C15        13.1371    1.1158    4.9900 C.ar      1 <0>        -0.0937
     21 C16        12.3552    0.4323    5.9025 C.ar      1 <0>        -0.1891
     22 C17        11.0026    0.2547    5.6605 C.ar      1 <0>         0.1044
     23 O2         10.2311   -0.4125    6.5597 O.3       1 <0>        -0.3205
     24 C18        10.8798   -0.8989    7.7364 C.3       1 <0>         0.0753
     25 C19         9.8592   -1.6167    8.6218 C.3       1 <0>        -0.1425
     26 C20        10.5433   -2.1296    9.8627 C.2       1 <0>         0.5230
     27 O3         11.7304   -1.9397   10.0232 O.2       1 <0>        -0.5413
     28 N5          9.8360   -2.7994   10.7942 N.am      1 <0>        -0.8526
     29 H1         -0.9494    1.9742    0.0251 H         1 <0>         0.1299
     30 H2          1.1584    3.2397    0.0123 H         1 <0>         0.1302
     31 H3          3.3153    2.0625   -0.0183 H         1 <0>         0.1210
     32 H4         -0.9316   -0.4671   -0.0007 H         1 <0>         0.1291
     33 H5          3.3693   -2.9951   -0.0611 H         1 <0>         0.2134
     34 H6          5.3945   -1.4017   -0.5016 H         1 <0>         0.1025
     35 H7          5.0652    0.3421   -0.6392 H         1 <0>         0.0947
     36 H8          4.8362    0.4934    1.8252 H         1 <0>         0.0786
     37 H9          5.1655   -1.2504    1.9628 H         1 <0>         0.0798
     38 H10         7.3898   -0.9127    0.9203 H         1 <0>         0.0739
     39 H11         7.0606    0.8311    0.7827 H         1 <0>         0.0731
     40 H12         6.7115    0.0696    3.4799 H         1 <0>         0.3990
     41 H13         8.4356    0.5795    4.9723 H         1 <0>         0.4090
     42 H14        10.7900    1.8349    2.6743 H         1 <0>         0.1480
     43 H15        13.1890    2.1520    3.1214 H         1 <0>         0.1286
     44 H16        14.1904    1.2569    5.1823 H         1 <0>         0.1275
     45 H17        12.7979    0.0405    6.8064 H         1 <0>         0.1343
     46 H18        11.6696   -1.5952    7.4545 H         1 <0>         0.0731
     47 H19        11.3121   -0.0622    8.2852 H         1 <0>         0.0733
     48 H20         9.0694   -0.9204    8.9038 H         1 <0>         0.1072
     49 H21         9.4270   -2.4534    8.0730 H         1 <0>         0.1070
     50 H22         8.8866   -2.9512   10.6659 H         1 <0>         0.4041
     51 H23        10.2764   -3.1295   11.5930 H         1 <0>         0.4060
@<TRIPOS>BOND
     1    1    6 ar
     2    1    2 ar
     3    1   29 1
     4    2    3 ar
     5    2   30 1
     6    3    4 ar
     7    3   31 1
     8    4    9 1
     9    4    5 ar
    10    5    6 ar
    11    5    7 1
    12    6   32 1
    13    7    8 2
    14    8    9 1
    15    8   33 1
    16    9   10 1
    17   10   11 1
    18   10   34 1
    19   10   35 1
    20   11   12 1
    21   11   36 1
    22   11   37 1
    23   12   13 1
    24   12   38 1
    25   12   39 1
    26   13   14 am
    27   13   40 1
    28   14   15 2
    29   14   16 am
    30   16   17 1
    31   16   41 1
    32   17   22 ar
    33   17   18 ar
    34   18   19 ar
    35   18   42 1
    36   19   20 ar
    37   19   43 1
    38   20   21 ar
    39   20   44 1
    40   21   22 ar
    41   21   45 1
    42   22   23 1
    43   23   24 1
    44   24   25 1
    45   24   46 1
    46   24   47 1
    47   25   26 1
    48   25   48 1
    49   25   49 1
    50   26   27 2
    51   26   28 am
    52   28   50 1
    53   28   51 1
@<TRIPOS>MOLECULE
ZINC65724824
   42    43     0     0     0
SMALL
USER_CHARGES

@<TRIPOS>ATOM
      1 C1         -0.0163    1.3540    0.0095 C.2       1 <0>        -0.1581
      2 C2          1.1764    2.0417    0.0018 C.2       1 <0>        -0.0940
      3 C3          2.3479    1.3277   -0.0132 C.2       1 <0>        -0.1056
      4 S1          1.7522   -0.3554   -0.0166 S.3       1 <0>         0.0684
      5 C4          0.0021   -0.0041    0.0020 C.2       1 <0>        -0.1537
      6 C5          3.7346    1.8208   -0.0242 C.2       1 <0>         0.2680
      7 N1          4.1263    3.0476   -0.2898 N.2       1 <0>        -0.2537
      8 N2          5.4063    3.1265   -0.2087 N.2       1 <0>        -0.2825
      9 C6          5.9124    1.9579    0.1132 C.2       1 <0>         0.1690
     10 N3          4.8675    1.0863    0.2476 N.pl3     1 <0>        -0.4588
     11 C7          4.9384   -0.3331    0.6033 C.3       1 <0>         0.1163
     12 C8          5.0749   -1.1716   -0.6692 C.3       1 <0>        -0.1658
     13 C9          5.1478   -2.6317   -0.3034 C.2       1 <0>         0.5282
     14 O1          5.0958   -2.9685    0.8606 O.2       1 <0>        -0.5362
     15 N4          5.2709   -3.5632   -1.2696 N.am      1 <0>        -0.8503
     16 S2          7.6197    1.5846    0.3370 S.3       1 <0>        -0.0049
     17 C10         8.4587    3.1618    0.0226 C.3       1 <0>        -0.0996
     18 C11         9.9688    2.9776    0.1854 C.3       1 <0>        -0.1050
     19 C12        10.6765    4.3079   -0.0799 C.3       1 <0>        -0.0996
     20 C13        12.1866    4.1237    0.0829 C.3       1 <0>        -0.1423
     21 C14        12.8836    5.4340   -0.1783 C.2       1 <0>         0.5140
     22 O2         12.2362    6.4183   -0.4663 O.2       1 <0>        -0.5415
     23 N5         14.2263    5.5120   -0.0918 N.am      1 <0>        -0.8588
     24 H1         -0.9550    1.8878    0.0258 H         1 <0>         0.1457
     25 H2          1.1895    3.1216    0.0071 H         1 <0>         0.1479
     26 H3         -0.8287   -0.6941    0.0065 H         1 <0>         0.1941
     27 H4          5.8024   -0.5041    1.2454 H         1 <0>         0.1157
     28 H5          4.0299   -0.6210    1.1323 H         1 <0>         0.1116
     29 H6          4.2108   -1.0007   -1.3114 H         1 <0>         0.1048
     30 H7          5.9834   -0.8837   -1.1983 H         1 <0>         0.1105
     31 H8          5.3125   -3.2938   -2.2005 H         1 <0>         0.4044
     32 H9          5.3179   -4.5030   -1.0341 H         1 <0>         0.4073
     33 H10         8.2405    3.4934   -0.9926 H         1 <0>         0.1000
     34 H11         8.1052    3.9093    0.7328 H         1 <0>         0.1001
     35 H12        10.1871    2.6460    1.2005 H         1 <0>         0.0771
     36 H13        10.3223    2.2301   -0.5249 H         1 <0>         0.0766
     37 H14        10.4583    4.6395   -1.0950 H         1 <0>         0.0765
     38 H15        10.3230    5.0554    0.6304 H         1 <0>         0.0767
     39 H16        12.4048    3.7921    1.0981 H         1 <0>         0.0969
     40 H17        12.5401    3.3762   -0.6273 H         1 <0>         0.0966
     41 H18        14.7440    4.7248    0.1385 H         1 <0>         0.4019
     42 H19        14.6749    6.3555   -0.2600 H         1 <0>         0.4019
@<TRIPOS>BOND
     1    1    5 2
     2    1    2 1
     3    1   24 1
     4    2    3 2
     5    2   25 1
     6    3    4 1
     7    3    6 1
     8    4    5 1
     9    5   26 1
    10    6   10 1
    11    6    7 2
    12    7    8 1
    13    8    9 2
    14    9   10 1
    15    9   16 1
    16   10   11 1
    17   11   12 1
    18   11   27 1
    19   11   28 1
    20   12   13 1
    21   12   29 1
    22   12   30 1
    23   13   14 2
    24   13   15 am
    25   15   31 1
    26   15   32 1
    27   16   17 1
    28   17   18 1
    29   17   33 1
    30   17   34 1
    31   18   19 1
    32   18   35 1
    33   18   36 1
    34   19   20 1
    35   19   37 1
    36   19   38 1
    37   20   21 1
    38   20   39 1
    39   20   40 1
    40   21   22 2
    41   21   23 am
    42   23   41 1
    43   23   42 1
@<TRIPOS>MOLECULE
ZINC67604775
   54    55     0     0     0
SMALL
USER_CHARGES

@<TRIPOS>ATOM
      1 C1         -0.0187    1.5258    0.0104 C.3       1 <0>        -0.1539
      2 C2          0.0021   -0.0041    0.0020 C.3       1 <0>        -0.1322
      3 C3         -1.4333   -0.5336    0.0129 C.3       1 <0>         0.1388
      4 H1         -1.9862   -0.1019   -0.8214 H         1 <0>         0.0896
      5 C4         -1.4157   -2.0577   -0.1212 C.3       1 <0>        -0.1653
      6 N1         -2.0815   -0.1618    1.2729 N.am      1 <0>        -0.7250
      7 C5         -3.4235   -0.0535    1.3341 C.2       1 <0>         0.5182
      8 O1         -4.0945   -0.2639    0.3460 O.2       1 <0>        -0.5318
      9 C6         -4.0903    0.3291    2.6303 C.3       1 <0>        -0.1546
     10 C7         -5.6060    0.3810    2.4282 C.3       1 <0>         0.1535
     11 N2         -6.2542    0.7529    3.6883 N.am      1 <0>        -0.7471
     12 C8         -7.5962    0.8612    3.7495 C.2       1 <0>         0.7053
     13 O2         -8.2689    0.6502    2.7589 O.2       1 <0>        -0.5850
     14 N3         -8.1925    1.2033    4.9087 N.am      1 <0>        -0.7407
     15 C9         -9.6513    1.3210    4.9752 C.3       1 <0>         0.1108
     16 C10       -10.0668    1.7179    6.3932 C.3       1 <0>         0.1000
     17 H2         -9.6555    1.0030    7.1058 H         1 <0>         0.1189
     18 C11       -11.5934    1.7195    6.4957 C.3       1 <0>         0.0288
     19 O3        -11.9797    1.9758    7.8474 O.3       1 <0>        -0.2968
     20 C12       -13.3130    2.0110    8.1122 C.ar      1 <0>         0.1436
     21 C13       -14.2282    1.7973    7.0922 C.ar      1 <0>        -0.2010
     22 C14       -15.5839    1.8327    7.3592 C.ar      1 <0>        -0.0577
     23 C15       -16.0323    2.0816    8.6460 C.ar      1 <0>        -0.0062
     24 C16       -15.1153    2.2965    9.6717 C.ar      1 <0>         0.0753
     25 C17       -13.7569    2.2550    9.4029 C.ar      1 <0>        -0.1342
     26 O4        -15.8011    2.5171   10.8312 O.3       1 <0>        -0.3051
     27 C18       -17.1449    2.8404   10.4278 C.3       1 <0>         0.2136
     28 O5        -17.2936    2.1677    9.1635 O.3       1 <0>        -0.3078
     29 O6         -9.5683    3.0244    6.6876 O.3       1 <0>        -0.5473
     30 H3          1.0039    1.9031    0.0027 H         1 <0>         0.0575
     31 H4         -0.5459    1.8868   -0.8726 H         1 <0>         0.0562
     32 H5         -0.5289    1.8773    0.9072 H         1 <0>         0.0541
     33 H6          0.5123   -0.3556   -0.8948 H         1 <0>         0.0798
     34 H7          0.5293   -0.3651    0.8851 H         1 <0>         0.0681
     35 H8         -2.4383   -2.4349   -0.1135 H         1 <0>         0.0614
     36 H9         -0.9334   -2.3344   -1.0587 H         1 <0>         0.0668
     37 H10        -0.8628   -2.4894    0.7131 H         1 <0>         0.0567
     38 H11        -1.5448    0.0065    2.0632 H         1 <0>         0.4000
     39 H12        -3.8507   -0.4106    3.3943 H         1 <0>         0.1012
     40 H13        -3.7323    1.3084    2.9478 H         1 <0>         0.1012
     41 H14        -5.8456    1.1206    1.6643 H         1 <0>         0.0765
     42 H15        -5.9640   -0.5984    2.1107 H         1 <0>         0.0765
     43 H16        -5.7175    0.9212    4.4786 H         1 <0>         0.3965
     44 H17        -7.6558    1.3716    5.6990 H         1 <0>         0.4019
     45 H18        -9.9868    2.0829    4.2716 H         1 <0>         0.0757
     46 H19       -10.1051    0.3639    4.7180 H         1 <0>         0.0813
     47 H20       -12.0002    2.4960    5.8480 H         1 <0>         0.0744
     48 H21       -11.9793    0.7485    6.1854 H         1 <0>         0.0802
     49 H22       -13.8812    1.6035    6.0881 H         1 <0>         0.1431
     50 H23       -16.2947    1.6663    6.5632 H         1 <0>         0.1404
     51 H24       -13.0439    2.4169   10.1977 H         1 <0>         0.1454
     52 H25       -17.8646    2.4583   11.1519 H         1 <0>         0.1341
     53 H26       -17.2592    3.9173   10.3045 H         1 <0>         0.0866
     54 H27        -9.8936    3.7130    6.0916 H         1 <0>         0.3796
@<TRIPOS>BOND
     1    1    2 1
     2    1   30 1
     3    1   31 1
     4    1   32 1
     5    2    3 1
     6    2   33 1
     7    2   34 1
     8    3    4 1
     9    3    5 1
    10    3    6 1
    11    5   35 1
    12    5   36 1
    13    5   37 1
    14    6    7 am
    15    6   38 1
    16    7    8 2
    17    7    9 1
    18    9   10 1
    19    9   39 1
    20    9   40 1
    21   10   11 1
    22   10   41 1
    23   10   42 1
    24   11   12 am
    25   11   43 1
    26   12   13 2
    27   12   14 am
    28   14   15 1
    29   14   44 1
    30   15   16 1
    31   15   45 1
    32   15   46 1
    33   16   17 1
    34   16   18 1
    35   16   29 1
    36   18   19 1
    37   18   47 1
    38   18   48 1
    39   19   20 1
    40   20   25 ar
    41   20   21 ar
    42   21   22 ar
    43   21   49 1
    44   22   23 ar
    45   22   50 1
    46   23   28 1
    47   23   24 ar
    48   24   25 ar
    49   24   26 1
    50   25   51 1
    51   26   27 1
    52   27   28 1
    53   27   52 1
    54   27   53 1
    55   29   54 1
@<TRIPOS>MOLECULE
ZINC07606655
   52    53     0     0     0
SMALL
USER_CHARGES
1-[(2-isopropyl-6-methyl-phenyl)carbamoyl]ethyl 2-methyl-3-nitro-benzoate
@<TRIPOS>ATOM
      1 C1          1.7053    1.9899   -1.6887 C.3       1 <0>        -0.1110
      2 C2          1.3039    1.5737   -0.2971 C.ar      1 <0>        -0.0687
      3 C3         -0.0107    1.2486   -0.0248 C.ar      1 <0>        -0.1139
      4 C4         -0.3797    0.8662    1.2516 C.ar      1 <0>        -0.1125
      5 C5          0.5654    0.8082    2.2597 C.ar      1 <0>        -0.1101
      6 C6          1.8813    1.1315    1.9939 C.ar      1 <0>        -0.0778
      7 C7          2.2553    1.5157    0.7126 C.ar      1 <0>         0.1341
      8 N1          3.5880    1.8434    0.4398 N.am      1 <0>        -0.6696
      9 C8          3.8897    3.0368   -0.1090 C.2       1 <0>         0.5172
     10 O1          3.0136    3.8517   -0.3080 O.2       1 <0>        -0.4919
     11 C9          5.3155    3.3588   -0.4756 C.3       1 <0>         0.0747
     12 H1          5.9537    3.2280    0.3983 H         1 <0>         0.1165
     13 C10         5.7797    2.4201   -1.5911 C.3       1 <0>        -0.1689
     14 O2          5.3987    4.7339   -0.9343 O.3       1 <0>        -0.3213
     15 C11         6.5595    5.3820   -0.7169 C.2       1 <0>         0.5155
     16 O3          7.4771    4.8139   -0.1595 O.2       1 <0>        -0.4840
     17 C12         6.7165    6.7836   -1.1565 C.ar      1 <0>        -0.1353
     18 C13         5.7260    7.3907   -1.9314 C.ar      1 <0>        -0.0028
     19 C14         5.8790    8.6996   -2.3384 C.ar      1 <0>        -0.1366
     20 C15         7.0109    9.4110   -1.9806 C.ar      1 <0>        -0.0131
     21 C16         7.9960    8.8157   -1.2131 C.ar      1 <0>        -0.0640
     22 C17         7.8530    7.5089   -0.7943 C.ar      1 <0>         0.0524
     23 C18         8.9243    6.8639    0.0469 C.3       1 <0>        -0.1601
     24 N2          9.2029    9.5845   -0.8348 N.pl3     1 <0>         0.0321
     25 O4          9.2754   10.7718   -1.0966 O.2       1 <0>        -0.1566
     26 O5         10.1234    9.0298   -0.2618 O.3       1 <0>        -0.1490
     27 C19         2.9107    1.0671    3.0927 C.3       1 <0>        -0.0568
     28 C20         2.5154    2.0249    4.2185 C.3       1 <0>        -0.1438
     29 C21         2.9844   -0.3599    3.6395 C.3       1 <0>        -0.1452
     30 H2          1.4868    3.0486   -1.8286 H         1 <0>         0.0827
     31 H3          2.7730    1.8181   -1.8256 H         1 <0>         0.0561
     32 H4          1.1465    1.4042   -2.4186 H         1 <0>         0.0652
     33 H5         -0.7503    1.2889   -0.8108 H         1 <0>         0.1264
     34 H6         -1.4082    0.6125    1.4619 H         1 <0>         0.1257
     35 H7          0.2739    0.5094    3.2558 H         1 <0>         0.1263
     36 H8          4.2947    1.2118    0.6458 H         1 <0>         0.4098
     37 H9          5.7173    1.3878   -1.2468 H         1 <0>         0.0854
     38 H10         5.1415    2.5509   -2.4650 H         1 <0>         0.0773
     39 H11         6.8110    2.6530   -1.8562 H         1 <0>         0.0809
     40 H12         4.8424    6.8365   -2.2116 H         1 <0>         0.1608
     41 H13         5.1140    9.1703   -2.9381 H         1 <0>         0.1597
     42 H14         7.1255   10.4358   -2.3017 H         1 <0>         0.1625
     43 H15         9.6543    6.3806   -0.6024 H         1 <0>         0.0985
     44 H16         9.4210    7.6249    0.6487 H         1 <0>         0.1051
     45 H17         8.4724    6.1198    0.7027 H         1 <0>         0.1049
     46 H18         3.8842    1.3549    2.6958 H         1 <0>         0.0732
     47 H19         1.5419    1.7371    4.6153 H         1 <0>         0.0594
     48 H20         3.2599    1.9783    5.0132 H         1 <0>         0.0599
     49 H21         2.4629    3.0415    3.8289 H         1 <0>         0.0549
     50 H22         3.2659   -1.0422    2.8374 H         1 <0>         0.0559
     51 H23         3.7289   -0.4065    4.4342 H         1 <0>         0.0604
     52 H24         2.0108   -0.6477    4.0363 H         1 <0>         0.0597
@<TRIPOS>BOND
     1    1    2 1
     2    1   30 1
     3    1   31 1
     4    1   32 1
     5    2    7 ar
     6    2    3 ar
     7    3    4 ar
     8    3   33 1
     9    4    5 ar
    10    4   34 1
    11    5    6 ar
    12    5   35 1
    13    6    7 ar
    14    6   27 1
    15    7    8 1
    16    8    9 am
    17    8   36 1
    18    9   10 2
    19    9   11 1
    20   11   12 1
    21   11   13 1
    22   11   14 1
    23   13   37 1
    24   13   38 1
    25   13   39 1
    26   14   15 1
    27   15   16 2
    28   15   17 1
    29   17   22 ar
    30   17   18 ar
    31   18   19 ar
    32   18   40 1
    33   19   20 ar
    34   19   41 1
    35   20   21 ar
    36   20   42 1
    37   21   22 ar
    38   21   24 1
    39   22   23 1
    40   23   43 1
    41   23   44 1
    42   23   45 1
    43   24   25 2
    44   24   26 1
    45   27   28 1
    46   27   29 1
    47   27   46 1
    48   28   47 1
    49   28   48 1
    50   28   49 1
    51   29   50 1
    52   29   51 1
    53   29   52 1
@<TRIPOS>MOLECULE
ZINC21880605
   45    47     0     0     0
SMALL
USER_CHARGES
ethyl (2R)-2-[[3-(4-fluorophenyl)isoxazolo[4,5-e]pyrimidin-4-yl]amino]-3-methyl-butanoate
@<TRIPOS>ATOM
      1 C1          1.6837    7.4185   -6.3824 C.3       1 <0>        -0.1561
      2 C2          1.3330    6.3948   -5.3008 C.3       1 <0>         0.0555
      3 O1          2.5540    5.8836   -4.7040 O.3       1 <0>        -0.3399
      4 C3          2.4201    4.9692   -3.7306 C.2       1 <0>         0.4635
      5 O2          1.3190    4.6078   -3.3885 O.2       1 <0>        -0.5035
      6 C4          3.6430    4.3932   -3.0644 C.3       1 <0>         0.1604
      7 H1          4.2530    3.8560   -3.8056 H         1 <0>         0.1384
      8 C5          4.4432    5.5190   -2.4064 C.3       1 <0>        -0.0972
      9 C6          5.6848    4.9343   -1.7300 C.3       1 <0>        -0.1391
     10 C7          4.8714    6.5304   -3.4716 C.3       1 <0>        -0.1593
     11 N1          3.2330    3.4248   -2.0444 N.pl3     1 <0>        -0.7011
     12 C8          4.0939    2.4132   -1.6672 C.ar      1 <0>         0.5291
     13 C9          3.7691    1.5467   -0.6225 C.ar      1 <0>        -0.3282
     14 C10         2.6608    1.3487    0.3193 C.2       1 <0>         0.1255
     15 N2          3.0195    0.3261    1.0565 N.2       1 <0>        -0.3078
     16 O3          4.0971   -0.1286    0.7473 O.3       1 <0>         0.0947
     17 C11         4.6756    0.5270   -0.2694 C.ar      1 <0>         0.2925
     18 N3          5.8104    0.4300   -0.9494 N.ar      1 <0>        -0.5357
     19 C12         6.0802    1.2685   -1.9294 C.ar      1 <0>         0.3899
     20 N4          5.2586    2.2362   -2.2908 N.ar      1 <0>        -0.5808
     21 C13         1.4098    2.1382    0.4192 C.ar      1 <0>        -0.0387
     22 C14         0.9337    2.5390    1.6668 C.ar      1 <0>        -0.0560
     23 C15        -0.2339    3.2681    1.7554 C.ar      1 <0>        -0.1432
     24 C16        -0.9273    3.6120    0.6059 C.ar      1 <0>         0.1161
     25 C17        -0.4579    3.2158   -0.6363 C.ar      1 <0>        -0.1326
     26 C18         0.7058    2.4816   -0.7341 C.ar      1 <0>        -0.0864
     27 F1         -2.0677    4.3306    0.6970 F         1 <0>        -0.1306
     28 H2          0.7587    7.8057   -6.8345 H         1 <0>         0.0832
     29 H3          2.2972    6.9368   -7.1580 H         1 <0>         0.0696
     30 H4          2.2474    8.2489   -5.9323 H         1 <0>         0.0693
     31 H5          0.7195    6.8765   -4.5252 H         1 <0>         0.0739
     32 H6          0.7693    5.5644   -5.7509 H         1 <0>         0.0737
     33 H7          3.8180    6.0216   -1.6538 H         1 <0>         0.0751
     34 H8          6.2601    5.7438   -1.2569 H         1 <0>         0.0582
     35 H9          6.3099    4.4316   -2.4827 H         1 <0>         0.0755
     36 H10         5.3770    4.2072   -0.9641 H         1 <0>         0.0455
     37 H11         5.4467    7.3398   -2.9984 H         1 <0>         0.0632
     38 H12         3.9788    6.9508   -3.9579 H         1 <0>         0.0786
     39 H13         5.4965    6.0277   -4.2243 H         1 <0>         0.0644
     40 H14         2.2394    3.5036   -1.5791 H         1 <0>         0.4428
     41 H15         7.0143    1.1589   -2.4603 H         1 <0>         0.2177
     42 H16         1.4759    2.2752    2.5628 H         1 <0>         0.1425
     43 H17        -0.6060    3.5748    2.7217 H         1 <0>         0.1475
     44 H18        -1.0041    3.4820   -1.5291 H         1 <0>         0.1491
     45 H19         1.0707    2.1729   -1.7026 H         1 <0>         0.1408
@<TRIPOS>BOND
     1    1    2 1
     2    1   28 1
     3    1   29 1
     4    1   30 1
     5    2    3 1
     6    2   31 1
     7    2   32 1
     8    3    4 1
     9    4    5 2
    10    4    6 1
    11    6    7 1
    12    6    8 1
    13    6   11 1
    14    8    9 1
    15    8   10 1
    16    8   33 1
    17    9   34 1
    18    9   35 1
    19    9   36 1
    20   10   37 1
    21   10   38 1
    22   10   39 1
    23   11   12 1
    24   11   40 1
    25   12   20 ar
    26   12   13 ar
    27   13   17 ar
    28   13   14 1
    29   14   15 2
    30   14   21 1
    31   15   16 1
    32   16   17 1
    33   17   18 ar
    34   18   19 ar
    35   19   20 ar
    36   19   41 1
    37   21   26 ar
    38   21   22 ar
    39   22   23 ar
    40   22   42 1
    41   23   24 ar
    42   23   43 1
    43   24   25 ar
    44   24   27 1
    45   25   26 ar
    46   25   44 1
    47   26   45 1
@<TRIPOS>MOLECULE
ZINC06838606
   42    43     0     0     0
SMALL
USER_CHARGES

@<TRIPOS>ATOM
      1 C1          0.0010    1.5369    0.0371 C.3       1 <0>        -0.1530
      2 C2          0.0160    0.0071    0.0186 C.3       1 <0>        -0.1445
      3 C3          0.7508   -0.5107    1.2567 C.3       1 <0>         0.1014
      4 N1          0.7652   -1.9755    1.2390 N.am      1 <0>        -0.6208
      5 C4          1.8667   -2.6894    0.5885 C.3       1 <0>         0.2311
      6 C5          2.9632   -2.9419    1.5910 C.2       1 <0>         0.1713
      7 N2          3.0653   -3.9954    2.3444 N.2       1 <0>        -0.4097
      8 C6          4.1791   -3.8673    3.1162 C.2       1 <0>        -0.0621
      9 C7          4.7543   -2.6759    2.7937 C.2       1 <0>         0.0373
     10 O1          3.9902   -2.1176    1.8418 O.3       1 <0>        -0.1891
     11 C8          4.6691   -4.8345    4.1128 C.2       1 <0>         0.5541
     12 O2          5.6834   -4.5997    4.7399 O.2       1 <0>        -0.4995
     13 O3          3.9929   -5.9800    4.3296 O.3       1 <0>        -0.3288
     14 C9          4.5254   -6.8721    5.3106 C.3       1 <0>         0.0325
     15 C10        -0.2349   -2.6663    1.8213 C.2       1 <0>         0.7067
     16 O4         -0.2230   -3.8820    1.8066 O.2       1 <0>        -0.5426
     17 N3         -1.2483   -2.0095    2.4198 N.am      1 <0>        -0.6819
     18 C11        -2.3346   -2.7232    2.9399 C.ar      1 <0>         0.1792
     19 C12        -3.6135   -2.1852    2.8789 C.ar      1 <0>        -0.1303
     20 C13        -4.6839   -2.8906    3.3926 C.ar      1 <0>        -0.0780
     21 C14        -4.4835   -4.1328    3.9683 C.ar      1 <0>        -0.0483
     22 C15        -3.2095   -4.6720    4.0307 C.ar      1 <0>        -0.0111
     23 C16        -2.1359   -3.9722    3.5122 C.ar      1 <0>        -0.1010
     24 Cl1        -2.9615   -6.2307    4.7537 Cl        1 <0>        -0.0404
     25 Cl2        -5.8311   -5.0164    4.6141 Cl        1 <0>        -0.0476
     26 H1          1.0250    1.9104    0.0345 H         1 <0>         0.0590
     27 H2         -0.5225    1.9058   -0.8450 H         1 <0>         0.0622
     28 H3         -0.5103    1.8844    0.9348 H         1 <0>         0.0569
     29 H4         -1.0080   -0.3664    0.0212 H         1 <0>         0.0677
     30 H5          0.5272   -0.3404   -0.8791 H         1 <0>         0.0731
     31 H6          1.7748   -0.1372    1.2542 H         1 <0>         0.0910
     32 H7          0.2395   -0.1631    2.1545 H         1 <0>         0.0769
     33 H8          1.5037   -3.6408    0.1997 H         1 <0>         0.1360
     34 H9          2.2562   -2.0865   -0.2319 H         1 <0>         0.1176
     35 H10         5.6562   -2.2614    3.2194 H         1 <0>         0.2369
     36 H11         3.8870   -7.7523    5.3860 H         1 <0>         0.1076
     37 H12         5.5304   -7.1762    5.0177 H         1 <0>         0.0639
     38 H13         4.5653   -6.3683    6.2764 H         1 <0>         0.0634
     39 H14        -1.2249   -1.0424    2.4901 H         1 <0>         0.4107
     40 H15        -3.7709   -1.2154    2.4304 H         1 <0>         0.1416
     41 H16        -5.6784   -2.4722    3.3451 H         1 <0>         0.1481
     42 H17        -1.1430   -4.3948    3.5565 H         1 <0>         0.1624
@<TRIPOS>BOND
     1    1    2 1
     2    1   26 1
     3    1   27 1
     4    1   28 1
     5    2    3 1
     6    2   29 1
     7    2   30 1
     8    3    4 1
     9    3   31 1
    10    3   32 1
    11    4    5 1
    12    4   15 am
    13    5    6 1
    14    5   33 1
    15    5   34 1
    16    6   10 1
    17    6    7 2
    18    7    8 1
    19    8    9 2
    20    8   11 1
    21    9   10 1
    22    9   35 1
    23   11   12 2
    24   11   13 1
    25   13   14 1
    26   14   36 1
    27   14   37 1
    28   14   38 1
    29   15   16 2
    30   15   17 am
    31   17   18 1
    32   17   39 1
    33   18   23 ar
    34   18   19 ar
    35   19   20 ar
    36   19   40 1
    37   20   21 ar
    38   20   41 1
    39   21   22 ar
    40   21   25 1
    41   22   23 ar
    42   22   24 1
    43   23   42 1
@<TRIPOS>MOLECULE
ZINC59148371
   44    46     0     0     0
SMALL
USER_CHARGES

@<TRIPOS>ATOM
      1 C1         -0.0173    1.4248    0.0099 C.3       1 <0>         0.0339
      2 O1          0.0021   -0.0041    0.0020 O.3       1 <0>        -0.3495
      3 C2         -1.1901   -0.6321    0.0100 C.2       1 <0>         0.5051
      4 O2         -2.2179    0.0157    0.0233 O.2       1 <0>        -0.4996
      5 C3         -1.2473   -2.1063    0.0027 C.ar      1 <0>        -0.1141
      6 C4         -0.0643   -2.8518   -0.0069 C.ar      1 <0>        -0.0638
      7 C5         -0.1170   -4.2166   -0.0141 C.ar      1 <0>        -0.1038
      8 C6         -1.3545   -4.8686   -0.0116 C.ar      1 <0>        -0.0174
      9 C7         -2.5378   -4.1227   -0.0016 C.ar      1 <0>        -0.0921
     10 C8         -2.4845   -2.7579    0.0110 C.ar      1 <0>        -0.0558
     11 C9         -1.4117   -6.3406   -0.0199 C.2       1 <0>         0.0996
     12 N1         -2.5604   -6.9458   -0.0176 N.2       1 <0>        -0.2181
     13 N2         -2.6148   -8.3457   -0.0255 N.am      1 <0>        -0.5851
     14 C10        -3.8072   -8.9738   -0.0231 C.2       1 <0>         0.5303
     15 O3         -4.8333   -8.3271   -0.0140 O.2       1 <0>        -0.4968
     16 C11        -3.8656  -10.4797   -0.0316 C.3       1 <0>        -0.1300
     17 C12        -5.3268  -10.9334   -0.0267 C.3       1 <0>        -0.0614
     18 C13        -5.3853  -12.4392   -0.0353 C.ar      1 <0>        -0.0755
     19 C14        -5.4124  -13.1216   -1.2373 C.ar      1 <0>        -0.1038
     20 C15        -5.4655  -14.5029   -1.2503 C.ar      1 <0>        -0.0971
     21 C16        -5.4922  -15.2070   -0.0574 C.ar      1 <0>         0.0292
     22 C17        -5.4649  -14.5196    1.1535 C.ar      1 <0>         0.0342
     23 C18        -5.4059  -13.1354    1.1588 C.ar      1 <0>        -0.0960
     24 O4         -5.4997  -15.4280    2.1717 O.3       1 <0>        -0.3089
     25 C19        -5.9601  -16.6555    1.5763 C.3       1 <0>         0.2130
     26 O5         -5.5440  -16.5461    0.2022 O.3       1 <0>        -0.3090
     27 H1          1.0053    1.8021    0.0021 H         1 <0>         0.1051
     28 H2         -0.5445    1.7859   -0.8732 H         1 <0>         0.0626
     29 H3         -0.5275    1.7763    0.9067 H         1 <0>         0.0626
     30 H4          0.8912   -2.3483   -0.0088 H         1 <0>         0.1444
     31 H5          0.7967   -4.7923   -0.0222 H         1 <0>         0.1394
     32 H6         -3.4934   -4.6259   -0.0000 H         1 <0>         0.1460
     33 H7         -3.3980   -2.1820    0.0228 H         1 <0>         0.1428
     34 H8         -0.4980   -6.9165   -0.0280 H         1 <0>         0.1267
     35 H9         -1.7942   -8.8629   -0.0328 H         1 <0>         0.3894
     36 H10        -3.3709  -10.8574   -0.9264 H         1 <0>         0.1031
     37 H11        -3.3617  -10.8678    0.8535 H         1 <0>         0.1022
     38 H12        -5.8216  -10.5556    0.8680 H         1 <0>         0.0868
     39 H13        -5.8307  -10.5452   -0.9119 H         1 <0>         0.0891
     40 H14        -5.3924  -12.5744   -2.1682 H         1 <0>         0.1398
     41 H15        -5.4866  -15.0334   -2.1908 H         1 <0>         0.1372
     42 H16        -5.3801  -12.5999    2.0963 H         1 <0>         0.1364
     43 H17        -5.4862  -17.5137    2.0528 H         1 <0>         0.1333
     44 H18        -7.0455  -16.7301    1.6430 H         1 <0>         0.0860
@<TRIPOS>BOND
     1    1    2 1
     2    1   27 1
     3    1   28 1
     4    1   29 1
     5    2    3 1
     6    3    4 2
     7    3    5 1
     8    5   10 ar
     9    5    6 ar
    10    6    7 ar
    11    6   30 1
    12    7    8 ar
    13    7   31 1
    14    8    9 ar
    15    8   11 1
    16    9   10 ar
    17    9   32 1
    18   10   33 1
    19   11   12 2
    20   11   34 1
    21   12   13 1
    22   13   14 am
    23   13   35 1
    24   14   15 2
    25   14   16 1
    26   16   17 1
    27   16   36 1
    28   16   37 1
    29   17   18 1
    30   17   38 1
    31   17   39 1
    32   18   23 ar
    33   18   19 ar
    34   19   20 ar
    35   19   40 1
    36   20   21 ar
    37   20   41 1
    38   21   26 1
    39   21   22 ar
    40   22   23 ar
    41   22   24 1
    42   23   42 1
    43   24   25 1
    44   25   26 1
    45   25   43 1
    46   25   44 1
@<TRIPOS>MOLECULE
ZINC67462510
   59    61     0     0     0
SMALL
USER_CHARGES

@<TRIPOS>ATOM
      1 C1          0.0428    1.5343    0.0143 C.3       1 <0>        -0.1643
      2 C2         -0.0567    0.0077    0.0323 C.3       1 <0>         0.2046
      3 H1         -1.1057   -0.2882    0.0165 H         1 <0>         0.1130
      4 C3          0.5963   -0.5236    1.2822 C.ar      1 <0>        -0.1349
      5 C4          1.4430    0.2842    2.0168 C.ar      1 <0>        -0.0726
      6 C5          2.0428   -0.2027    3.1632 C.ar      1 <0>        -0.1601
      7 C6          1.7968   -1.4988    3.5780 C.ar      1 <0>        -0.0749
      8 C7          0.9509   -2.3102    2.8474 C.ar      1 <0>        -0.2130
      9 C8          0.3435   -1.8221    1.6993 C.ar      1 <0>         0.1458
     10 O1         -0.4936   -2.6166    0.9818 O.3       1 <0>        -0.3014
     11 C9         -0.7075   -3.9423    1.4706 C.3       1 <0>         0.0279
     12 N1          0.6229   -0.5399   -1.1443 N.am      1 <0>        -0.6193
     13 C10         2.0712   -0.3787   -1.2949 C.3       1 <0>         0.0800
     14 C11        -0.0843   -1.1921   -2.0883 C.2       1 <0>         0.7104
     15 O2         -1.2863   -1.3260   -1.9633 O.2       1 <0>        -0.5815
     16 N2          0.5410   -1.6959   -3.1707 N.am      1 <0>        -0.7484
     17 C12        -0.2277   -2.4049   -4.1968 C.3       1 <0>         0.1403
     18 C13         0.7144   -2.8713   -5.3085 C.3       1 <0>        -0.1256
     19 C14        -0.0884   -3.6117   -6.3801 C.3       1 <0>        -0.0278
     20 C15         0.8395   -4.0711   -7.4750 C.2       1 <0>         0.1739
     21 N3          1.1679   -3.3993   -8.5468 N.2       1 <0>        -0.2902
     22 N4          1.9863   -4.0921   -9.2596 N.2       1 <0>        -0.2923
     23 C16         2.2178   -5.2317   -8.6730 C.2       1 <0>         0.1800
     24 N5          1.4929   -5.2527   -7.5301 N.pl3     1 <0>        -0.4658
     25 C17         1.4232   -6.3484   -6.5629 C.3       1 <0>         0.1022
     26 C18         2.7318   -7.1426   -6.5994 C.3       1 <0>        -0.1408
     27 C19         2.6289   -8.2575   -7.6392 C.3       1 <0>        -0.1254
     28 C20         2.4029   -7.6723   -9.0299 C.3       1 <0>        -0.1246
     29 C21         3.1275   -6.3338   -9.1506 C.3       1 <0>        -0.0374
     30 H2          1.0918    1.8302    0.0300 H         1 <0>         0.0609
     31 H3         -0.4295    1.9186   -0.8898 H         1 <0>         0.0641
     32 H4         -0.4628    1.9418    0.8897 H         1 <0>         0.0720
     33 H5          1.6367    1.2968    1.6949 H         1 <0>         0.1335
     34 H6          2.7048    0.4301    3.7357 H         1 <0>         0.1247
     35 H7          2.2669   -1.8769    4.4738 H         1 <0>         0.1243
     36 H8          0.7591   -3.3223    3.1718 H         1 <0>         0.1273
     37 H9         -1.3940   -4.4679    0.8068 H         1 <0>         0.0996
     38 H10         0.2431   -4.4745    1.5055 H         1 <0>         0.0524
     39 H11        -1.1348   -3.8957    2.4723 H         1 <0>         0.0552
     40 H12         2.5770   -1.2671   -0.9167 H         1 <0>         0.0515
     41 H13         2.3141   -0.2433   -2.3488 H         1 <0>         0.0633
     42 H14         2.4001    0.4943   -0.7312 H         1 <0>         0.0767
     43 H15         1.4999   -1.5892   -3.2704 H         1 <0>         0.3951
     44 H16        -0.7189   -3.2694   -3.7503 H         1 <0>         0.0674
     45 H17        -0.9796   -1.7355   -4.6148 H         1 <0>         0.0715
     46 H18         1.2056   -2.0067   -5.7550 H         1 <0>         0.0801
     47 H19         1.4663   -3.5407   -4.8905 H         1 <0>         0.0670
     48 H20        -0.5796   -4.4762   -5.9335 H         1 <0>         0.0858
     49 H21        -0.8403   -2.9423   -6.7980 H         1 <0>         0.1060
     50 H22         1.2725   -5.9416   -5.5629 H         1 <0>         0.0961
     51 H23         0.5917   -7.0056   -6.8174 H         1 <0>         0.0907
     52 H24         3.5533   -6.4762   -6.8624 H         1 <0>         0.0812
     53 H25         2.9191   -7.5782   -5.6179 H         1 <0>         0.0893
     54 H26         3.5524   -8.8365   -7.6383 H         1 <0>         0.0748
     55 H27         1.7948   -8.9113   -7.3842 H         1 <0>         0.0707
     56 H28         2.7880   -8.3620   -9.7809 H         1 <0>         0.0824
     57 H29         1.3356   -7.5200   -9.1906 H         1 <0>         0.0646
     58 H30         3.4022   -6.1549  -10.1901 H         1 <0>         0.1016
     59 H31         4.0259   -6.3579   -8.5338 H         1 <0>         0.0921
@<TRIPOS>BOND
     1    1    2 1
     2    1   30 1
     3    1   31 1
     4    1   32 1
     5    2    3 1
     6    2    4 1
     7    2   12 1
     8    4    9 ar
     9    4    5 ar
    10    5    6 ar
    11    5   33 1
    12    6    7 ar
    13    6   34 1
    14    7    8 ar
    15    7   35 1
    16    8    9 ar
    17    8   36 1
    18    9   10 1
    19   10   11 1
    20   11   37 1
    21   11   38 1
    22   11   39 1
    23   12   13 1
    24   12   14 am
    25   13   40 1
    26   13   41 1
    27   13   42 1
    28   14   15 2
    29   14   16 am
    30   16   17 1
    31   16   43 1
    32   17   18 1
    33   17   44 1
    34   17   45 1
    35   18   19 1
    36   18   46 1
    37   18   47 1
    38   19   20 1
    39   19   48 1
    40   19   49 1
    41   20   24 1
    42   20   21 2
    43   21   22 1
    44   22   23 2
    45   23   29 1
    46   23   24 1
    47   24   25 1
    48   25   26 1
    49   25   50 1
    50   25   51 1
    51   26   27 1
    52   26   52 1
    53   26   53 1
    54   27   28 1
    55   27   54 1
    56   27   55 1
    57   28   29 1
    58   28   56 1
    59   28   57 1
    60   29   58 1
    61   29   59 1
@<TRIPOS>MOLECULE
ZINC08198598
   39    40     0     0     0
SMALL
USER_CHARGES
N'-[2-[(3-chlorophenyl)methylsulfanyl]acetyl]-3-nitro-benzohydrazide
@<TRIPOS>ATOM
      1 C1          6.9470   13.5895    1.2085 C.ar      1 <0>        -0.1054
      2 C2          5.6992   12.9938    1.2159 C.ar      1 <0>        -0.0954
      3 C3          5.0683   12.6952    0.0229 C.ar      1 <0>        -0.0639
      4 C4          5.6799   13.0015   -1.1783 C.ar      1 <0>        -0.0915
      5 C5          6.9259   13.6023   -1.1864 C.ar      1 <0>        -0.0346
      6 C6          7.5594   13.8963    0.0082 C.ar      1 <0>        -0.1030
      7 Cl1         7.6943   13.9878   -2.6946 Cl        1 <0>        -0.0646
      8 C7          3.7107   12.0412    0.0318 C.3       1 <0>        -0.0665
      9 S1          3.9081   10.2380    0.0203 S.3       1 <0>        -0.1563
     10 C8          2.2062    9.6101    0.0326 C.3       1 <0>        -0.1288
     11 C9          2.2267    8.1033    0.0243 C.2       1 <0>         0.5357
     12 O1          3.2851    7.5112    0.0114 O.2       1 <0>        -0.5115
     13 N1          1.0688    7.4136    0.0312 N.am      1 <0>        -0.5174
     14 N2          1.0878    6.0127    0.0235 N.am      1 <0>        -0.5142
     15 C10        -0.0702    5.3230    0.0304 C.2       1 <0>         0.5660
     16 O2         -1.1309    5.9164    0.0433 O.2       1 <0>        -0.5195
     17 C11        -0.0501    3.8447    0.0223 C.ar      1 <0>        -0.1266
     18 C12         1.1664    3.1602    0.0074 C.ar      1 <0>        -0.0367
     19 C13         1.1781    1.7809    0.0004 C.ar      1 <0>        -0.1162
     20 C14        -0.0126    1.0758    0.0080 C.ar      1 <0>        -0.0253
     21 C15        -1.2216    1.7481    0.0173 C.ar      1 <0>        -0.0485
     22 C16        -1.2473    3.1276    0.0298 C.ar      1 <0>         0.0071
     23 N3         -2.4904    0.9858    0.0192 N.pl3     1 <0>         0.0247
     24 O3         -2.4692   -0.2320    0.0125 O.2       1 <0>        -0.1486
     25 O4         -3.5556    1.5763    0.0275 O.3       1 <0>        -0.1475
     26 H1          7.4413   13.8189    2.1409 H         1 <0>         0.1366
     27 H2          5.2191   12.7584    2.1542 H         1 <0>         0.1326
     28 H3          5.1851   12.7716   -2.1104 H         1 <0>         0.1363
     29 H4          8.5320   14.3656    0.0026 H         1 <0>         0.1361
     30 H5          3.1522   12.3512   -0.8514 H         1 <0>         0.0962
     31 H6          3.1685   12.3416    0.9285 H         1 <0>         0.0974
     32 H7          1.6794    9.9712   -0.8507 H         1 <0>         0.1204
     33 H8          1.6957    9.9616    0.9292 H         1 <0>         0.1204
     34 H9          0.2223    7.8871    0.0415 H         1 <0>         0.4364
     35 H10         1.9343    5.5392    0.0132 H         1 <0>         0.4334
     36 H11         2.0964    3.7094    0.0011 H         1 <0>         0.1483
     37 H12         2.1186    1.2501   -0.0115 H         1 <0>         0.1607
     38 H13         0.0021   -0.0041    0.0020 H         1 <0>         0.1635
     39 H14        -2.1918    3.6512    0.0416 H         1 <0>         0.1701
@<TRIPOS>BOND
     1    1    6 ar
     2    1    2 ar
     3    1   26 1
     4    2    3 ar
     5    2   27 1
     6    3    4 ar
     7    3    8 1
     8    4    5 ar
     9    4   28 1
    10    5    6 ar
    11    5    7 1
    12    6   29 1
    13    8    9 1
    14    8   30 1
    15    8   31 1
    16    9   10 1
    17   10   11 1
    18   10   32 1
    19   10   33 1
    20   11   12 2
    21   11   13 am
    22   13   14 1
    23   13   34 1
    24   14   15 am
    25   14   35 1
    26   15   16 2
    27   15   17 1
    28   17   22 ar
    29   17   18 ar
    30   18   19 ar
    31   18   36 1
    32   19   20 ar
    33   19   37 1
    34   20   21 ar
    35   20   38 1
    36   21   22 ar
    37   21   23 1
    38   22   39 1
    39   23   24 2
    40   23   25 1
@<TRIPOS>MOLECULE
ZINC18259526
   42    44     0     0     0
SMALL
USER_CHARGES
(4-aminoquinazolin-2-yl)methyl 4-(difluoromethoxy)-3-methoxy-benzoate
@<TRIPOS>ATOM
      1 C1          2.2508    5.2964    0.0071 C.3       1 <0>         0.0215
      2 O1          2.3392    3.8701   -0.0004 O.3       1 <0>        -0.3021
      3 C2          1.1680    3.1789    0.0071 C.ar      1 <0>         0.1062
      4 C3         -0.0346    3.8579    0.0217 C.ar      1 <0>        -0.1123
      5 C4         -1.2366    3.1441    0.0298 C.ar      1 <0>        -0.1111
      6 C5         -1.2158    1.7467    0.0173 C.ar      1 <0>        -0.0532
      7 C6         -0.0126    1.0758    0.0080 C.ar      1 <0>        -0.1697
      8 C7          1.1813    1.7847    0.0004 C.ar      1 <0>         0.1159
      9 O2          2.3645    1.1187   -0.0141 O.3       1 <0>        -0.3044
     10 C8          2.3052   -0.3091   -0.0207 C.3       1 <0>         0.4098
     11 F1          1.6377   -0.7534    1.1256 F         1 <0>        -0.1961
     12 F2          1.6163   -0.7419   -1.1588 F         1 <0>        -0.1964
     13 C9         -2.5235    3.8640    0.0454 C.2       1 <0>         0.5190
     14 O3         -2.5400    5.0790    0.0512 O.2       1 <0>        -0.5002
     15 O4         -3.6812    3.1745    0.0532 O.3       1 <0>        -0.3419
     16 C10        -4.9095    3.9486    0.0685 C.3       1 <0>         0.1432
     17 C11        -6.0920    3.0145    0.0754 C.ar      1 <0>         0.3684
     18 N1         -6.5725    2.6209    1.2310 N.ar      1 <0>        -0.5280
     19 C12        -7.6238    1.7898    1.2828 C.ar      1 <0>         0.1869
     20 C13        -8.1632    1.3496    2.4992 C.ar      1 <0>        -0.1052
     21 C14        -9.2331    0.5050    2.4945 C.ar      1 <0>        -0.0734
     22 C15        -9.8000    0.0716    1.2992 C.ar      1 <0>        -0.1283
     23 C16        -9.2999    0.4806    0.0980 C.ar      1 <0>        -0.0722
     24 C17        -8.2021    1.3477    0.0679 C.ar      1 <0>        -0.1948
     25 C18        -7.6388    1.8075   -1.1473 C.ar      1 <0>         0.4808
     26 N2         -6.6021    2.6325   -1.0844 N.ar      1 <0>        -0.5838
     27 N3         -8.1569    1.4125   -2.3621 N.pl3     1 <0>        -0.8175
     28 H1          1.7073    5.6314   -0.8764 H         1 <0>         0.0599
     29 H2          1.7236    5.6230    0.9035 H         1 <0>         0.0600
     30 H3          3.2540    5.7226   -0.0001 H         1 <0>         0.1067
     31 H4         -0.0464    4.9378    0.0266 H         1 <0>         0.1563
     32 H5         -2.1429    1.1928    0.0187 H         1 <0>         0.1475
     33 H6          0.0021   -0.0041    0.0020 H         1 <0>         0.1501
     34 H7          3.3169   -0.7146   -0.0322 H         1 <0>         0.1870
     35 H8         -4.9344    4.5729    0.9617 H         1 <0>         0.1025
     36 H9         -4.9514    4.5812   -0.8182 H         1 <0>         0.1008
     37 H10        -7.7336    1.6772    3.4344 H         1 <0>         0.1423
     38 H11        -9.6477    0.1671    3.4327 H         1 <0>         0.1358
     39 H12       -10.6475   -0.5974    1.3233 H         1 <0>         0.1326
     40 H13        -9.7477    0.1375   -0.8230 H         1 <0>         0.1280
     41 H14        -8.9177    0.8116   -2.3926 H         1 <0>         0.4143
     42 H15        -7.7606    1.7356   -3.1864 H         1 <0>         0.4148
@<TRIPOS>BOND
     1    1    2 1
     2    1   28 1
     3    1   29 1
     4    1   30 1
     5    2    3 1
     6    3    8 ar
     7    3    4 ar
     8    4    5 ar
     9    4   31 1
    10    5    6 ar
    11    5   13 1
    12    6    7 ar
    13    6   32 1
    14    7    8 ar
    15    7   33 1
    16    8    9 1
    17    9   10 1
    18   10   11 1
    19   10   12 1
    20   10   34 1
    21   13   14 2
    22   13   15 1
    23   15   16 1
    24   16   17 1
    25   16   35 1
    26   16   36 1
    27   17   26 ar
    28   17   18 ar
    29   18   19 ar
    30   19   24 ar
    31   19   20 ar
    32   20   21 ar
    33   20   37 1
    34   21   22 ar
    35   21   38 1
    36   22   23 ar
    37   22   39 1
    38   23   24 ar
    39   23   40 1
    40   24   25 ar
    41   25   26 ar
    42   25   27 1
    43   27   41 1
    44   27   42 1
@<TRIPOS>MOLECULE
ZINC45540850
   47    49     0     0     0
SMALL
USER_CHARGES

@<TRIPOS>ATOM
      1 C1         -0.0184    1.5028    0.0103 C.3       1 <0>        -0.1186
      2 C2          0.0021   -0.0041    0.0020 C.ar      1 <0>        -0.1026
      3 C3          0.0056   -0.6759   -1.1885 C.ar      1 <0>        -0.0580
      4 C4          0.0245   -2.0736   -1.1954 C.ar      1 <0>        -0.1482
      5 C5          0.0293   -2.8238   -2.4551 C.2       1 <0>         0.0187
      6 C6          0.0485   -4.1793   -2.3935 C.2       1 <0>        -0.2265
      7 C7          0.0631   -4.8247   -1.1379 C.2       1 <0>         0.5101
      8 O1          0.0802   -6.0416   -1.0965 O.2       1 <0>        -0.4586
      9 O2          0.0589   -4.1313    0.0110 O.3       1 <0>        -0.2703
     10 C8          0.0399   -2.7814    0.0195 C.ar      1 <0>         0.1495
     11 C9          0.0356   -2.0782    1.2171 C.ar      1 <0>        -0.1309
     12 C10         0.0229   -0.6988    1.2025 C.ar      1 <0>        -0.0271
     13 C11         0.0254    0.0609    2.5039 C.3       1 <0>        -0.1241
     14 C12         0.0129   -2.1092   -3.7818 C.3       1 <0>         0.1032
     15 O3          0.0216   -3.0694   -4.8401 O.3       1 <0>        -0.3498
     16 C13         0.0089   -2.5913   -6.0999 C.2       1 <0>         0.5075
     17 O4         -0.0091   -1.3921   -6.2945 O.2       1 <0>        -0.4680
     18 C14         0.0168   -3.5232   -7.2419 C.ar      1 <0>        -0.1588
     19 C15         0.0317   -4.9035   -7.0228 C.ar      1 <0>        -0.0216
     20 C16         0.0391   -5.7690   -8.0947 C.ar      1 <0>        -0.1683
     21 C17         0.0323   -5.2777   -9.3902 C.ar      1 <0>        -0.0377
     22 C18         0.0176   -3.9167   -9.6213 C.ar      1 <0>        -0.2252
     23 C19         0.0037   -3.0304   -8.5544 C.ar      1 <0>         0.1905
     24 O5         -0.0165   -1.6930   -8.7798 O.3       1 <0>        -0.2592
     25 C20        -0.0290   -1.2651  -10.1432 C.3       1 <0>         0.0317
     26 C21        -0.0508    0.2408  -10.1968 C.2       1 <0>         0.5168
     27 O6         -0.0552    0.8842   -9.1687 O.2       1 <0>        -0.5054
     28 N1         -0.0654    0.8726  -11.3872 N.am      1 <0>        -0.8513
     29 H1          1.0042    1.8801    0.0026 H         1 <0>         0.0757
     30 H2         -0.5455    1.8639   -0.8728 H         1 <0>         0.0712
     31 H3         -0.5286    1.8543    0.9071 H         1 <0>         0.0740
     32 H4         -0.0066   -0.1291   -2.1198 H         1 <0>         0.1392
     33 H5          0.0521   -4.7627   -3.3024 H         1 <0>         0.1721
     34 H6          0.0472   -2.6097    2.1571 H         1 <0>         0.1466
     35 H7         -1.0015    0.2305    2.8277 H         1 <0>         0.0817
     36 H8          0.5543   -0.5176    3.2613 H         1 <0>         0.0750
     37 H9          0.5253    1.0194    2.3642 H         1 <0>         0.0782
     38 H10        -0.8862   -1.4973   -3.8538 H         1 <0>         0.1003
     39 H11         0.8936   -1.4719   -3.8621 H         1 <0>         0.1003
     40 H12         0.0378   -5.2910   -6.0148 H         1 <0>         0.1466
     41 H13         0.0506   -6.8355   -7.9243 H         1 <0>         0.1371
     42 H14         0.0389   -5.9637  -10.2244 H         1 <0>         0.1357
     43 H15         0.0124   -3.5417  -10.6340 H         1 <0>         0.1391
     44 H16         0.8640   -1.6337  -10.6479 H         1 <0>         0.0980
     45 H17        -0.9157   -1.6592  -10.6396 H         1 <0>         0.0980
     46 H18        -0.0618    0.3580  -12.2095 H         1 <0>         0.4028
     47 H19        -0.0794    1.8419  -11.4217 H         1 <0>         0.4104
@<TRIPOS>BOND
     1    1    2 1
     2    1   29 1
     3    1   30 1
     4    1   31 1
     5    2   12 ar
     6    2    3 ar
     7    3    4 ar
     8    3   32 1
     9    4   10 ar
    10    4    5 1
    11    5    6 2
    12    5   14 1
    13    6    7 1
    14    6   33 1
    15    7    8 2
    16    7    9 1
    17    9   10 1
    18   10   11 ar
    19   11   12 ar
    20   11   34 1
    21   12   13 1
    22   13   35 1
    23   13   36 1
    24   13   37 1
    25   14   15 1
    26   14   38 1
    27   14   39 1
    28   15   16 1
    29   16   17 2
    30   16   18 1
    31   18   23 ar
    32   18   19 ar
    33   19   20 ar
    34   19   40 1
    35   20   21 ar
    36   20   41 1
    37   21   22 ar
    38   21   42 1
    39   22   23 ar
    40   22   43 1
    41   23   24 1
    42   24   25 1
    43   25   26 1
    44   25   44 1
    45   25   45 1
    46   26   27 2
    47   26   28 am
    48   28   46 1
    49   28   47 1
@<TRIPOS>MOLECULE
ZINC28851954
   41    42     0     0     0
SMALL
USER_CHARGES

@<TRIPOS>ATOM
      1 C1         -0.0022    1.5030    0.0051 C.3       1 <0>        -0.1247
      2 C2          0.0140   -0.0039   -0.0018 C.ar      1 <0>        -0.0438
      3 C3          1.2201   -0.6807   -0.0140 C.ar      1 <0>        -0.1309
      4 C4          1.2388   -2.0614   -0.0203 C.ar      1 <0>        -0.0537
      5 C5          0.0439   -2.7709   -0.0143 C.ar      1 <0>        -0.2101
      6 C6         -1.1660   -2.0875   -0.0021 C.ar      1 <0>        -0.0533
      7 C7         -1.1771   -0.7067    0.0099 C.ar      1 <0>        -0.1315
      8 S1          0.0629   -4.5327   -0.0229 S.3       1 <0>         0.1477
      9 C8          0.2260   -4.9655    1.6773 C.ar      1 <0>        -0.0280
     10 C9          0.1912   -3.9724    2.6539 C.ar      1 <0>        -0.1419
     11 C10         0.3173   -4.3046    3.9726 C.ar      1 <0>         0.0111
     12 C11         0.4812   -5.6440    4.3424 C.ar      1 <0>        -0.1399
     13 C12         0.5154   -6.6388    3.3596 C.ar      1 <0>         0.0321
     14 C13         0.3838   -6.3004    2.0426 C.ar      1 <0>        -0.0567
     15 N1          0.4141   -7.3530    1.0022 N.pl3     1 <0>         0.0375
     16 O1          0.5510   -8.5118    1.3186 O.2       1 <0>        -0.1506
     17 O2          0.3020   -7.0538   -0.1638 O.3       1 <0>        -0.1417
     18 C14         0.6181   -6.0059    5.7642 C.2       1 <0>         0.5176
     19 O3          0.7604   -7.1697    6.0840 O.2       1 <0>        -0.4911
     20 O4          0.5855   -5.0463    6.7099 O.3       1 <0>        -0.3184
     21 C15         0.7242   -5.4689    8.0680 C.3       1 <0>         0.0682
     22 H1          1.3375   -6.3691    8.1075 H         1 <0>         0.1150
     23 C16        -0.6578   -5.7673    8.6529 C.3       1 <0>        -0.1692
     24 C17         1.3836   -4.3762    8.8693 C.2       1 <0>         0.5228
     25 O5          1.6209   -3.3046    8.3531 O.2       1 <0>        -0.5190
     26 N2          1.7096   -4.5896   10.1595 N.am      1 <0>        -0.8462
     27 H2          0.0066    1.8618    1.0343 H         1 <0>         0.0785
     28 H3          0.8774    1.8782   -0.5181 H         1 <0>         0.0726
     29 H4         -0.9024    1.8589   -0.4961 H         1 <0>         0.0725
     30 H5          2.1483   -0.1287   -0.0190 H         1 <0>         0.1321
     31 H6          2.1809   -2.5893   -0.0302 H         1 <0>         0.1330
     32 H7         -2.0965   -2.6356    0.0026 H         1 <0>         0.1343
     33 H8         -2.1170   -0.1750    0.0242 H         1 <0>         0.1322
     34 H9          0.0646   -2.9387    2.3678 H         1 <0>         0.1542
     35 H10         0.2909   -3.5343    4.7291 H         1 <0>         0.1620
     36 H11         0.6418   -7.6735    3.6419 H         1 <0>         0.1724
     37 H12        -1.2711   -4.8671    8.6133 H         1 <0>         0.0761
     38 H13        -1.1347   -6.5576    8.0733 H         1 <0>         0.0788
     39 H14        -0.5520   -6.0896    9.6888 H         1 <0>         0.0844
     40 H15         1.5197   -5.4466   10.5723 H         1 <0>         0.4047
     41 H16         2.1340   -3.8863   10.6752 H         1 <0>         0.4108
@<TRIPOS>BOND
     1    1    2 1
     2    1   27 1
     3    1   28 1
     4    1   29 1
     5    2    7 ar
     6    2    3 ar
     7    3    4 ar
     8    3   30 1
     9    4    5 ar
    10    4   31 1
    11    5    6 ar
    12    5    8 1
    13    6    7 ar
    14    6   32 1
    15    7   33 1
    16    8    9 1
    17    9   14 ar
    18    9   10 ar
    19   10   11 ar
    20   10   34 1
    21   11   12 ar
    22   11   35 1
    23   12   13 ar
    24   12   18 1
    25   13   14 ar
    26   13   36 1
    27   14   15 1
    28   15   16 2
    29   15   17 1
    30   18   19 2
    31   18   20 1
    32   20   21 1
    33   21   22 1
    34   21   23 1
    35   21   24 1
    36   23   37 1
    37   23   38 1
    38   23   39 1
    39   24   25 2
    40   24   26 am
    41   26   40 1
    42   26   41 1
@<TRIPOS>MOLECULE
ZINC67006835
   44    46     0     0     0
SMALL
USER_CHARGES

@<TRIPOS>ATOM
      1 C1         -0.0184    1.5028    0.0103 C.3       1 <0>        -0.0746
      2 C2          0.0021   -0.0041    0.0020 C.2       1 <0>         0.0937
      3 C3          0.0079   -0.8165   -1.1370 C.2       1 <0>        -0.2548
      4 C4          0.0273   -2.1069   -0.7294 C.2       1 <0>         0.1175
      5 N1          0.0335   -2.1088    0.6290 N.pl3     1 <0>        -0.3073
      6 N2          0.0230   -0.7755    1.0590 N.2       1 <0>        -0.2637
      7 C5          0.0522   -3.2371    1.4494 C.2       1 <0>         0.4699
      8 N3          0.0726   -4.4842    1.0544 N.2       1 <0>        -0.2770
      9 N4          0.0856   -5.2685    2.0723 N.2       1 <0>        -0.2586
     10 C6          0.0742   -4.5661    3.1802 C.2       1 <0>         0.1289
     11 N5          0.0585   -3.2464    2.8201 N.pl3     1 <0>        -0.3006
     12 N6          0.0480   -2.1637    3.6529 N.3       1 <0>        -0.5656
     13 S1          0.0849   -5.2026    4.8232 S.3       1 <0>         0.0090
     14 C7          0.1151   -7.0021    4.5965 C.3       1 <0>        -0.0969
     15 C8          0.1266   -7.6883    5.9639 C.3       1 <0>        -0.1061
     16 C9          0.1521   -9.2061    5.7727 C.3       1 <0>         0.0664
     17 O1          0.1629   -9.8470    7.0499 O.3       1 <0>        -0.3094
     18 C10         0.1857  -11.2057    7.0582 C.ar      1 <0>         0.1441
     19 C11         0.2033  -11.9077    5.8613 C.ar      1 <0>        -0.2052
     20 C12         0.2270  -13.2887    5.8716 C.ar      1 <0>        -0.0654
     21 C13         0.2331  -13.9726    7.0733 C.ar      1 <0>        -0.1477
     22 C14         0.2152  -13.2755    8.2684 C.ar      1 <0>         0.0039
     23 C15         0.1972  -11.8928    8.2629 C.ar      1 <0>        -0.1457
     24 Cl1         0.2224  -14.1370    9.7756 Cl        1 <0>        -0.0583
     25 C16         0.0393   -3.3217   -1.6210 C.3       1 <0>        -0.1016
     26 H1          1.0042    1.8801    0.0026 H         1 <0>         0.0831
     27 H2         -0.5455    1.8639   -0.8728 H         1 <0>         0.0836
     28 H3         -0.5286    1.8543    0.9071 H         1 <0>         0.0765
     29 H4         -0.0014   -0.4742   -2.1612 H         1 <0>         0.1629
     30 H5         -0.8967   -1.8895    3.8776 H         1 <0>         0.3702
     31 H6          0.5804   -2.3464    4.4903 H         1 <0>         0.3775
     32 H7         -0.7698   -7.3133    4.0412 H         1 <0>         0.1048
     33 H8          1.0100   -7.2834    4.0413 H         1 <0>         0.1052
     34 H9          1.0115   -7.3771    6.5192 H         1 <0>         0.0902
     35 H10        -0.7682   -7.4070    6.5191 H         1 <0>         0.0898
     36 H11        -0.7328   -9.5173    5.2175 H         1 <0>         0.0713
     37 H12         1.0470   -9.4874    5.2175 H         1 <0>         0.0714
     38 H13         0.1982  -11.3745    4.9222 H         1 <0>         0.1352
     39 H14         0.2403  -13.8350    4.9401 H         1 <0>         0.1370
     40 H15         0.2517  -15.0524    7.0792 H         1 <0>         0.1365
     41 H16         0.1880  -11.3485    9.1957 H         1 <0>         0.1424
     42 H17         1.0698   -3.6010   -1.8407 H         1 <0>         0.0860
     43 H18        -0.4614   -4.1479   -1.1162 H         1 <0>         0.0925
     44 H19        -0.4818   -3.0949   -2.5511 H         1 <0>         0.0890
@<TRIPOS>BOND
     1    1    2 1
     2    1   26 1
     3    1   27 1
     4    1   28 1
     5    2    6 2
     6    2    3 1
     7    3    4 2
     8    3   29 1
     9    4    5 1
    10    4   25 1
    11    5    6 1
    12    5    7 1
    13    7   11 1
    14    7    8 2
    15    8    9 1
    16    9   10 2
    17   10   11 1
    18   10   13 1
    19   11   12 1
    20   12   30 1
    21   12   31 1
    22   13   14 1
    23   14   15 1
    24   14   32 1
    25   14   33 1
    26   15   16 1
    27   15   34 1
    28   15   35 1
    29   16   17 1
    30   16   36 1
    31   16   37 1
    32   17   18 1
    33   18   23 ar
    34   18   19 ar
    35   19   20 ar
    36   19   38 1
    37   20   21 ar
    38   20   39 1
    39   21   22 ar
    40   21   40 1
    41   22   23 ar
    42   22   24 1
    43   23   41 1
    44   25   42 1
    45   25   43 1
    46   25   44 1
@<TRIPOS>MOLECULE
ZINC22313032
   42    42     0     0     0
SMALL
USER_CHARGES

@<TRIPOS>ATOM
      1 C1         -0.0187    1.5258    0.0104 C.3       1 <0>        -0.1471
      2 C2          0.0021   -0.0041    0.0020 C.3       1 <0>        -0.1235
      3 H1          0.5293   -0.3651    0.8851 H         1 <0>         0.1311
      4 C3          0.7074   -0.4901   -1.2379 C.2       1 <0>         0.5442
      5 O1          0.0667   -0.7817   -2.2249 O.2       1 <0>        -0.4438
      6 N1          2.0506   -0.6005   -1.2495 N.am      1 <0>        -0.6841
      7 C4          2.6815   -1.0352   -2.3584 C.2       1 <0>         0.6941
      8 O2          2.0391   -1.3275   -3.3478 O.2       1 <0>        -0.5237
      9 N2          4.0246   -1.1456   -2.3700 N.am      1 <0>        -0.7341
     10 C5          4.7104   -1.6181   -3.5753 C.3       1 <0>         0.1370
     11 C6          6.2192   -1.6505   -3.3241 C.3       1 <0>        -0.1079
     12 C7          6.5345   -2.6890   -2.2457 C.3       1 <0>        -0.1507
     13 C8          6.9440   -2.0236   -4.6189 C.3       1 <0>        -0.1469
     14 S1         -1.6997   -0.6320    0.0149 S.3       1 <0>         0.1384
     15 C9         -2.3349   -0.1100    1.5733 C.2       1 <0>         0.0377
     16 N3         -1.7431    0.5821    2.5278 N.2       1 <0>        -0.3016
     17 N4         -2.4309    0.8860    3.6799 N.2       1 <0>        -0.3049
     18 C10        -3.6790    0.4839    3.8246 C.2       1 <0>         0.0352
     19 S2         -3.9549   -0.3697    2.2798 S.3       1 <0>         0.0849
     20 S3         -4.7813    0.7289    5.1771 S.3       1 <0>         0.1430
     21 C11        -3.8055    1.6847    6.3709 C.3       1 <0>        -0.1655
     22 C12        -4.6419    1.9663    7.5924 C.2       1 <0>         0.5404
     23 O3         -5.7839    1.5621    7.6518 O.2       1 <0>        -0.5240
     24 N5         -4.1210    2.6674    8.6188 N.am      1 <0>        -0.8433
     25 H2          1.0039    1.9031    0.0027 H         1 <0>         0.0778
     26 H3         -0.5459    1.8868   -0.8726 H         1 <0>         0.0793
     27 H4         -0.5289    1.8773    0.9072 H         1 <0>         0.0885
     28 H5          2.5633   -0.3672   -0.4598 H         1 <0>         0.4126
     29 H6          4.5373   -0.9123   -1.5803 H         1 <0>         0.3992
     30 H7          4.3615   -2.6208   -3.8223 H         1 <0>         0.0725
     31 H8          4.4944   -0.9438   -4.4041 H         1 <0>         0.0721
     32 H9          6.5533   -0.6678   -2.9909 H         1 <0>         0.0781
     33 H10         7.6095   -2.7121   -2.0667 H         1 <0>         0.0603
     34 H11         6.0182   -2.4232   -1.3232 H         1 <0>         0.0529
     35 H12         6.2005   -3.6716   -2.5788 H         1 <0>         0.0594
     36 H13         6.7193   -1.2837   -5.3871 H         1 <0>         0.0598
     37 H14         8.0189   -2.0467   -4.4399 H         1 <0>         0.0627
     38 H15         6.6099   -3.0062   -4.9520 H         1 <0>         0.0602
     39 H16        -2.9228    1.1136    6.6587 H         1 <0>         0.1309
     40 H17        -3.4969    2.6263    5.9169 H         1 <0>         0.1310
     41 H18        -3.2077    2.9907    8.5713 H         1 <0>         0.4066
     42 H19        -4.6594    2.8487    9.4051 H         1 <0>         0.4115
@<TRIPOS>BOND
     1    1    2 1
     2    1   25 1
     3    1   26 1
     4    1   27 1
     5    2    3 1
     6    2    4 1
     7    2   14 1
     8    4    5 2
     9    4    6 am
    10    6    7 am
    11    6   28 1
    12    7    8 2
    13    7    9 am
    14    9   10 1
    15    9   29 1
    16   10   11 1
    17   10   30 1
    18   10   31 1
    19   11   12 1
    20   11   13 1
    21   11   32 1
    22   12   33 1
    23   12   34 1
    24   12   35 1
    25   13   36 1
    26   13   37 1
    27   13   38 1
    28   14   15 1
    29   15   19 1
    30   15   16 2
    31   16   17 1
    32   17   18 2
    33   18   19 1
    34   18   20 1
    35   20   21 1
    36   21   22 1
    37   21   39 1
    38   21   40 1
    39   22   23 2
    40   22   24 am
    41   24   41 1
    42   24   42 1
@<TRIPOS>MOLECULE
ZINC43310055
   46    47     0     0     0
SMALL
USER_CHARGES

@<TRIPOS>ATOM
      1 C1         -0.0187    1.5258    0.0104 C.3       1 <0>        -0.1582
      2 C2          0.0021   -0.0041    0.0020 C.3       1 <0>         0.1407
      3 C3          0.7421   -0.5109    1.2415 C.3       1 <0>        -0.1765
      4 N1         -1.3723   -0.5112    0.0124 N.pl3     1 <0>        -1.1126
      5 S1         -1.7504   -1.8955   -0.8140 S.o2      1 <0>         2.7052
      6 O1         -3.1329   -2.1367   -0.5912 O.2       1 <0>        -0.9575
      7 O2         -1.2023   -1.7529   -2.1173 O.2       1 <0>        -0.9561
      8 C4         -0.8778   -3.2176   -0.0426 C.ar      1 <0>        -0.7884
      9 C5          0.4010   -3.5555   -0.4661 C.ar      1 <0>         0.0678
     10 C6          1.0515   -4.5993    0.1663 C.ar      1 <0>        -0.2452
     11 C7          0.4064   -5.2717    1.1996 C.ar      1 <0>         0.4483
     12 N2         -0.8137   -4.9197    1.5741 N.ar      1 <0>        -0.5516
     13 C8         -1.4559   -3.9242    0.9925 C.ar      1 <0>         0.2639
     14 N3          1.0484   -6.3228    1.8440 N.pl3     1 <0>        -0.5147
     15 N4          0.4046   -7.0041    2.8851 N.am      1 <0>        -0.5257
     16 C9          1.0271   -8.0232    3.5099 C.2       1 <0>         0.7134
     17 O3          0.4683   -8.6146    4.4135 O.2       1 <0>        -0.5635
     18 N5          2.2690   -8.3868    3.1332 N.am      1 <0>        -0.7450
     19 C10         2.9457   -9.4946    3.8123 C.3       1 <0>         0.1398
     20 C11         4.3314   -9.6998    3.1970 C.3       1 <0>        -0.0454
     21 C12         5.0274  -10.8393    3.8957 C.2       1 <0>        -0.1481
     22 C13         5.0171  -12.1604    3.5925 C.2       1 <0>        -0.1487
     23 C14         5.7388  -13.0352    4.3827 C.2       1 <0>        -0.1587
     24 C15         6.4357  -12.5461    5.4375 C.2       1 <0>        -0.1681
     25 S2          6.0860  -10.7985    5.3327 S.3       1 <0>         0.0402
     26 H1          1.0039    1.9031    0.0027 H         1 <0>         0.0720
     27 H2         -0.5459    1.8868   -0.8726 H         1 <0>         0.0658
     28 H3         -0.5289    1.8773    0.9072 H         1 <0>         0.0633
     29 H4          0.5123   -0.3556   -0.8948 H         1 <0>         0.0925
     30 H5          0.7568   -1.6008    1.2356 H         1 <0>         0.0573
     31 H6          1.7647   -0.1336    1.2338 H         1 <0>         0.0706
     32 H7          0.2319   -0.1594    2.1383 H         1 <0>         0.0646
     33 H8         -2.0609   -0.0360    0.5034 H         1 <0>         0.4198
     34 H9          0.8766   -3.0154   -1.2714 H         1 <0>         0.1547
     35 H10         2.0465   -4.8887   -0.1379 H         1 <0>         0.1465
     36 H11        -2.4484   -3.6619    1.3280 H         1 <0>         0.1765
     37 H12         1.9422   -6.5845    1.5728 H         1 <0>         0.4325
     38 H13        -0.4892   -6.7425    3.1563 H         1 <0>         0.4471
     39 H14         2.7148   -7.9151    2.4123 H         1 <0>         0.3909
     40 H15         3.0496   -9.2619    4.8721 H         1 <0>         0.0760
     41 H16         2.3580  -10.4052    3.6962 H         1 <0>         0.0771
     42 H17         4.2275   -9.9326    2.1372 H         1 <0>         0.0941
     43 H18         4.9190   -8.7892    3.3131 H         1 <0>         0.0872
     44 H19         4.4530  -12.5242    2.7464 H         1 <0>         0.1338
     45 H20         5.7472  -14.0926    4.1633 H         1 <0>         0.1354
     46 H21         7.0470  -13.0756    6.1532 H         1 <0>         0.1869
@<TRIPOS>BOND
     1    1    2 1
     2    1   26 1
     3    1   27 1
     4    1   28 1
     5    2    3 1
     6    2    4 1
     7    2   29 1
     8    3   30 1
     9    3   31 1
    10    3   32 1
    11    4    5 1
    12    4   33 1
    13    5    6 2
    14    5    7 2
    15    5    8 1
    16    8   13 ar
    17    8    9 ar
    18    9   10 ar
    19    9   34 1
    20   10   11 ar
    21   10   35 1
    22   11   12 ar
    23   11   14 1
    24   12   13 ar
    25   13   36 1
    26   14   15 1
    27   14   37 1
    28   15   16 am
    29   15   38 1
    30   16   17 2
    31   16   18 am
    32   18   19 1
    33   18   39 1
    34   19   20 1
    35   19   40 1
    36   19   41 1
    37   20   21 1
    38   20   42 1
    39   20   43 1
    40   21   25 1
    41   21   22 2
    42   22   23 1
    43   22   44 1
    44   23   24 2
    45   23   45 1
    46   24   25 1
    47   24   46 1
@<TRIPOS>MOLECULE
ZINC56160704
   47    48     0     0     0
SMALL
USER_CHARGES

@<TRIPOS>ATOM
      1 C1         -0.0040    1.5141   -0.0025 C.3       1 <0>        -0.1714
      2 C2          0.0066   -0.0159   -0.0060 C.3       1 <0>         0.1376
      3 H1          0.5115   -0.3737   -0.9032 H         1 <0>         0.1130
      4 C3         -1.4106   -0.5281    0.0110 C.2       1 <0>         0.5162
      5 O1         -1.7908   -1.2300    0.9240 O.2       1 <0>        -0.5010
      6 N1         -2.2556   -0.2060   -0.9884 N.am      1 <0>        -0.6677
      7 C4         -3.5291   -0.7713   -1.0339 C.ar      1 <0>         0.1973
      8 C5         -3.7725   -1.9919   -0.4198 C.ar      1 <0>        -0.1345
      9 C6         -5.0345   -2.5502   -0.4660 C.ar      1 <0>        -0.0644
     10 C7         -6.0656   -1.8992   -1.1235 C.ar      1 <0>        -0.1369
     11 C8         -5.8423   -0.6865   -1.7393 C.ar      1 <0>        -0.0474
     12 C9         -4.5722   -0.1063   -1.6956 C.ar      1 <0>        -0.0644
     13 C10        -4.3350    1.1564   -2.3279 C.1       1 <0>         0.2469
     14 N2         -4.1467    2.1582   -2.8295 N.1       1 <0>        -0.4070
     15 N3          0.7158   -0.5021    1.1802 N.pl3     1 <0>        -0.7296
     16 C11         2.1093   -0.6260    1.1603 C.ar      1 <0>         0.2238
     17 C12         2.8207   -0.2829    0.0181 C.ar      1 <0>        -0.1956
     18 C13         4.1972   -0.4048   -0.0032 C.ar      1 <0>        -0.1217
     19 C14         4.8703   -0.8697    1.1149 C.ar      1 <0>         0.0524
     20 C15         4.1605   -1.2148    2.2608 C.ar      1 <0>         0.1477
     21 C16         2.7814   -1.0867    2.2843 C.ar      1 <0>        -0.2445
     22 O2          4.8204   -1.6719    3.3584 O.3       1 <0>        -0.2755
     23 C17         4.0277   -2.0074    4.4991 C.3       1 <0>         0.0378
     24 C18         4.9245   -2.4914    5.6093 C.2       1 <0>         0.5186
     25 O3          6.1243   -2.5440    5.4403 O.2       1 <0>        -0.5135
     26 N4          4.3932   -2.8659    6.7899 N.am      1 <0>        -0.8512
     27 O4          6.2258   -0.9892    1.0924 O.3       1 <0>        -0.3063
     28 C19         6.8898   -0.6174   -0.1172 C.3       1 <0>         0.0277
     29 H2          1.0211    1.8845   -0.0147 H         1 <0>         0.0817
     30 H3         -0.5316    1.8758   -0.8850 H         1 <0>         0.0682
     31 H4         -0.5089    1.8719    0.8948 H         1 <0>         0.0694
     32 H5         -1.9776    0.4191   -1.6760 H         1 <0>         0.4147
     33 H6         -2.9739   -2.5059    0.0944 H         1 <0>         0.1552
     34 H7         -5.2188   -3.5004    0.0130 H         1 <0>         0.1364
     35 H8         -7.0491   -2.3442   -1.1539 H         1 <0>         0.1370
     36 H9         -6.6493   -0.1831   -2.2508 H         1 <0>         0.1383
     37 H10         0.2192   -0.7380    1.9794 H         1 <0>         0.4097
     38 H11         2.2977    0.0793   -0.8546 H         1 <0>         0.1261
     39 H12         4.7487   -0.1378   -0.8925 H         1 <0>         0.1368
     40 H13         2.2292   -1.3492    3.1745 H         1 <0>         0.1346
     41 H14         3.4798   -1.1261    4.8327 H         1 <0>         0.0943
     42 H15         3.3222   -2.7944    4.2326 H         1 <0>         0.0947
     43 H16         3.4335   -2.8238    6.9251 H         1 <0>         0.4030
     44 H17         4.9704   -3.1775    7.5045 H         1 <0>         0.4096
     45 H18         7.9641   -0.7604   -0.0006 H         1 <0>         0.0990
     46 H19         6.5273   -1.2385   -0.9363 H         1 <0>         0.0523
     47 H20         6.6844    0.4302   -0.3371 H         1 <0>         0.0524
@<TRIPOS>BOND
     1    1    2 1
     2    1   29 1
     3    1   30 1
     4    1   31 1
     5    2    3 1
     6    2    4 1
     7    2   15 1
     8    4    5 2
     9    4    6 am
    10    6    7 1
    11    6   32 1
    12    7   12 ar
    13    7    8 ar
    14    8    9 ar
    15    8   33 1
    16    9   10 ar
    17    9   34 1
    18   10   11 ar
    19   10   35 1
    20   11   12 ar
    21   11   36 1
    22   12   13 1
    23   13   14 3
    24   15   16 1
    25   15   37 1
    26   16   21 ar
    27   16   17 ar
    28   17   18 ar
    29   17   38 1
    30   18   19 ar
    31   18   39 1
    32   19   20 ar
    33   19   27 1
    34   20   21 ar
    35   20   22 1
    36   21   40 1
    37   22   23 1
    38   23   24 1
    39   23   41 1
    40   23   42 1
    41   24   25 2
    42   24   26 am
    43   26   43 1
    44   26   44 1
    45   27   28 1
    46   28   45 1
    47   28   46 1
    48   28   47 1
@<TRIPOS>MOLECULE
ZINC63509622
   48    50     0     0     0
SMALL
USER_CHARGES

@<TRIPOS>ATOM
      1 C1          0.5319   -0.0364    0.6704 C.ar      1 <0>        -0.1745
      2 C2          1.5412    0.9142    0.6966 C.ar      1 <0>        -0.0499
      3 C3          2.7722    0.5846    0.1510 C.ar      1 <0>        -0.1527
      4 C4          2.9514   -0.6716   -0.3972 C.ar      1 <0>         0.1255
      5 N1          1.9685   -1.5505   -0.4050 N.ar      1 <0>        -0.4857
      6 C5          0.7848   -1.2717    0.1054 C.ar      1 <0>         0.1098
      7 C6          3.9006    1.5834    0.1549 C.3       1 <0>         0.1057
      8 O1          4.6640    1.4350    1.3538 O.3       1 <0>        -0.3063
      9 C7          5.7258    2.2661    1.5155 C.ar      1 <0>         0.1508
     10 C8          6.0220    3.2096    0.5401 C.ar      1 <0>        -0.2156
     11 C9          7.0988    4.0546    0.7009 C.ar      1 <0>        -0.0507
     12 C10         7.8917    3.9618    1.8456 C.ar      1 <0>        -0.1405
     13 C11         7.5909    3.0129    2.8237 C.ar      1 <0>        -0.0267
     14 C12         6.5096    2.1744    2.6585 C.ar      1 <0>        -0.1546
     15 C13         9.0487    4.8668    2.0215 C.2       1 <0>         0.4282
     16 N2          9.4566    5.1764    3.2177 N.2       1 <0>        -0.4300
     17 O2          8.7111    4.7641    4.3488 O.3       1 <0>        -0.2243
     18 C14         9.2743    5.1730    5.5968 C.3       1 <0>         0.1129
     19 C15         8.4042    4.6828    6.7253 C.ar      1 <0>        -0.0615
     20 C16         7.3686    5.4739    7.1902 C.ar      1 <0>        -0.1024
     21 C17         6.5683    5.0311    8.2230 C.ar      1 <0>        -0.0603
     22 C18         6.8052    3.7820    8.7991 C.ar      1 <0>        -0.1329
     23 C19         7.8515    2.9889    8.3254 C.ar      1 <0>        -0.0884
     24 C20         8.6408    3.4412    7.2882 C.ar      1 <0>        -0.1054
     25 C21         5.9518    3.3013    9.9065 C.2       1 <0>         0.5625
     26 O3          5.0416    3.9943   10.3173 O.2       1 <0>        -0.5376
     27 N3          6.1832    2.0947   10.4607 N.am      1 <0>        -0.8505
     28 N4          9.6977    5.3844    0.9131 N.pl3     1 <0>        -0.8314
     29 H1         -0.4383    0.1845    1.0904 H         1 <0>         0.1403
     30 H2          1.3722    1.8882    1.1315 H         1 <0>         0.1374
     31 H3          3.9074   -0.9362   -0.8243 H         1 <0>         0.1576
     32 H4          0.0041   -2.0176    0.0814 H         1 <0>         0.1602
     33 H5          4.5428    1.4095   -0.7085 H         1 <0>         0.0783
     34 H6          3.4925    2.5930    0.1067 H         1 <0>         0.0763
     35 H7          5.4080    3.2809   -0.3455 H         1 <0>         0.1332
     36 H8          7.3290    4.7875   -0.0583 H         1 <0>         0.1290
     37 H9          8.2026    2.9381    3.7106 H         1 <0>         0.1468
     38 H10         6.2738    1.4426    3.4170 H         1 <0>         0.1355
     39 H11        10.2743    4.7516    5.6996 H         1 <0>         0.0655
     40 H12         9.3334    6.2609    5.6297 H         1 <0>         0.0659
     41 H13         7.1866    6.4403    6.7438 H         1 <0>         0.1328
     42 H14         5.7605    5.6497    8.5852 H         1 <0>         0.1392
     43 H15         8.0401    2.0215    8.7669 H         1 <0>         0.1289
     44 H16         9.4480    2.8267    6.9178 H         1 <0>         0.1320
     45 H17         6.9095    1.5417   10.1329 H         1 <0>         0.4013
     46 H18         5.6233    1.7793   11.1873 H         1 <0>         0.4066
     47 H19         9.3937    5.1535    0.0214 H         1 <0>         0.4114
     48 H20        10.4563    5.9777    1.0285 H         1 <0>         0.4085
@<TRIPOS>BOND
     1    1    6 ar
     2    1    2 ar
     3    1   29 1
     4    2    3 ar
     5    2   30 1
     6    3    4 ar
     7    3    7 1
     8    4    5 ar
     9    4   31 1
    10    5    6 ar
    11    6   32 1
    12    7    8 1
    13    7   33 1
    14    7   34 1
    15    8    9 1
    16    9   14 ar
    17    9   10 ar
    18   10   11 ar
    19   10   35 1
    20   11   12 ar
    21   11   36 1
    22   12   13 ar
    23   12   15 1
    24   13   14 ar
    25   13   37 1
    26   14   38 1
    27   15   16 2
    28   15   28 1
    29   16   17 1
    30   17   18 1
    31   18   19 1
    32   18   39 1
    33   18   40 1
    34   19   24 ar
    35   19   20 ar
    36   20   21 ar
    37   20   41 1
    38   21   22 ar
    39   21   42 1
    40   22   23 ar
    41   22   25 1
    42   23   24 ar
    43   23   43 1
    44   24   44 1
    45   25   26 2
    46   25   27 am
    47   27   45 1
    48   27   46 1
    49   28   47 1
    50   28   48 1
@<TRIPOS>MOLECULE
ZINC67311013
   45    46     0     0     0
SMALL
USER_CHARGES

@<TRIPOS>ATOM
      1 C1         -0.0187    1.5258    0.0104 C.3       1 <0>        -0.1528
      2 C2          0.0021   -0.0041    0.0020 C.3       1 <0>         0.0575
      3 O1          0.6932   -0.4774    1.1597 O.3       1 <0>        -0.3906
      4 C3          0.7699   -1.9016    1.2491 C.3       1 <0>         0.0660
      5 C4          1.5265   -2.2929    2.5200 C.3       1 <0>        -0.1323
      6 C5          1.6086   -3.8177    2.6157 C.3       1 <0>         0.1384
      7 N1          2.3330   -4.1923    3.8327 N.am      1 <0>        -0.7428
      8 C6          2.5286   -5.4929    4.1270 C.2       1 <0>         0.7157
      9 O2          2.1038   -6.3553    3.3826 O.2       1 <0>        -0.5654
     10 N2          3.1951   -5.8376    5.2466 N.am      1 <0>        -0.5284
     11 N3          3.6846   -4.8439    6.1044 N.am      1 <0>        -0.5183
     12 C7          4.3511   -5.1886    7.2240 C.2       1 <0>         0.6114
     13 O3          4.5275   -6.3617    7.4895 O.2       1 <0>        -0.5162
     14 C8          4.8673   -4.1407    8.1286 C.2       1 <0>        -0.0070
     15 C9          5.5844   -4.3490    9.3267 C.2       1 <0>        -0.1439
     16 C10         5.8493   -3.0998    9.8142 C.2       1 <0>         0.0604
     17 N4          5.3076   -2.2100    8.9342 N.pl3     1 <0>        -0.3685
     18 H1          5.3431   -1.2450    9.0257 H         1 <0>         0.4500
     19 N5          4.7484   -2.8381    7.9633 N.2       1 <0>        -0.2436
     20 C11         6.5825   -2.7754   11.0583 C.ar      1 <0>        -0.0127
     21 C12         7.0870   -3.7988   11.8610 C.ar      1 <0>        -0.0883
     22 C13         7.7697   -3.4907   13.0196 C.ar      1 <0>        -0.0964
     23 C14         7.9544   -2.1698   13.3870 C.ar      1 <0>        -0.1016
     24 C15         7.4564   -1.1493   12.5951 C.ar      1 <0>        -0.0283
     25 C16         6.7767   -1.4453   11.4297 C.ar      1 <0>        -0.1073
     26 Cl1         7.6929    0.5054   13.0639 Cl        1 <0>        -0.0598
     27 H2          1.0039    1.9031    0.0027 H         1 <0>         0.0631
     28 H3         -0.5459    1.8868   -0.8726 H         1 <0>         0.0723
     29 H4         -0.5289    1.8773    0.9072 H         1 <0>         0.0631
     30 H5         -1.0205   -0.3814    0.0098 H         1 <0>         0.0497
     31 H6          0.5123   -0.3556   -0.8948 H         1 <0>         0.0497
     32 H7         -0.2368   -2.3182    1.2827 H         1 <0>         0.0542
     33 H8          1.2960   -2.2925    0.3781 H         1 <0>         0.0542
     34 H9          2.5331   -1.8762    2.4864 H         1 <0>         0.0798
     35 H10         1.0004   -1.9020    3.3909 H         1 <0>         0.0798
     36 H11         0.6019   -4.2343    2.6493 H         1 <0>         0.0744
     37 H12         2.1347   -4.2086    1.7448 H         1 <0>         0.0744
     38 H13         2.6719   -3.5043    4.4266 H         1 <0>         0.3939
     39 H14         3.3359   -6.7736    5.4585 H         1 <0>         0.4457
     40 H15         3.5438   -3.9079    5.8925 H         1 <0>         0.4259
     41 H16         5.8641   -5.2953    9.7656 H         1 <0>         0.1726
     42 H17         6.9431   -4.8306   11.5761 H         1 <0>         0.1401
     43 H18         8.1605   -4.2825   13.6415 H         1 <0>         0.1424
     44 H19         8.4889   -1.9338   14.2953 H         1 <0>         0.1396
     45 H20         6.3923   -0.6487   10.8100 H         1 <0>         0.1298
@<TRIPOS>BOND
     1    1    2 1
     2    1   27 1
     3    1   28 1
     4    1   29 1
     5    2    3 1
     6    2   30 1
     7    2   31 1
     8    3    4 1
     9    4    5 1
    10    4   32 1
    11    4   33 1
    12    5    6 1
    13    5   34 1
    14    5   35 1
    15    6    7 1
    16    6   36 1
    17    6   37 1
    18    7    8 am
    19    7   38 1
    20    8    9 2
    21    8   10 am
    22   10   11 1
    23   10   39 1
    24   11   12 am
    25   11   40 1
    26   12   13 2
    27   12   14 1
    28   14   19 2
    29   14   15 1
    30   15   16 2
    31   15   41 1
    32   16   17 1
    33   16   20 1
    34   17   18 1
    35   17   19 1
    36   20   25 ar
    37   20   21 ar
    38   21   22 ar
    39   21   42 1
    40   22   23 ar
    41   22   43 1
    42   23   24 ar
    43   23   44 1
    44   24   25 ar
    45   24   26 1
    46   25   45 1
@<TRIPOS>MOLECULE
ZINC41340817
   47    48     0     0     0
SMALL
USER_CHARGES

@<TRIPOS>ATOM
      1 C1         -0.0187    1.5258    0.0104 C.3       1 <0>        -0.1495
      2 C2          0.0021   -0.0041    0.0020 C.3       1 <0>        -0.1402
      3 C3          0.7182   -0.4975   -1.2568 C.3       1 <0>         0.0993
      4 N1          0.7381   -1.9623   -1.2648 N.pl3     1 <0>        -0.4526
      5 C4          1.6957   -2.7781   -0.7284 C.2       1 <0>         0.1844
      6 N2          1.3283   -4.0078   -0.9538 N.2       1 <0>        -0.2734
      7 N3          0.2124   -4.0251   -1.5911 N.2       1 <0>        -0.2919
      8 C5         -0.1986   -2.7966   -1.8042 C.2       1 <0>         0.1502
      9 S1         -1.6774   -2.3153   -2.6325 S.3       1 <0>         0.0707
     10 C6         -2.4551   -3.8886   -3.0917 C.3       1 <0>        -0.1099
     11 H1         -1.7503   -4.4876   -3.6683 H         1 <0>         0.1250
     12 C7         -2.8540   -4.6490   -1.8254 C.3       1 <0>        -0.1454
     13 C8         -3.6826   -3.6183   -3.9231 C.2       1 <0>         0.5427
     14 O1         -4.2116   -2.5276   -3.8867 O.2       1 <0>        -0.5241
     15 N4         -4.1926   -4.5888   -4.7070 N.am      1 <0>        -0.8429
     16 C9          2.9448   -2.3367   -0.0102 C.3       1 <0>        -0.0458
     17 C10         2.6527   -2.2027    1.4856 C.3       1 <0>         0.1405
     18 N5          3.8670   -1.7735    2.1838 N.pl3     1 <0>        -0.3736
     19 C11         4.8109   -2.5842    2.7062 C.2       1 <0>         0.0894
     20 C12         5.7646   -1.8018    3.2625 C.2       1 <0>        -0.2714
     21 C13         5.3907   -0.4673    3.0736 C.2       1 <0>         0.0778
     22 N6          4.2564   -0.4491    2.4218 N.2       1 <0>        -0.2977
     23 C14         6.1643    0.7409    3.5349 C.3       1 <0>        -0.0739
     24 C15         4.8039   -4.0909    2.6760 C.3       1 <0>        -0.0966
     25 H2          1.0039    1.9031    0.0027 H         1 <0>         0.0612
     26 H3         -0.5459    1.8868   -0.8726 H         1 <0>         0.0618
     27 H4         -0.5289    1.8773    0.9072 H         1 <0>         0.0666
     28 H5          0.5293   -0.3651    0.8851 H         1 <0>         0.0704
     29 H6         -1.0205   -0.3814    0.0098 H         1 <0>         0.0766
     30 H7          0.1910   -0.1364   -2.1398 H         1 <0>         0.1027
     31 H8          1.7408   -0.1202   -1.2645 H         1 <0>         0.1025
     32 H9         -1.9662   -4.8444   -1.2240 H         1 <0>         0.0879
     33 H10        -3.5588   -4.0500   -1.2487 H         1 <0>         0.0729
     34 H11        -3.3213   -5.5943   -2.1013 H         1 <0>         0.0744
     35 H12        -3.7695   -5.4612   -4.7361 H         1 <0>         0.4060
     36 H13        -4.9827   -4.4149   -5.2422 H         1 <0>         0.4102
     37 H14         3.7316   -3.0756   -0.1620 H         1 <0>         0.1078
     38 H15         3.2697   -1.3738   -0.4046 H         1 <0>         0.0939
     39 H16         1.8659   -1.4638    1.6374 H         1 <0>         0.0958
     40 H17         2.3279   -3.1655    1.8800 H         1 <0>         0.1017
     41 H18         6.6566   -2.1469    3.7643 H         1 <0>         0.1475
     42 H19         6.8587    1.0480    2.7529 H         1 <0>         0.0770
     43 H20         5.4724    1.5560    3.7471 H         1 <0>         0.0721
     44 H21         6.7212    0.4925    4.4384 H         1 <0>         0.0781
     45 H22         5.3100   -4.4386    1.7754 H         1 <0>         0.0830
     46 H23         5.3221   -4.4743    3.5550 H         1 <0>         0.0871
     47 H24         3.7746   -4.4495    2.6758 H         1 <0>         0.0719
@<TRIPOS>BOND
     1    1    2 1
     2    1   25 1
     3    1   26 1
     4    1   27 1
     5    2    3 1
     6    2   28 1
     7    2   29 1
     8    3    4 1
     9    3   30 1
    10    3   31 1
    11    4    8 1
    12    4    5 1
    13    5    6 2
    14    5   16 1
    15    6    7 1
    16    7    8 2
    17    8    9 1
    18    9   10 1
    19   10   11 1
    20   10   12 1
    21   10   13 1
    22   12   32 1
    23   12   33 1
    24   12   34 1
    25   13   14 2
    26   13   15 am
    27   15   35 1
    28   15   36 1
    29   16   17 1
    30   16   37 1
    31   16   38 1
    32   17   18 1
    33   17   39 1
    34   17   40 1
    35   18   22 1
    36   18   19 1
    37   19   20 2
    38   19   24 1
    39   20   21 1
    40   20   41 1
    41   21   22 2
    42   21   23 1
    43   23   42 1
    44   23   43 1
    45   23   44 1
    46   24   45 1
    47   24   46 1
    48   24   47 1
@<TRIPOS>MOLECULE
ZINC54197924
   44    44     0     0     0
SMALL
USER_CHARGES

@<TRIPOS>ATOM
      1 C1         -0.0187    1.5258    0.0104 C.3       1 <0>        -0.1510
      2 C2          0.0021   -0.0041    0.0020 C.3       1 <0>        -0.0706
      3 C3          0.7074   -0.4901   -1.2379 C.2       1 <0>         0.1265
      4 C4          2.0732   -0.6535   -1.3801 C.2       1 <0>        -0.2116
      5 C5          2.2997   -1.1255   -2.6932 C.2       1 <0>        -0.0139
      6 C6          1.0809   -1.2309   -3.2947 C.2       1 <0>        -0.0623
      7 N1          0.1165   -0.8434   -2.3900 N.pl3     1 <0>        -0.5217
      8 H1         -0.8385   -0.8270   -2.5596 H         1 <0>         0.4226
      9 C7          0.8371   -1.6844   -4.6697 C.2       1 <0>         0.6012
     10 O1          1.7719   -2.0069   -5.3787 O.2       1 <0>        -0.5140
     11 N2         -0.4221   -1.7435   -5.1465 N.am      1 <0>        -0.7221
     12 C8         -0.6653   -2.1960   -6.5185 C.3       1 <0>         0.1566
     13 H2          0.1483   -1.8602   -7.1614 H         1 <0>         0.1332
     14 C9         -0.7396   -3.7240   -6.5460 C.3       1 <0>        -0.1604
     15 C10        -1.9672   -1.6208   -7.0138 C.2       1 <0>         0.4623
     16 O2         -2.6244   -0.9062   -6.2946 O.2       1 <0>        -0.5042
     17 O3         -2.3966   -1.9023   -8.2540 O.3       1 <0>        -0.3430
     18 C11        -3.6391   -1.3231   -8.6574 C.3       1 <0>         0.0596
     19 C12        -3.9614   -1.7538  -10.0897 C.3       1 <0>        -0.1536
     20 C13         3.6353   -1.4501   -3.3111 C.3       1 <0>        -0.0995
     21 C14         3.0981   -0.3860   -0.3572 C.2       1 <0>         0.5472
     22 O4          3.4380   -1.2673    0.4075 O.2       1 <0>        -0.4940
     23 O5          3.6591    0.8361   -0.2690 O.3       1 <0>        -0.3457
     24 C15         4.6464    1.0249    0.7467 C.3       1 <0>         0.0305
     25 H3          1.0039    1.9031    0.0027 H         1 <0>         0.0667
     26 H4         -0.5459    1.8868   -0.8726 H         1 <0>         0.0586
     27 H5         -0.5289    1.8773    0.9072 H         1 <0>         0.0688
     28 H6          0.5293   -0.3651    0.8851 H         1 <0>         0.0934
     29 H7         -1.0205   -0.3814    0.0098 H         1 <0>         0.0839
     30 H8         -1.1673   -1.4865   -4.5813 H         1 <0>         0.4038
     31 H9         -0.9205   -4.0606   -7.5668 H         1 <0>         0.0853
     32 H10         0.2021   -4.1400   -6.1877 H         1 <0>         0.0828
     33 H11        -1.5532   -4.0598   -5.9030 H         1 <0>         0.0641
     34 H12        -4.4314   -1.6609   -7.9894 H         1 <0>         0.0702
     35 H13        -3.5649   -0.2365   -8.6128 H         1 <0>         0.0702
     36 H14        -4.9091   -1.3120  -10.3974 H         1 <0>         0.0824
     37 H15        -3.1691   -1.4160  -10.7577 H         1 <0>         0.0689
     38 H16        -4.0356   -2.8404  -10.1343 H         1 <0>         0.0687
     39 H17         3.8766   -2.4968   -3.1260 H         1 <0>         0.0773
     40 H18         3.5914   -1.2719   -4.3856 H         1 <0>         0.0912
     41 H19         4.4039   -0.8163   -2.8688 H         1 <0>         0.0643
     42 H20         4.2030    0.8349    1.7242 H         1 <0>         0.0615
     43 H21         5.4734    0.3342    0.5824 H         1 <0>         0.0622
     44 H22         5.0158    2.0497    0.7083 H         1 <0>         0.1037
@<TRIPOS>BOND
     1    1    2 1
     2    1   25 1
     3    1   26 1
     4    1   27 1
     5    2    3 1
     6    2   28 1
     7    2   29 1
     8    3    7 1
     9    3    4 2
    10    4    5 1
    11    4   21 1
    12    5    6 2
    13    5   20 1
    14    6    7 1
    15    6    9 1
    16    7    8 1
    17    9   10 2
    18    9   11 am
    19   11   12 1
    20   11   30 1
    21   12   13 1
    22   12   14 1
    23   12   15 1
    24   14   31 1
    25   14   32 1
    26   14   33 1
    27   15   16 2
    28   15   17 1
    29   17   18 1
    30   18   19 1
    31   18   34 1
    32   18   35 1
    33   19   36 1
    34   19   37 1
    35   19   38 1
    36   20   39 1
    37   20   40 1
    38   20   41 1
    39   21   22 2
    40   21   23 1
    41   23   24 1
    42   24   42 1
    43   24   43 1
    44   24   44 1
@<TRIPOS>MOLECULE
ZINC61607730
   45    45     0     0     0
SMALL
USER_CHARGES

@<TRIPOS>ATOM
      1 C1         -0.0187    1.5258    0.0104 C.3       1 <0>        -0.1530
      2 C2          0.0021   -0.0041    0.0020 C.3       1 <0>        -0.1199
      3 C3         -1.4333   -0.5336    0.0129 C.3       1 <0>         0.0488
      4 N1         -1.4134   -2.0025    0.0048 N.3       1 <0>        -0.6630
      5 C4         -2.7775   -2.5475    0.0149 C.3       1 <0>         0.1420
      6 C5         -3.5067   -2.0737    1.2737 C.3       1 <0>        -0.1415
      7 C6         -2.7159   -4.0763    0.0061 C.3       1 <0>        -0.0938
      8 C7         -4.1367   -4.6440    0.0166 C.3       1 <0>        -0.1179
      9 S1         -4.0637   -6.4565    0.0062 S.3       1 <0>         0.0285
     10 C8         -5.7548   -6.9513    0.0197 C.2       1 <0>         0.2537
     11 N2         -6.7804   -6.1495    0.0281 N.2       1 <0>        -0.2790
     12 N3         -7.9431   -6.9324    0.0373 N.am      1 <0>        -0.5422
     13 H1         -8.8560   -6.6046    0.0444 H         1 <0>         0.4572
     14 C9         -7.5589   -8.2256    0.0339 C.2       1 <0>         0.6532
     15 O1         -8.2963   -9.1954    0.0397 O.2       1 <0>        -0.5478
     16 N4         -6.2113   -8.2499    0.0171 N.am      1 <0>        -0.5324
     17 C10        -5.3754   -9.4528    0.0026 C.3       1 <0>         0.1202
     18 C11        -5.0705   -9.8794    1.4400 C.3       1 <0>        -0.1727
     19 C12        -3.5192   -2.0676   -1.2060 C.2       1 <0>         0.4269
     20 O2         -4.7016   -1.8280   -1.1391 O.2       1 <0>        -0.4932
     21 O3         -2.8664   -1.9064   -2.3677 O.3       1 <0>        -0.3550
     22 C13        -3.6321   -1.4485   -3.4840 C.3       1 <0>         0.0317
     23 H2          1.0039    1.9031    0.0027 H         1 <0>         0.0594
     24 H3         -0.5459    1.8868   -0.8726 H         1 <0>         0.0525
     25 H4         -0.5289    1.8773    0.9072 H         1 <0>         0.0557
     26 H5          0.5123   -0.3556   -0.8948 H         1 <0>         0.0632
     27 H6          0.5293   -0.3651    0.8851 H         1 <0>         0.0740
     28 H7         -1.9435   -0.1821    0.9097 H         1 <0>         0.0804
     29 H8         -1.9605   -0.1726   -0.8702 H         1 <0>         0.0336
     30 H9         -0.8899   -2.3527   -0.7835 H         1 <0>         0.3552
     31 H10        -3.5506   -0.9846    1.2800 H         1 <0>         0.0663
     32 H11        -4.5189   -2.4782    1.2812 H         1 <0>         0.0779
     33 H12        -2.9702   -2.4208    2.1568 H         1 <0>         0.0866
     34 H13        -2.1964   -4.4138   -0.8907 H         1 <0>         0.0885
     35 H14        -2.1794   -4.4234    0.8891 H         1 <0>         0.1095
     36 H15        -4.6562   -4.3064    0.9134 H         1 <0>         0.1102
     37 H16        -4.6732   -4.2969   -0.8664 H         1 <0>         0.0980
     38 H17        -5.9038  -10.2563   -0.5105 H         1 <0>         0.1012
     39 H18        -4.4421   -9.2405   -0.5191 H         1 <0>         0.0978
     40 H19        -4.4486  -10.7744    1.4292 H         1 <0>         0.0826
     41 H20        -4.5422   -9.0759    1.9531 H         1 <0>         0.0662
     42 H21        -6.0038  -10.0917    1.9616 H         1 <0>         0.0640
     43 H22        -4.0643   -0.4749   -3.2533 H         1 <0>         0.0606
     44 H23        -2.9852   -1.3613   -4.3570 H         1 <0>         0.1042
     45 H24        -4.4307   -2.1602   -3.6932 H         1 <0>         0.0618
@<TRIPOS>BOND
     1    1    2 1
     2    1   23 1
     3    1   24 1
     4    1   25 1
     5    2    3 1
     6    2   26 1
     7    2   27 1
     8    3    4 1
     9    3   28 1
    10    3   29 1
    11    4    5 1
    12    4   30 1
    13    5    6 1
    14    5    7 1
    15    5   19 1
    16    6   31 1
    17    6   32 1
    18    6   33 1
    19    7    8 1
    20    7   34 1
    21    7   35 1
    22    8    9 1
    23    8   36 1
    24    8   37 1
    25    9   10 1
    26   10   16 1
    27   10   11 2
    28   11   12 1
    29   12   13 1
    30   12   14 am
    31   14   15 2
    32   14   16 am
    33   16   17 1
    34   17   18 1
    35   17   38 1
    36   17   39 1
    37   18   40 1
    38   18   41 1
    39   18   42 1
    40   19   20 2
    41   19   21 1
    42   21   22 1
    43   22   43 1
    44   22   44 1
    45   22   45 1
@<TRIPOS>MOLECULE
ZINC66238106
   48    49     0     0     0
SMALL
USER_CHARGES

@<TRIPOS>ATOM
      1 C1         -0.0187    1.5258    0.0104 C.3       1 <0>        -0.1530
      2 C2          0.0021   -0.0041    0.0020 C.3       1 <0>        -0.1180
      3 C3          0.7182   -0.4975   -1.2568 C.3       1 <0>         0.1215
      4 C4          0.5551   -1.9967   -1.4101 C.2       1 <0>         0.5296
      5 O1          0.9347   -2.8567   -0.6446 O.2       1 <0>        -0.4609
      6 N1         -0.1005   -2.1747   -2.5741 N.am      1 <0>        -0.5696
      7 C5         -0.3714   -1.0085   -3.1712 C.2       1 <0>         0.7081
      8 O2         -0.9554   -0.9126   -4.2328 O.2       1 <0>        -0.5364
      9 N2          0.0753    0.0462   -2.4656 N.am      1 <0>        -0.7188
     10 C6         -0.4700   -3.4835   -3.1187 C.3       1 <0>         0.0872
     11 C7         -1.8585   -3.8745   -2.6086 C.3       1 <0>         0.0952
     12 H1         -1.8689   -3.8384   -1.5193 H         1 <0>         0.1106
     13 C8         -2.1924   -5.2929   -3.0750 C.3       1 <0>         0.0356
     14 O3         -3.4365   -5.7020   -2.5032 O.3       1 <0>        -0.3729
     15 C9         -3.8428   -7.0199   -2.8774 C.3       1 <0>         0.1155
     16 C10        -5.1598   -7.3449   -2.2209 C.ar      1 <0>        -0.1225
     17 C11        -5.7756   -6.4130   -1.4077 C.ar      1 <0>        -0.0573
     18 C12        -6.9835   -6.7107   -0.8048 C.ar      1 <0>        -0.1574
     19 C13        -7.5787   -7.9412   -1.0141 C.ar      1 <0>        -0.0800
     20 C14        -6.9673   -8.8761   -1.8265 C.ar      1 <0>        -0.2083
     21 C15        -5.7576   -8.5778   -2.4370 C.ar      1 <0>         0.1302
     22 O4         -5.1568   -9.4938   -3.2413 O.3       1 <0>        -0.3183
     23 C16        -5.8297  -10.7420   -3.4184 C.3       1 <0>         0.0270
     24 O5         -2.8299   -2.9624   -3.1247 O.3       1 <0>        -0.5416
     25 C17         2.1991   -0.1152   -1.2165 C.3       1 <0>        -0.1490
     26 H2          1.0039    1.9031    0.0027 H         1 <0>         0.0634
     27 H3         -0.5459    1.8868   -0.8726 H         1 <0>         0.0575
     28 H4         -0.5289    1.8773    0.9072 H         1 <0>         0.0673
     29 H5          0.5293   -0.3651    0.8851 H         1 <0>         0.0905
     30 H6         -1.0205   -0.3814    0.0098 H         1 <0>         0.0745
     31 H7         -0.0097    0.9821   -2.7057 H         1 <0>         0.4397
     32 H8         -0.4838   -3.4333   -4.2074 H         1 <0>         0.1048
     33 H9          0.2579   -4.2290   -2.7985 H         1 <0>         0.1071
     34 H10        -2.2694   -5.3092   -4.1622 H         1 <0>         0.0590
     35 H11        -1.4043   -5.9752   -2.7564 H         1 <0>         0.0634
     36 H12        -3.9541   -7.0720   -3.9604 H         1 <0>         0.0635
     37 H13        -3.0889   -7.7379   -2.5546 H         1 <0>         0.0634
     38 H14        -5.3127   -5.4512   -1.2426 H         1 <0>         0.1402
     39 H15        -7.4629   -5.9811   -0.1689 H         1 <0>         0.1255
     40 H16        -8.5221   -8.1716   -0.5416 H         1 <0>         0.1254
     41 H17        -7.4325   -9.8371   -1.9896 H         1 <0>         0.1296
     42 H18        -5.2443  -11.3795   -4.0811 H         1 <0>         0.1012
     43 H19        -5.9461  -11.2324   -2.4519 H         1 <0>         0.0565
     44 H20        -6.8118  -10.5663   -3.8573 H         1 <0>         0.0565
     45 H21        -2.8760   -2.9417   -4.0904 H         1 <0>         0.3790
     46 H22         2.6676   -0.5679   -0.3426 H         1 <0>         0.0853
     47 H23         2.6919   -0.4745   -2.1199 H         1 <0>         0.0673
     48 H24         2.2930    0.9692   -1.1582 H         1 <0>         0.0831
@<TRIPOS>BOND
     1    1    2 1
     2    1   26 1
     3    1   27 1
     4    1   28 1
     5    2    3 1
     6    2   29 1
     7    2   30 1
     8    3    9 1
     9    3    4 1
    10    3   25 1
    11    4    5 2
    12    4    6 am
    13    6    7 am
    14    6   10 1
    15    7    8 2
    16    7    9 am
    17    9   31 1
    18   10   11 1
    19   10   32 1
    20   10   33 1
    21   11   12 1
    22   11   13 1
    23   11   24 1
    24   13   14 1
    25   13   34 1
    26   13   35 1
    27   14   15 1
    28   15   16 1
    29   15   36 1
    30   15   37 1
    31   16   21 ar
    32   16   17 ar
    33   17   18 ar
    34   17   38 1
    35   18   19 ar
    36   18   39 1
    37   19   20 ar
    38   19   40 1
    39   20   21 ar
    40   20   41 1
    41   21   22 1
    42   22   23 1
    43   23   42 1
    44   23   43 1
    45   23   44 1
    46   24   45 1
    47   25   46 1
    48   25   47 1
    49   25   48 1
@<TRIPOS>MOLECULE
ZINC67176088
   54    56     0     0     0
SMALL
USER_CHARGES

@<TRIPOS>ATOM
      1 C1         -0.0187    1.5258    0.0104 C.3       1 <0>        -0.1254
      2 C2          0.0021   -0.0041    0.0020 C.3       1 <0>        -0.1199
      3 H1          0.0748   -0.4678   -0.9817 H         1 <0>         0.1180
      4 C3         -0.8275   -0.7277    1.0646 C.3       1 <0>        -0.1484
      5 C4          0.6996   -0.7075    1.1680 C.3       1 <0>        -0.1950
      6 H2          1.1437   -0.0805    1.9411 H         1 <0>         0.1241
      7 C5          1.4341   -1.9889    0.8686 C.2       1 <0>         0.5429
      8 O1          1.4564   -2.4249   -0.2629 O.2       1 <0>        -0.5335
      9 N1          2.0663   -2.6503    1.8582 N.am      1 <0>        -0.7311
     10 C6          2.7804   -3.8959    1.5671 C.3       1 <0>         0.1335
     11 C7          3.4044   -4.4388    2.8543 C.3       1 <0>        -0.1538
     12 C8          4.1389   -5.7202    2.5549 C.2       1 <0>         0.5178
     13 O2          4.1612   -6.1562    1.4234 O.2       1 <0>        -0.5303
     14 N2          4.7711   -6.3816    3.5445 N.am      1 <0>        -0.7319
     15 C9          5.4852   -7.6272    3.2534 C.3       1 <0>         0.1192
     16 C10         6.1091   -8.1701    4.5406 C.3       1 <0>        -0.1260
     17 C11         6.8549   -9.4710    4.2366 C.3       1 <0>        -0.0285
     18 C12         7.4695  -10.0057    5.5044 C.2       1 <0>         0.1723
     19 N3          8.6602   -9.7290    5.9664 N.2       1 <0>        -0.2898
     20 N4          8.8517  -10.3548    7.0753 N.2       1 <0>        -0.2923
     21 C13         7.7925  -11.0533    7.3699 C.2       1 <0>         0.1812
     22 N5          6.8906  -10.8569    6.3800 N.pl3     1 <0>        -0.4659
     23 C14         5.5632  -11.4639    6.2781 C.3       1 <0>         0.1021
     24 C15         5.0349  -11.7695    7.6824 C.3       1 <0>        -0.1408
     25 C16         5.4750  -13.1704    8.1048 C.3       1 <0>        -0.1257
     26 C17         6.9973  -13.2608    8.1524 C.3       1 <0>        -0.1248
     27 C18         7.5808  -11.9180    8.5855 C.3       1 <0>        -0.0377
     28 H3          1.0039    1.9031    0.0027 H         1 <0>         0.0626
     29 H4         -0.5459    1.8868   -0.8726 H         1 <0>         0.0667
     30 H5         -0.5289    1.8773    0.9072 H         1 <0>         0.0585
     31 H6         -1.3881   -0.1139    1.7696 H         1 <0>         0.1058
     32 H7         -1.3003   -1.6677    0.7800 H         1 <0>         0.0994
     33 H8          2.0485   -2.3015    2.7632 H         1 <0>         0.4010
     34 H9          2.0820   -4.6295    1.1644 H         1 <0>         0.0772
     35 H10         3.5656   -3.7023    0.8363 H         1 <0>         0.0779
     36 H11         4.1028   -3.7052    3.2570 H         1 <0>         0.1027
     37 H12         2.6192   -4.6324    3.5851 H         1 <0>         0.1019
     38 H13         4.7533   -6.0328    4.4494 H         1 <0>         0.4022
     39 H14         4.7868   -8.3608    2.8507 H         1 <0>         0.0714
     40 H15         6.2704   -7.4336    2.5226 H         1 <0>         0.0752
     41 H16         6.8076   -7.4365    4.9433 H         1 <0>         0.0814
     42 H17         5.3240   -8.3637    5.2714 H         1 <0>         0.0686
     43 H18         6.1565  -10.2046    3.8338 H         1 <0>         0.0861
     44 H19         7.6401   -9.2774    3.5057 H         1 <0>         0.1059
     45 H20         4.8851  -10.7733    5.7768 H         1 <0>         0.0959
     46 H21         5.6294  -12.3889    5.7053 H         1 <0>         0.0909
     47 H22         5.4309  -11.0373    8.3861 H         1 <0>         0.0812
     48 H23         3.9462  -11.7168    7.6797 H         1 <0>         0.0897
     49 H24         5.0705  -13.3920    9.0924 H         1 <0>         0.0751
     50 H25         5.0937  -13.8985    7.3889 H         1 <0>         0.0709
     51 H26         7.2931  -14.0312    8.8645 H         1 <0>         0.0827
     52 H27         7.3768  -13.5164    7.1631 H         1 <0>         0.0645
     53 H28         8.5333  -12.0752    9.0915 H         1 <0>         0.1019
     54 H29         6.8826  -11.4282    9.2642 H         1 <0>         0.0924
@<TRIPOS>BOND
     1    1    2 1
     2    1   28 1
     3    1   29 1
     4    1   30 1
     5    2    3 1
     6    2    5 1
     7    2    4 1
     8    4    5 1
     9    4   31 1
    10    4   32 1
    11    5    6 1
    12    5    7 1
    13    7    8 2
    14    7    9 am
    15    9   10 1
    16    9   33 1
    17   10   11 1
    18   10   34 1
    19   10   35 1
    20   11   12 1
    21   11   36 1
    22   11   37 1
    23   12   13 2
    24   12   14 am
    25   14   15 1
    26   14   38 1
    27   15   16 1
    28   15   39 1
    29   15   40 1
    30   16   17 1
    31   16   41 1
    32   16   42 1
    33   17   18 1
    34   17   43 1
    35   17   44 1
    36   18   22 1
    37   18   19 2
    38   19   20 1
    39   20   21 2
    40   21   27 1
    41   21   22 1
    42   22   23 1
    43   23   24 1
    44   23   45 1
    45   23   46 1
    46   24   25 1
    47   24   47 1
    48   24   48 1
    49   25   26 1
    50   25   49 1
    51   25   50 1
    52   26   27 1
    53   26   51 1
    54   26   52 1
    55   27   53 1
    56   27   54 1
@<TRIPOS>MOLECULE
ZINC02389414
   58    62     0     0     0
SMALL
USER_CHARGES
2-amino-N-(3,5-dimethylphenyl)-1-(m-tolylmethyleneamino)pyrrolo[5,4-b]quinoxaline-3-carboxamide
@<TRIPOS>ATOM
      1 C1          3.0459    1.2896   -0.3978 C.3       1 <0>        -0.1178
      2 C2          1.6878    1.9173   -0.2168 C.ar      1 <0>        -0.0920
      3 C3          0.5700    1.1144   -0.0718 C.ar      1 <0>        -0.0858
      4 C4         -0.6814    1.6819    0.0892 C.ar      1 <0>        -0.1233
      5 C5         -0.8216    3.0541    0.1176 C.ar      1 <0>        -0.0673
      6 C6          0.3020    3.8706   -0.0286 C.ar      1 <0>        -0.0844
      7 C7          1.5618    3.2905   -0.1965 C.ar      1 <0>        -0.0744
      8 C8          0.1592    5.3384   -0.0064 C.2       1 <0>         0.2030
      9 N1         -1.0123    5.8739    0.1497 N.2       1 <0>        -0.2642
     10 N2         -1.1479    7.2682    0.1708 N.pl3     1 <0>        -0.3626
     11 C9         -1.0818    8.0367    1.2953 C.2       1 <0>         0.4911
     12 C10        -1.2513    9.3798    0.9759 C.2       1 <0>        -0.3269
     13 C11        -1.4499    9.4416   -0.4818 C.ar      1 <0>         0.1808
     14 C12        -1.3730    8.0528   -0.9443 C.ar      1 <0>         0.2906
     15 N3         -1.5159    7.7887   -2.2254 N.ar      1 <0>        -0.4347
     16 C13        -1.7294    8.7865   -3.0925 C.ar      1 <0>         0.0976
     17 C14        -1.8833    8.5131   -4.4643 C.ar      1 <0>        -0.0841
     18 C15        -2.0994    9.5332   -5.3381 C.ar      1 <0>        -0.1006
     19 C16        -2.1716   10.8530   -4.8958 C.ar      1 <0>        -0.1007
     20 C17        -2.0278   11.1568   -3.5776 C.ar      1 <0>        -0.0821
     21 C18        -1.8029   10.1286   -2.6432 C.ar      1 <0>         0.0905
     22 N4         -1.6589   10.4162   -1.3437 N.ar      1 <0>        -0.4149
     23 C19        -1.2414   10.4742    1.8779 C.2       1 <0>         0.6171
     24 O1         -2.2776   10.8403    2.4025 O.2       1 <0>        -0.5073
     25 N5         -0.0851   11.1089    2.1545 N.am      1 <0>        -0.6669
     26 C20        -0.0909   12.2549    2.9562 C.ar      1 <0>         0.1552
     27 C21         0.9786   12.5177    3.8025 C.ar      1 <0>        -0.1551
     28 C22         0.9727   13.6537    4.5879 C.ar      1 <0>        -0.0644
     29 C23        -0.1021   14.5225    4.5418 C.ar      1 <0>        -0.1375
     30 C24        -1.1713   14.2606    3.7048 C.ar      1 <0>        -0.0621
     31 C25        -1.1687   13.1298    2.9119 C.ar      1 <0>        -0.1247
     32 C26        -2.3404   15.2104    3.6574 C.3       1 <0>        -0.1151
     33 C27         2.1362   13.9436    5.5008 C.3       1 <0>        -0.1138
     34 N6         -0.8742    7.5538    2.5618 N.pl3     1 <0>        -0.8247
     35 H1          3.2389    1.1414   -1.4603 H         1 <0>         0.0747
     36 H2          3.8083    1.9459    0.0219 H         1 <0>         0.0693
     37 H3          3.0727    0.3277    0.1141 H         1 <0>         0.0707
     38 H4          0.6745    0.0396   -0.0888 H         1 <0>         0.1298
     39 H5         -1.5500    1.0493    0.1970 H         1 <0>         0.1322
     40 H6         -1.7985    3.4958    0.2477 H         1 <0>         0.1365
     41 H7          2.4350    3.9159   -0.3098 H         1 <0>         0.1313
     42 H8          1.0298    5.9674   -0.1201 H         1 <0>         0.1278
     43 H9         -1.8296    7.4957   -4.8227 H         1 <0>         0.1371
     44 H10        -2.2168    9.3172   -6.3898 H         1 <0>         0.1358
     45 H11        -2.3437   11.6453   -5.6093 H         1 <0>         0.1361
     46 H12        -2.0857   12.1840   -3.2491 H         1 <0>         0.1399
     47 H13         0.7512   10.7709    1.7976 H         1 <0>         0.4095
     48 H14         1.8160   11.8369    3.8428 H         1 <0>         0.1225
     49 H15        -0.1065   15.4076    5.1605 H         1 <0>         0.1219
     50 H16        -2.0037   12.9262    2.2579 H         1 <0>         0.1352
     51 H17        -3.0820   14.9110    4.3980 H         1 <0>         0.0723
     52 H18        -1.9963   16.2213    3.8758 H         1 <0>         0.0670
     53 H19        -2.7884   15.1858    2.6640 H         1 <0>         0.0674
     54 H20         1.9577   13.4855    6.4736 H         1 <0>         0.0708
     55 H21         3.0486   13.5334    5.0679 H         1 <0>         0.0656
     56 H22         2.2438   15.0216    5.6210 H         1 <0>         0.0676
     57 H23        -0.7617    6.6011    2.7053 H         1 <0>         0.4118
     58 H24        -0.8399    8.1650    3.3143 H         1 <0>         0.4288
@<TRIPOS>BOND
     1    1    2 1
     2    1   35 1
     3    1   36 1
     4    1   37 1
     5    2    7 ar
     6    2    3 ar
     7    3    4 ar
     8    3   38 1
     9    4    5 ar
    10    4   39 1
    11    5    6 ar
    12    5   40 1
    13    6    7 ar
    14    6    8 1
    15    7   41 1
    16    8    9 2
    17    8   42 1
    18    9   10 1
    19   10   14 1
    20   10   11 1
    21   11   12 2
    22   11   34 1
    23   12   13 1
    24   12   23 1
    25   13   22 ar
    26   13   14 ar
    27   14   15 ar
    28   15   16 ar
    29   16   21 ar
    30   16   17 ar
    31   17   18 ar
    32   17   43 1
    33   18   19 ar
    34   18   44 1
    35   19   20 ar
    36   19   45 1
    37   20   21 ar
    38   20   46 1
    39   21   22 ar
    40   23   24 2
    41   23   25 am
    42   25   26 1
    43   25   47 1
    44   26   31 ar
    45   26   27 ar
    46   27   28 ar
    47   27   48 1
    48   28   29 ar
    49   28   33 1
    50   29   30 ar
    51   29   49 1
    52   30   31 ar
    53   30   32 1
    54   31   50 1
    55   32   51 1
    56   32   52 1
    57   32   53 1
    58   33   54 1
    59   33   55 1
    60   33   56 1
    61   34   57 1
    62   34   58 1
@<TRIPOS>MOLECULE
ZINC01121777
   55    58     0     0     0
SMALL
USER_CHARGES
3-(3-acetylphenyl)-1-[[2-(4-chlorophenyl)-8-methyl-quinoline-4-carbonyl]amino]urea
@<TRIPOS>ATOM
      1 C1          1.1724   -2.1997    0.0524 C.3       1 <0>        -0.1105
      2 C2          1.1767   -0.6927    0.0563 C.ar      1 <0>        -0.0549
      3 C3          0.0018   -0.0059    0.0822 C.ar      1 <0>        -0.1022
      4 C4         -0.0173    1.3868    0.0862 C.ar      1 <0>        -0.0971
      5 C5          1.1439    2.1016    0.0639 C.ar      1 <0>        -0.1111
      6 C6          2.3695    1.4279    0.0365 C.ar      1 <0>        -0.0549
      7 C7          2.3953    0.0103    0.0327 C.ar      1 <0>         0.1321
      8 N1          3.5624   -0.6354    0.0066 N.ar      1 <0>        -0.4363
      9 C8          4.7163   -0.0027   -0.0163 C.ar      1 <0>         0.1934
     10 C9          4.8037    1.3980   -0.0148 C.ar      1 <0>        -0.1198
     11 C10         3.6402    2.1530    0.0115 C.ar      1 <0>        -0.0662
     12 C11         3.6824    3.6315    0.0137 C.2       1 <0>         0.5711
     13 O1          2.6502    4.2690   -0.0600 O.2       1 <0>        -0.5060
     14 N2          4.8654    4.2717    0.0973 N.am      1 <0>        -0.5242
     15 N3          4.9054    5.6722    0.0993 N.am      1 <0>        -0.5201
     16 C12         6.0884    6.3124    0.1830 C.2       1 <0>         0.7135
     17 O2          6.1231    7.5278    0.1847 O.2       1 <0>        -0.5397
     18 N4          7.2330    5.6055    0.2646 N.am      1 <0>        -0.6844
     19 C13         8.4506    6.2658    0.4664 C.ar      1 <0>         0.1471
     20 C14         9.6120    5.7767   -0.1207 C.ar      1 <0>        -0.1122
     21 C15        10.8171    6.4268    0.0706 C.ar      1 <0>        -0.1092
     22 C16        10.8784    7.5603    0.8544 C.ar      1 <0>        -0.0858
     23 C17         9.7175    8.0584    1.4544 C.ar      1 <0>        -0.1507
     24 C18         8.4989    7.4031    1.2558 C.ar      1 <0>        -0.0615
     25 C19         9.7787    9.2672    2.2919 C.2       1 <0>         0.3917
     26 O3          8.7706    9.6966    2.8112 O.2       1 <0>        -0.4488
     27 C20        11.0941    9.9712    2.5039 C.3       1 <0>        -0.1913
     28 C21         5.9676   -0.7976   -0.0440 C.ar      1 <0>        -0.0512
     29 C22         7.2042   -0.1546   -0.0744 C.ar      1 <0>        -0.0892
     30 C23         8.3657   -0.8989   -0.0958 C.ar      1 <0>        -0.1112
     31 C24         8.3044   -2.2821   -0.0973 C.ar      1 <0>        -0.0215
     32 C25         7.0786   -2.9257   -0.0721 C.ar      1 <0>        -0.1125
     33 C26         5.9114   -2.1906   -0.0457 C.ar      1 <0>        -0.0615
     34 Cl1         9.7694   -3.2128   -0.1316 Cl        1 <0>        -0.0618
     35 H1          1.1503   -2.5603   -0.9759 H         1 <0>         0.0750
     36 H2          2.0716   -2.5669    0.5470 H         1 <0>         0.0783
     37 H3          0.2921   -2.5619    0.5835 H         1 <0>         0.0694
     38 H4         -0.9311   -0.5498    0.1002 H         1 <0>         0.1349
     39 H5         -0.9635    1.9071    0.1028 H         1 <0>         0.1340
     40 H6          1.1174    3.1813    0.0669 H         1 <0>         0.1637
     41 H7          5.7681    1.8837   -0.0336 H         1 <0>         0.1404
     42 H8          5.6892    3.7629    0.1561 H         1 <0>         0.4185
     43 H9          4.0817    6.1810    0.0406 H         1 <0>         0.4505
     44 H10         7.2130    4.6391    0.1836 H         1 <0>         0.4012
     45 H11         9.5719    4.8874   -0.7323 H         1 <0>         0.1323
     46 H12        11.7146    6.0433   -0.3918 H         1 <0>         0.1373
     47 H13        11.8226    8.0626    1.0050 H         1 <0>         0.1376
     48 H14         7.5983    7.7823    1.7157 H         1 <0>         0.1470
     49 H15        11.2214   10.6613    1.7915 H         1 <0>         0.0890
     50 H16        11.0946   10.4536    3.4813 H         1 <0>         0.0899
     51 H17        11.9063    9.2457    2.4564 H         1 <0>         0.0877
     52 H18         7.2529    0.9243   -0.0774 H         1 <0>         0.1332
     53 H19         9.3242   -0.4017   -0.1155 H         1 <0>         0.1402
     54 H20         7.0362   -4.0048   -0.0734 H         1 <0>         0.1399
     55 H21         4.9558   -2.6935   -0.0268 H         1 <0>         0.1468
@<TRIPOS>BOND
     1    1    2 1
     2    1   35 1
     3    1   36 1
     4    1   37 1
     5    2    7 ar
     6    2    3 ar
     7    3    4 ar
     8    3   38 1
     9    4    5 ar
    10    4   39 1
    11    5    6 ar
    12    5   40 1
    13    6   11 ar
    14    6    7 ar
    15    7    8 ar
    16    8    9 ar
    17    9   10 ar
    18    9   28 1
    19   10   11 ar
    20   10   41 1
    21   11   12 1
    22   12   13 2
    23   12   14 am
    24   14   15 1
    25   14   42 1
    26   15   16 am
    27   15   43 1
    28   16   17 2
    29   16   18 am
    30   18   19 1
    31   18   44 1
    32   19   24 ar
    33   19   20 ar
    34   20   21 ar
    35   20   45 1
    36   21   22 ar
    37   21   46 1
    38   22   23 ar
    39   22   47 1
    40   23   24 ar
    41   23   25 1
    42   24   48 1
    43   25   26 2
    44   25   27 1
    45   27   49 1
    46   27   50 1
    47   27   51 1
    48   28   33 ar
    49   28   29 ar
    50   29   30 ar
    51   29   52 1
    52   30   31 ar
    53   30   53 1
    54   31   32 ar
    55   31   34 1
    56   32   33 ar
    57   32   54 1
    58   33   55 1
@<TRIPOS>MOLECULE
ZINC22864351
   52    56     0     0     0
SMALL
USER_CHARGES
(2R)-2-[[(7R)-4-amino-7-methyl-5,6,7,8-tetrahydrobenzothiopheno[2,3-d]pyrimidin-2-yl]sulfanyl]-N-(1,3-benzodioxol-5-yl)propanamide
@<TRIPOS>ATOM
      1 C1         -3.5333   -4.7416   -0.4428 C.3       1 <0>        -0.1506
      2 C2         -3.2053   -3.2544   -0.5900 C.3       1 <0>        -0.0861
      3 H1         -3.1261   -3.0126   -1.6602 H         1 <0>         0.0781
      4 C3         -1.8797   -2.9452    0.1120 C.3       1 <0>        -0.1158
      5 C4         -1.4242   -1.5285   -0.2394 C.3       1 <0>        -0.0707
      6 C5         -2.5656   -0.5574    0.0497 C.2       1 <0>        -0.0779
      7 C6         -3.8320   -1.0011    0.1751 C.2       1 <0>        -0.1503
      8 S1         -4.8002    0.4478    0.5014 S.3       1 <0>         0.1177
      9 C7         -3.4983    1.6521    0.4685 C.ar      1 <0>         0.1610
     10 C8         -2.3477    0.8829    0.2042 C.ar      1 <0>        -0.2568
     11 C9         -1.1281    1.6115    0.1228 C.ar      1 <0>         0.5079
     12 N1         -1.1452    2.9220    0.2991 N.ar      1 <0>        -0.5996
     13 C10        -2.2689    3.5873    0.5394 C.ar      1 <0>         0.3462
     14 N2         -3.4345    2.9599    0.6268 N.ar      1 <0>        -0.5054
     15 S2         -2.2097    5.3352    0.7540 S.3       1 <0>         0.1221
     16 C11        -0.4355    5.6188    0.5354 C.3       1 <0>        -0.1174
     17 H2          0.0522    5.2724   -0.3877 H         1 <0>         0.1240
     18 C12         0.3334    4.9377    1.6693 C.3       1 <0>        -0.1484
     19 C13        -0.1569    7.0997    0.5583 C.2       1 <0>         0.5327
     20 O1         -0.9154    7.8506    1.1344 O.2       1 <0>        -0.5038
     21 N3          0.9350    7.5896   -0.0615 N.am      1 <0>        -0.6756
     22 C14         1.2471    8.9515    0.0417 C.ar      1 <0>         0.1588
     23 C15         0.2300    9.8959    0.0801 C.ar      1 <0>        -0.1093
     24 C16         0.5361   11.2391    0.1861 C.ar      1 <0>        -0.0791
     25 C17         1.8586   11.6483    0.2449 C.ar      1 <0>         0.0185
     26 C18         2.8812   10.7036    0.2011 C.ar      1 <0>         0.0511
     27 C19         2.5732    9.3572    0.0996 C.ar      1 <0>        -0.1261
     28 O2          4.0793   11.3538    0.2742 O.3       1 <0>        -0.3096
     29 C20         3.7920   12.7272   -0.0488 C.3       1 <0>         0.2095
     30 O3          2.4169   12.8909    0.3454 O.3       1 <0>        -0.3035
     31 N4          0.0625    0.9558   -0.1322 N.pl3     1 <0>        -0.8535
     32 C21        -4.3140   -2.4155    0.0615 C.3       1 <0>        -0.0369
     33 H3         -2.7378   -5.3405   -0.9102 H         1 <0>         0.0601
     34 H4         -4.4923   -4.9562   -0.9370 H         1 <0>         0.0600
     35 H5         -3.6056   -4.9972    0.6246 H         1 <0>         0.0583
     36 H6         -2.0144   -3.0239    1.2009 H         1 <0>         0.0710
     37 H7         -1.1147   -3.6645   -0.2157 H         1 <0>         0.0753
     38 H8         -0.5471   -1.2638    0.3694 H         1 <0>         0.0780
     39 H9         -1.1577   -1.4829   -1.3057 H         1 <0>         0.0847
     40 H10         1.4116    5.1101    1.5364 H         1 <0>         0.0681
     41 H11         0.1301    3.8568    1.6526 H         1 <0>         0.0954
     42 H12         0.0113    5.3566    2.6341 H         1 <0>         0.0682
     43 H13         1.5811    6.9202   -0.6484 H         1 <0>         0.4390
     44 H14        -0.8016    9.5800    0.0305 H         1 <0>         0.1541
     45 H15        -0.2568   11.9716    0.2196 H         1 <0>         0.1414
     46 H16         3.3647    8.6231    0.0659 H         1 <0>         0.1393
     47 H17         4.4684   13.3858    0.5157 H         1 <0>         0.1346
     48 H18         3.9383   12.8887   -1.1270 H         1 <0>         0.0866
     49 H19         1.0017    1.5251   -0.1938 H         1 <0>         0.4269
     50 H20         0.0703   -0.1351   -0.2734 H         1 <0>         0.4328
     51 H21        -5.2189   -2.4557   -0.5626 H         1 <0>         0.0865
     52 H22        -4.5392   -2.8177    1.0603 H         1 <0>         0.0889
@<TRIPOS>BOND
     1    1    2 1
     2    1   33 1
     3    1   34 1
     4    1   35 1
     5    2    3 1
     6    2   32 1
     7    2    4 1
     8    4    5 1
     9    4   36 1
    10    4   37 1
    11    5    6 1
    12    5   38 1
    13    5   39 1
    14    6   10 1
    15    6    7 2
    16    7    8 1
    17    7   32 1
    18    8    9 1
    19    9   14 ar
    20    9   10 ar
    21   10   11 ar
    22   11   12 ar
    23   11   31 1
    24   12   13 ar
    25   13   14 ar
    26   13   15 1
    27   15   16 1
    28   16   17 1
    29   16   18 1
    30   16   19 1
    31   18   40 1
    32   18   41 1
    33   18   42 1
    34   19   20 2
    35   19   21 am
    36   21   22 1
    37   21   43 1
    38   22   27 ar
    39   22   23 ar
    40   23   24 ar
    41   23   44 1
    42   24   25 ar
    43   24   45 1
    44   25   30 1
    45   25   26 ar
    46   26   27 ar
    47   26   28 1
    48   27   46 1
    49   28   29 1
    50   29   30 1
    51   29   47 1
    52   29   48 1
    53   31   49 1
    54   31   50 1
    55   32   51 1
    56   32   52 1
@<TRIPOS>MOLECULE
ZINC37359118
   46    49     0     0     0
SMALL
USER_CHARGES

@<TRIPOS>ATOM
      1 C1         -0.3631    2.4726    0.3416 C.3       1 <0>        -0.1622
      2 C2         -0.0036    0.9859    0.3080 C.3       1 <0>         0.1522
      3 C3          0.8797    0.7021   -0.9087 C.3       1 <0>        -0.1622
      4 N1          0.7209    0.6308    1.5308 N.pl3     1 <0>        -0.6860
      5 C4          0.0216    0.2999    2.6776 C.ar      1 <0>         0.6137
      6 N2          0.7149   -0.0113    3.7686 N.ar      1 <0>        -0.5815
      7 C5          0.1242   -0.3405    4.9102 C.ar      1 <0>         0.3753
      8 C6         -1.2878   -0.3565    4.9528 C.ar      1 <0>        -0.3661
      9 C7         -2.2516   -0.6351    5.9144 C.2       1 <0>         0.4351
     10 N3         -3.4583   -0.4729    5.3376 N.pl3     1 <0>        -0.2923
     11 N4         -3.2997   -0.0889    4.0012 N.2       1 <0>        -0.2812
     12 C8         -2.0176   -0.0050    3.7208 C.ar      1 <0>         0.3553
     13 N5         -1.2947    0.3154    2.6305 N.ar      1 <0>        -0.5719
     14 C9         -4.6885   -0.6605    5.9799 C.ar      1 <0>         0.1540
     15 C10        -4.7322   -0.8725    7.3517 C.ar      1 <0>        -0.1474
     16 C11        -5.9469   -1.0573    7.9823 C.ar      1 <0>        -0.0909
     17 C12        -7.1196   -1.0319    7.2495 C.ar      1 <0>        -0.1090
     18 C13        -7.0807   -0.8212    5.8836 C.ar      1 <0>        -0.0907
     19 C14        -5.8688   -0.6294    5.2469 C.ar      1 <0>        -0.0355
     20 Cl1        -5.8208   -0.3576    3.5330 Cl        1 <0>        -0.0134
     21 N6         -2.0153   -1.0101    7.2236 N.pl3     1 <0>        -0.8508
     22 C15         0.9242   -0.6826    6.1082 C.ar      1 <0>        -0.0511
     23 C16         0.5761   -1.7833    6.8919 C.ar      1 <0>        -0.0849
     24 C17         1.3249   -2.0975    8.0071 C.ar      1 <0>        -0.1114
     25 C18         2.4196   -1.3238    8.3497 C.ar      1 <0>        -0.0908
     26 C19         2.7706   -0.2303    7.5766 C.ar      1 <0>        -0.0400
     27 C20         2.0320    0.0907    6.4545 C.ar      1 <0>        -0.0608
     28 Cl2         4.1454    0.7350    8.0144 Cl        1 <0>        -0.0599
     29 H1          0.5491    3.0656    0.4086 H         1 <0>         0.0534
     30 H2         -0.9021    2.7368   -0.5683 H         1 <0>         0.0652
     31 H3         -0.9924    2.6748    1.2083 H         1 <0>         0.0616
     32 H4         -0.9157    0.3929    0.2409 H         1 <0>         0.0946
     33 H5          1.7919    1.2951   -0.8416 H         1 <0>         0.0607
     34 H6          1.1359   -0.3571   -0.9326 H         1 <0>         0.0615
     35 H7          0.3407    0.9663   -1.8185 H         1 <0>         0.0750
     36 H8          1.6908    0.6279    1.5364 H         1 <0>         0.4127
     37 H9         -3.8170   -0.8932    7.9248 H         1 <0>         0.1528
     38 H10        -5.9810   -1.2221    9.0491 H         1 <0>         0.1418
     39 H11        -8.0679   -1.1775    7.7454 H         1 <0>         0.1407
     40 H12        -7.9982   -0.8023    5.3143 H         1 <0>         0.1450
     41 H13        -1.3202   -0.5690    7.7366 H         1 <0>         0.4205
     42 H14        -2.5446   -1.7145    7.6294 H         1 <0>         0.4113
     43 H15        -0.2783   -2.3880    6.6261 H         1 <0>         0.1372
     44 H16         1.0558   -2.9491    8.6144 H         1 <0>         0.1402
     45 H17         3.0024   -1.5737    9.2239 H         1 <0>         0.1387
     46 H18         2.3090    0.9412    5.8493 H         1 <0>         0.1418
@<TRIPOS>BOND
     1    1    2 1
     2    1   29 1
     3    1   30 1
     4    1   31 1
     5    2    3 1
     6    2    4 1
     7    2   32 1
     8    3   33 1
     9    3   34 1
    10    3   35 1
    11    4    5 1
    12    4   36 1
    13    5   13 ar
    14    5    6 ar
    15    6    7 ar
    16    7    8 ar
    17    7   22 1
    18    8   12 ar
    19    8    9 2
    20    9   10 1
    21    9   21 1
    22   10   11 1
    23   10   14 1
    24   11   12 2
    25   12   13 ar
    26   14   19 ar
    27   14   15 ar
    28   15   16 ar
    29   15   37 1
    30   16   17 ar
    31   16   38 1
    32   17   18 ar
    33   17   39 1
    34   18   19 ar
    35   18   40 1
    36   19   20 1
    37   21   41 1
    38   21   42 1
    39   22   27 ar
    40   22   23 ar
    41   23   24 ar
    42   23   43 1
    43   24   25 ar
    44   24   44 1
    45   25   26 ar
    46   25   45 1
    47   26   27 ar
    48   26   28 1
    49   27   46 1
@<TRIPOS>MOLECULE
ZINC09291363
   52    56     0     0     0
SMALL
USER_CHARGES

@<TRIPOS>ATOM
      1 C1          0.3710    2.1367    0.6282 C.ar      1 <0>        -0.1078
      2 C2          0.8914    1.9824    1.8995 C.ar      1 <0>        -0.1228
      3 C3          2.1605    1.4610    2.0684 C.ar      1 <0>        -0.0942
      4 C4          2.9090    1.0934    0.9659 C.ar      1 <0>        -0.1002
      5 C5          2.3883    1.2468   -0.3054 C.ar      1 <0>        -0.0949
      6 C6          1.1197    1.7695   -0.4743 C.ar      1 <0>        -0.1230
      7 C7          4.2929    0.5259    1.1499 C.3       1 <0>         0.1013
      8 O1          4.2125   -0.8957    1.2707 O.3       1 <0>        -0.3041
      9 C8          5.3811   -1.5671    1.4435 C.ar      1 <0>         0.1522
     10 C9          6.5794   -0.8681    1.5010 C.ar      1 <0>        -0.2092
     11 C10         7.7671   -1.5459    1.6762 C.ar      1 <0>        -0.0515
     12 C11         7.7639   -2.9361    1.7962 C.ar      1 <0>        -0.0890
     13 C12         6.5576   -3.6351    1.7384 C.ar      1 <0>        -0.0356
     14 C13         5.3734   -2.9500    1.5678 C.ar      1 <0>        -0.1428
     15 C14         9.0364   -3.6673    1.9839 C.2       1 <0>         0.1904
     16 C15         9.2815   -4.6311    2.9040 C.2       1 <0>        -0.2555
     17 C16        10.6126   -5.0625    2.7411 C.2       1 <0>         0.2709
     18 N1         11.1462   -4.3856    1.7643 N.2       1 <0>        -0.2508
     19 N2         10.1818   -3.5007    1.2577 N.pl3     1 <0>        -0.4581
     20 H1         10.3068   -2.8793    0.5234 H         1 <0>         0.4514
     21 O2         11.1562   -6.0334    3.5243 O.3       1 <0>        -0.2105
     22 C17        10.3145   -6.7649    4.2810 C.2       1 <0>         0.4432
     23 C18         9.0250   -6.4451    4.5178 C.2       1 <0>        -0.2656
     24 C19         8.3695   -5.2090    3.9556 C.3       1 <0>         0.1149
     25 H2          7.4114   -5.4721    3.5073 H         1 <0>         0.1030
     26 C20         8.1577   -4.2005    5.0552 C.ar      1 <0>        -0.0605
     27 C21         9.2458   -3.6344    5.6930 C.ar      1 <0>        -0.0891
     28 C22         9.0517   -2.7095    6.7016 C.ar      1 <0>        -0.1145
     29 C23         7.7695   -2.3499    7.0732 C.ar      1 <0>        -0.1086
     30 C24         6.6810   -2.9151    6.4365 C.ar      1 <0>        -0.1094
     31 C25         6.8747   -3.8369    5.4228 C.ar      1 <0>        -0.0247
     32 Cl1         5.5079   -4.5424    4.6179 Cl        1 <0>        -0.0641
     33 C26         8.2438   -7.3194    5.3400 C.1       1 <0>         0.2692
     34 N3          7.6241   -8.0129    5.9923 N.1       1 <0>        -0.4367
     35 N4         10.8027   -7.9144    4.8507 N.pl3     1 <0>        -0.8301
     36 H3         -0.6222    2.5399    0.4965 H         1 <0>         0.1252
     37 H4          0.3066    2.2696    2.7609 H         1 <0>         0.1262
     38 H5          2.5673    1.3412    3.0616 H         1 <0>         0.1245
     39 H6          2.9732    0.9599   -1.1668 H         1 <0>         0.1242
     40 H7          0.7131    1.8897   -1.4676 H         1 <0>         0.1261
     41 H8          4.9086    0.7831    0.2880 H         1 <0>         0.0734
     42 H9          4.7394    0.9427    2.0527 H         1 <0>         0.0738
     43 H10         6.5812    0.2079    1.4081 H         1 <0>         0.1333
     44 H11         8.6989   -1.0016    1.7202 H         1 <0>         0.1272
     45 H12         6.5512   -4.7112    1.8309 H         1 <0>         0.1345
     46 H13         4.4390   -3.4900    1.5266 H         1 <0>         0.1361
     47 H14        10.2476   -3.9152    5.4033 H         1 <0>         0.1236
     48 H15         9.9021   -2.2677    7.1997 H         1 <0>         0.1273
     49 H16         7.6185   -1.6273    7.8616 H         1 <0>         0.1302
     50 H17         5.6795   -2.6343    6.7271 H         1 <0>         0.1320
     51 H18        11.7251   -8.1754    4.7023 H         1 <0>         0.4124
     52 H19        10.2253   -8.4658    5.4015 H         1 <0>         0.4271
@<TRIPOS>BOND
     1    1    6 ar
     2    1    2 ar
     3    1   36 1
     4    2    3 ar
     5    2   37 1
     6    3    4 ar
     7    3   38 1
     8    4    5 ar
     9    4    7 1
    10    5    6 ar
    11    5   39 1
    12    6   40 1
    13    7    8 1
    14    7   41 1
    15    7   42 1
    16    8    9 1
    17    9   14 ar
    18    9   10 ar
    19   10   11 ar
    20   10   43 1
    21   11   12 ar
    22   11   44 1
    23   12   13 ar
    24   12   15 1
    25   13   14 ar
    26   13   45 1
    27   14   46 1
    28   15   19 1
    29   15   16 2
    30   16   24 1
    31   16   17 1
    32   17   18 2
    33   17   21 1
    34   18   19 1
    35   19   20 1
    36   21   22 1
    37   22   23 2
    38   22   35 1
    39   23   24 1
    40   23   33 1
    41   24   25 1
    42   24   26 1
    43   26   31 ar
    44   26   27 ar
    45   27   28 ar
    46   27   47 1
    47   28   29 ar
    48   28   48 1
    49   29   30 ar
    50   29   49 1
    51   30   31 ar
    52   30   50 1
    53   31   32 1
    54   33   34 3
    55   35   51 1
    56   35   52 1
@<TRIPOS>MOLECULE
ZINC08382694
   50    53     0     0     0
SMALL
USER_CHARGES
4-amino-9-butyl-2-(4-methoxy-1-naphthyl)-5-oxa-7,8-diazabicyclo[4.3.0]nona-3,6,9-triene-3-carbonitrile
@<TRIPOS>ATOM
      1 C1          1.8313    8.2212   -3.7802 C.3       1 <0>        -0.1541
      2 C2          1.4312    6.7444   -3.7815 C.3       1 <0>        -0.1244
      3 C3          2.5349    5.9165   -3.1201 C.3       1 <0>        -0.1142
      4 C4          2.1348    4.4397   -3.1214 C.3       1 <0>        -0.0657
      5 C5          3.2218    3.6242   -2.4699 C.2       1 <0>         0.1446
      6 C6          3.3650    3.4025   -1.1546 C.2       1 <0>        -0.2667
      7 C7          4.5070    2.5929   -0.9678 C.2       1 <0>         0.2678
      8 N1          5.0200    2.3444   -2.1377 N.2       1 <0>        -0.2586
      9 N2          4.2295    2.9833   -3.1061 N.pl3     1 <0>        -0.4636
     10 H1          4.3842    2.9675   -4.0939 H         1 <0>         0.4562
     11 O1          4.9158    2.1966    0.2673 O.3       1 <0>        -0.2122
     12 C8          4.3647    2.8139    1.3312 C.2       1 <0>         0.4404
     13 C9          3.2691    3.5998    1.2771 C.2       1 <0>        -0.2643
     14 C10         2.5198    3.8793   -0.0011 C.3       1 <0>         0.1261
     15 H2          2.3387    4.9500   -0.0948 H         1 <0>         0.0963
     16 C11         1.2066    3.1401    0.0070 C.ar      1 <0>        -0.1007
     17 C12         1.1888    1.7785   -0.0096 C.ar      1 <0>        -0.0538
     18 C13        -0.0127    1.0759   -0.0021 C.ar      1 <0>        -0.2199
     19 C14        -1.2107    1.7334    0.0169 C.ar      1 <0>         0.1450
     20 C15        -1.2297    3.1427    0.0398 C.ar      1 <0>        -0.0691
     21 C16        -0.0038    3.8534    0.0321 C.ar      1 <0>        -0.0053
     22 C17        -0.0223    5.2587    0.0501 C.ar      1 <0>        -0.1205
     23 C18        -1.2137    5.9161    0.0752 C.ar      1 <0>        -0.0987
     24 C19        -2.4190    5.2165    0.0823 C.ar      1 <0>        -0.1295
     25 C20        -2.4393    3.8554    0.0653 C.ar      1 <0>        -0.0823
     26 O2         -2.3746    1.0338    0.0183 O.3       1 <0>        -0.3125
     27 C21        -2.2748   -0.3916   -0.0007 C.3       1 <0>         0.0264
     28 C22         2.7963    4.1963    2.4901 C.1       1 <0>         0.2703
     29 N3          2.4212    4.6696    3.4523 N.1       1 <0>        -0.4408
     30 N4          4.9590    2.6301    2.5548 N.pl3     1 <0>        -0.8320
     31 H3          2.7613    8.3461   -4.3350 H         1 <0>         0.0532
     32 H4          1.0451    8.8110   -4.2514 H         1 <0>         0.0554
     33 H5          1.9727    8.5584   -2.7534 H         1 <0>         0.0553
     34 H6          1.2899    6.4072   -4.8083 H         1 <0>         0.0625
     35 H7          0.5013    6.6195   -3.2267 H         1 <0>         0.0669
     36 H8          2.6762    6.2537   -2.0933 H         1 <0>         0.0707
     37 H9          3.4648    6.0414   -3.6749 H         1 <0>         0.0648
     38 H10         1.9934    4.1024   -4.1482 H         1 <0>         0.0821
     39 H11         1.2048    4.3147   -2.5666 H         1 <0>         0.0993
     40 H12         2.1220    1.2352   -0.0285 H         1 <0>         0.1171
     41 H13         0.0019   -0.0039   -0.0160 H         1 <0>         0.1269
     42 H14         0.9041    5.8138    0.0449 H         1 <0>         0.1295
     43 H15        -1.2253    6.9959    0.0893 H         1 <0>         0.1235
     44 H16        -3.3508    5.7623    0.1019 H         1 <0>         0.1235
     45 H17        -3.3809    3.3265    0.0718 H         1 <0>         0.1302
     46 H18        -3.2745   -0.8259    0.0026 H         1 <0>         0.1022
     47 H19        -1.7448   -0.7067   -0.8996 H         1 <0>         0.0573
     48 H20        -1.7290   -0.7294    0.8802 H         1 <0>         0.0573
     49 H21         4.5896    3.0587    3.3427 H         1 <0>         0.4265
     50 H22         5.7484    2.0716    2.6316 H         1 <0>         0.4116
@<TRIPOS>BOND
     1    1    2 1
     2    1   31 1
     3    1   32 1
     4    1   33 1
     5    2    3 1
     6    2   34 1
     7    2   35 1
     8    3    4 1
     9    3   36 1
    10    3   37 1
    11    4    5 1
    12    4   38 1
    13    4   39 1
    14    5    9 1
    15    5    6 2
    16    6   14 1
    17    6    7 1
    18    7    8 2
    19    7   11 1
    20    8    9 1
    21    9   10 1
    22   11   12 1
    23   12   13 2
    24   12   30 1
    25   13   14 1
    26   13   28 1
    27   14   15 1
    28   14   16 1
    29   16   21 ar
    30   16   17 ar
    31   17   18 ar
    32   17   40 1
    33   18   19 ar
    34   18   41 1
    35   19   20 ar
    36   19   26 1
    37   20   25 ar
    38   20   21 ar
    39   21   22 ar
    40   22   23 ar
    41   22   42 1
    42   23   24 ar
    43   23   43 1
    44   24   25 ar
    45   24   44 1
    46   25   45 1
    47   26   27 1
    48   27   46 1
    49   27   47 1
    50   27   48 1
    51   28   29 3
    52   30   49 1
    53   30   50 1
@<TRIPOS>MOLECULE
ZINC23875416
   50    53     0     0     0
SMALL
USER_CHARGES
2-[[(7R)-4-amino-7-methyl-5,6,7,8-tetrahydrobenzothiopheno[2,3-d]pyrimidin-2-yl]sulfanyl]-N-(1-cyanocyclopentyl)acetamide
@<TRIPOS>ATOM
      1 C1         -1.2427   -0.7541   -0.6063 C.3       1 <0>        -0.1506
      2 C2          0.1648   -0.1654   -0.7210 C.3       1 <0>        -0.0858
      3 H1          0.6136   -0.5015   -1.6674 H         1 <0>         0.0780
      4 C3          1.0212   -0.6381    0.4575 C.3       1 <0>        -0.1156
      5 C4          2.4836   -0.2622    0.2193 C.3       1 <0>        -0.0699
      6 C5          2.5669    1.2296   -0.0940 C.2       1 <0>        -0.0784
      7 C6          1.4693    1.9097   -0.4939 C.2       1 <0>        -0.1548
      8 S1          2.0181    3.5799   -0.7411 S.3       1 <0>         0.1209
      9 C7          3.7152    3.3666   -0.3109 C.ar      1 <0>         0.1477
     10 C8          3.8020    1.9897    0.0151 C.ar      1 <0>        -0.2604
     11 C9          5.0798    1.4991    0.4118 C.ar      1 <0>         0.5137
     12 N1          6.0654    2.3929    0.4358 N.ar      1 <0>        -0.6123
     13 C10         5.9127    3.6695    0.1168 C.ar      1 <0>         0.3385
     14 N2          4.7432    4.1902   -0.2624 N.ar      1 <0>        -0.4836
     15 S2          7.3179    4.7295    0.1972 S.3       1 <0>         0.1031
     16 C11         8.5737    3.5459    0.7434 C.3       1 <0>        -0.1541
     17 C12         9.8989    4.2492    0.8852 C.2       1 <0>         0.5316
     18 O1          9.9859    5.4340    0.6410 O.2       1 <0>        -0.5110
     19 N3         10.9875    3.5616    1.2833 N.am      1 <0>        -0.7260
     20 C13        12.2759    4.2452    1.4212 C.3       1 <0>         0.2756
     21 C14        12.7361    4.7863    0.0518 C.3       1 <0>        -0.1242
     22 C15        14.2714    4.5815    0.0590 C.3       1 <0>        -0.1286
     23 C16        14.4314    3.2211    0.7819 C.3       1 <0>        -0.1178
     24 C17        13.3537    3.2500    1.8854 C.3       1 <0>        -0.1160
     25 C18        12.1594    5.3495    2.3875 C.1       1 <0>         0.2010
     26 N4         12.0696    6.2017    3.1333 N.1       1 <0>        -0.4065
     27 N5          5.2829    0.1743    0.7531 N.pl3     1 <0>        -0.8485
     28 C19         0.0865    1.3674   -0.6870 C.3       1 <0>        -0.0370
     29 H2         -1.1839   -1.8523   -0.6309 H         1 <0>         0.0601
     30 H3         -1.8575   -0.4009   -1.4473 H         1 <0>         0.0599
     31 H4         -1.6985   -0.4324    0.3417 H         1 <0>         0.0582
     32 H5          0.6687   -0.1585    1.3825 H         1 <0>         0.0710
     33 H6          0.9381   -1.7305    0.5562 H         1 <0>         0.0753
     34 H7          3.0713   -0.4857    1.1219 H         1 <0>         0.0776
     35 H8          2.8780   -0.8424   -0.6280 H         1 <0>         0.0848
     36 H9          8.2788    3.1202    1.7139 H         1 <0>         0.1269
     37 H10         8.6644    2.7389    0.0014 H         1 <0>         0.1295
     38 H11        10.9086    2.4870    1.5047 H         1 <0>         0.4346
     39 H12        12.2472    4.2152   -0.7512 H         1 <0>         0.0889
     40 H13        12.4616    5.8481   -0.0340 H         1 <0>         0.0835
     41 H14        14.6431    4.5589   -0.9760 H         1 <0>         0.0798
     42 H15        14.7493    5.4101    0.6022 H         1 <0>         0.0718
     43 H16        14.2663    2.4033    0.0650 H         1 <0>         0.0781
     44 H17        15.4466    3.1443    1.1983 H         1 <0>         0.0780
     45 H18        13.7797    3.5901    2.8408 H         1 <0>         0.0849
     46 H19        12.9019    2.2559    2.0186 H         1 <0>         0.0904
     47 H20         6.2836   -0.1688    1.0546 H         1 <0>         0.4284
     48 H21         4.4437   -0.5363    0.7231 H         1 <0>         0.4351
     49 H22        -0.3315    1.7343   -1.6360 H         1 <0>         0.0858
     50 H23        -0.5602    1.6832    0.1449 H         1 <0>         0.0881
@<TRIPOS>BOND
     1    1    2 1
     2    1   29 1
     3    1   30 1
     4    1   31 1
     5    2    3 1
     6    2   28 1
     7    2    4 1
     8    4    5 1
     9    4   32 1
    10    4   33 1
    11    5    6 1
    12    5   34 1
    13    5   35 1
    14    6   10 1
    15    6    7 2
    16    7    8 1
    17    7   28 1
    18    8    9 1
    19    9   14 ar
    20    9   10 ar
    21   10   11 ar
    22   11   12 ar
    23   11   27 1
    24   12   13 ar
    25   13   14 ar
    26   13   15 1
    27   15   16 1
    28   16   17 1
    29   16   36 1
    30   16   37 1
    31   17   18 2
    32   17   19 am
    33   19   20 1
    34   19   38 1
    35   20   24 1
    36   20   21 1
    37   20   25 1
    38   21   22 1
    39   21   39 1
    40   21   40 1
    41   22   23 1
    42   22   41 1
    43   22   42 1
    44   23   24 1
    45   23   43 1
    46   23   44 1
    47   24   45 1
    48   24   46 1
    49   25   26 3
    50   27   47 1
    51   27   48 1
    52   28   49 1
    53   28   50 1
@<TRIPOS>MOLECULE
ZINC38610193
   49    53     0     0     0
SMALL
USER_CHARGES

@<TRIPOS>ATOM
      1 C1          1.1546    1.0802    0.3488 C.ar      1 <0>        -0.1272
      2 C2          1.8997    1.5843   -0.7026 C.ar      1 <0>        -0.0932
      3 C3          2.4612    0.7295   -1.6319 C.ar      1 <0>        -0.1454
      4 C4          2.2798   -0.6393   -1.5147 C.ar      1 <0>         0.1352
      5 C5          1.5277   -1.1513   -0.4538 C.ar      1 <0>        -0.0402
      6 C6          0.9665   -0.2811    0.4774 C.ar      1 <0>        -0.0805
      7 C7          1.3276   -2.6158   -0.3205 C.2       1 <0>         0.1244
      8 C8          0.1178   -3.2654   -0.0529 C.2       1 <0>        -0.1672
      9 C9          0.4140   -4.6145   -0.0204 C.2       1 <0>        -0.0614
     10 N1          1.7544   -4.7148   -0.2636 N.pl3     1 <0>        -0.3328
     11 H1          2.2528   -5.5461   -0.3024 H         1 <0>         0.4532
     12 N2          2.2563   -3.5443   -0.4383 N.2       1 <0>        -0.2402
     13 C10        -0.8206   -5.3567    0.2579 C.2       1 <0>         0.6010
     14 O1         -0.8972   -6.5669    0.3513 O.2       1 <0>        -0.5143
     15 N3         -1.8559   -4.5089    0.3957 N.am      1 <0>        -0.5919
     16 C11        -1.3573   -3.1395    0.2133 C.3       1 <0>         0.2525
     17 H2         -1.5267   -2.5554    1.1179 H         1 <0>         0.1100
     18 C12        -2.0427   -2.4895   -0.9608 C.ar      1 <0>        -0.1053
     19 C13        -2.2363   -3.2035   -2.1289 C.ar      1 <0>        -0.0767
     20 C14        -2.8639   -2.6097   -3.2068 C.ar      1 <0>        -0.1431
     21 C15        -3.3004   -1.2960   -3.1165 C.ar      1 <0>         0.1156
     22 C16        -3.1053   -0.5818   -1.9432 C.ar      1 <0>        -0.1415
     23 C17        -2.4818   -1.1818   -0.8663 C.ar      1 <0>        -0.0812
     24 O2         -3.9177   -0.7095   -4.1757 O.3       1 <0>        -0.4988
     25 C18        -3.2427   -4.8866    0.6790 C.3       1 <0>         0.1800
     26 C19        -3.4585   -4.9246    2.1700 C.ar      1 <0>        -0.1134
     27 C20        -3.2341   -6.0948    2.8709 C.ar      1 <0>        -0.0812
     28 C21        -3.4318   -6.1303    4.2384 C.ar      1 <0>        -0.1121
     29 C22        -3.8543   -4.9943    4.9057 C.ar      1 <0>        -0.0267
     30 C23        -4.0787   -3.8235    4.2036 C.ar      1 <0>        -0.1133
     31 C24        -3.8752   -3.7877    2.8370 C.ar      1 <0>        -0.0889
     32 Cl1        -4.1034   -5.0383    6.6232 Cl        1 <0>        -0.0666
     33 O3          2.8306   -1.4807   -2.4282 O.3       1 <0>        -0.4910
     34 H3          0.7224    1.7540    1.0738 H         1 <0>         0.1303
     35 H4          2.0426    2.6506   -0.7976 H         1 <0>         0.1296
     36 H5          3.0418    1.1286   -2.4505 H         1 <0>         0.1324
     37 H6          0.3846   -0.6711    1.2995 H         1 <0>         0.1273
     38 H7         -1.8964   -4.2262   -2.1987 H         1 <0>         0.1203
     39 H8         -3.0143   -3.1677   -4.1192 H         1 <0>         0.1298
     40 H9         -3.4441    0.4411   -1.8704 H         1 <0>         0.1323
     41 H10        -2.3336   -0.6277    0.0488 H         1 <0>         0.1301
     42 H11        -4.8783   -0.8202   -4.1818 H         1 <0>         0.3927
     43 H12        -3.9169   -4.1555    0.2328 H         1 <0>         0.1009
     44 H13        -3.4444   -5.8714    0.2575 H         1 <0>         0.1022
     45 H14        -2.9047   -6.9816    2.3499 H         1 <0>         0.1368
     46 H15        -3.2569   -7.0447    4.7859 H         1 <0>         0.1352
     47 H16        -4.4088   -2.9365    4.7239 H         1 <0>         0.1357
     48 H17        -4.0457   -2.8725    2.2895 H         1 <0>         0.1333
     49 H18         3.7218   -1.7792   -2.2009 H         1 <0>         0.3934
@<TRIPOS>BOND
     1    1    6 ar
     2    1    2 ar
     3    1   34 1
     4    2    3 ar
     5    2   35 1
     6    3    4 ar
     7    3   36 1
     8    4    5 ar
     9    4   33 1
    10    5    6 ar
    11    5    7 1
    12    6   37 1
    13    7   12 2
    14    7    8 1
    15    8   16 1
    16    8    9 2
    17    9   10 1
    18    9   13 1
    19   10   11 1
    20   10   12 1
    21   13   14 2
    22   13   15 am
    23   15   16 1
    24   15   25 1
    25   16   17 1
    26   16   18 1
    27   18   23 ar
    28   18   19 ar
    29   19   20 ar
    30   19   38 1
    31   20   21 ar
    32   20   39 1
    33   21   22 ar
    34   21   24 1
    35   22   23 ar
    36   22   40 1
    37   23   41 1
    38   24   42 1
    39   25   26 1
    40   25   43 1
    41   25   44 1
    42   26   31 ar
    43   26   27 ar
    44   27   28 ar
    45   27   45 1
    46   28   29 ar
    47   28   46 1
    48   29   30 ar
    49   29   32 1
    50   30   31 ar
    51   30   47 1
    52   31   48 1
    53   33   49 1
@<TRIPOS>MOLECULE
ZINC05941818
   51    54     0     0     0
SMALL
USER_CHARGES

@<TRIPOS>ATOM
      1 C1          0.0343    1.5201    0.7935 C.3       1 <0>        -0.1233
      2 C2          0.2028    0.0295    0.6489 C.ar      1 <0>        -0.0606
      3 C3         -0.1121   -0.5889   -0.5468 C.ar      1 <0>        -0.1121
      4 C4          0.0424   -1.9560   -0.6795 C.ar      1 <0>        -0.1082
      5 C5          0.5125   -2.7049    0.3834 C.ar      1 <0>        -0.1219
      6 C6          0.8282   -2.0865    1.5784 C.ar      1 <0>        -0.1086
      7 C7          0.6776   -0.7184    1.7097 C.ar      1 <0>        -0.0825
      8 C8          1.0269   -0.0434    3.0111 C.3       1 <0>         0.0633
      9 H1          0.9307    1.0365    2.8988 H         1 <0>         0.1023
     10 C9          2.4688   -0.3922    3.3988 C.3       1 <0>        -0.1400
     11 H2          2.7130   -1.4302    3.1729 H         1 <0>         0.1540
     12 C10         3.4444    0.5725    2.7646 C.2       1 <0>         0.1809
     13 N1          4.0187    1.2076    3.7511 N.2       1 <0>        -0.2821
     14 N2          3.5212    0.8147    4.9935 N.2       1 <0>        -0.2680
     15 C11         2.5870   -0.0814    4.8882 C.2       1 <0>         0.2606
     16 O1          1.7554   -0.6476    5.7902 O.3       1 <0>        -0.1977
     17 C12         0.4739   -0.7814    5.3617 C.2       1 <0>         0.4325
     18 C13         0.0955   -0.5220    4.0921 C.2       1 <0>        -0.2710
     19 C14        -1.2815   -0.7165    3.7503 C.1       1 <0>         0.2690
     20 N3         -2.3738   -0.8707    3.4791 N.1       1 <0>        -0.4310
     21 N4         -0.4787   -1.1974    6.2585 N.pl3     1 <0>        -0.8232
     22 C15         3.6961    0.7584    1.3274 C.ar      1 <0>        -0.0931
     23 C16         4.2071    1.9724    0.8556 C.ar      1 <0>        -0.0253
     24 C17         4.4410    2.1414   -0.4911 C.ar      1 <0>        -0.2192
     25 C18         4.1700    1.1090   -1.3808 C.ar      1 <0>         0.1650
     26 C19         3.6624   -0.0986   -0.9174 C.ar      1 <0>        -0.1536
     27 C20         3.4308   -0.2800    0.4282 C.ar      1 <0>        -0.0293
     28 O2          4.4016    1.2811   -2.7079 O.3       1 <0>        -0.3053
     29 C21         4.8181    2.5810   -3.1306 C.3       1 <0>         0.0751
     30 C22         6.3354    2.7050   -2.9784 C.3       1 <0>        -0.1828
     31 C23         4.4341    2.7878   -4.5971 C.3       1 <0>        -0.1505
     32 H3          0.9846    2.0144    0.5920 H         1 <0>         0.0745
     33 H4         -0.7156    1.8714    0.0847 H         1 <0>         0.0686
     34 H5         -0.2881    1.7525    1.8085 H         1 <0>         0.0668
     35 H6         -0.4793   -0.0039   -1.3771 H         1 <0>         0.1221
     36 H7         -0.2043   -2.4392   -1.6134 H         1 <0>         0.1224
     37 H8          0.6326   -3.7732    0.2799 H         1 <0>         0.1230
     38 H9          1.1950   -2.6716    2.4088 H         1 <0>         0.1208
     39 H10        -0.2300   -1.3889    7.1763 H         1 <0>         0.4157
     40 H11        -1.4005   -1.2999    5.9744 H         1 <0>         0.4290
     41 H12         4.4174    2.7757    1.5462 H         1 <0>         0.1366
     42 H13         4.8355    3.0782   -0.8564 H         1 <0>         0.1375
     43 H14         3.4534   -0.8980   -1.6129 H         1 <0>         0.1369
     44 H15         3.0405   -1.2206    0.7879 H         1 <0>         0.1346
     45 H16         4.3284    3.3370   -2.5167 H         1 <0>         0.0767
     46 H17         6.6090    2.5576   -1.9336 H         1 <0>         0.0644
     47 H18         6.8251    1.9490   -3.5923 H         1 <0>         0.0691
     48 H19         6.6532    3.6965   -3.3008 H         1 <0>         0.0746
     49 H20         3.3531    2.6995   -4.7056 H         1 <0>         0.0659
     50 H21         4.7518    3.7794   -4.9196 H         1 <0>         0.0789
     51 H22         4.9238    2.0319   -5.2110 H         1 <0>         0.0684
@<TRIPOS>BOND
     1    1    2 1
     2    1   32 1
     3    1   33 1
     4    1   34 1
     5    2    7 ar
     6    2    3 ar
     7    3    4 ar
     8    3   35 1
     9    4    5 ar
    10    4   36 1
    11    5    6 ar
    12    5   37 1
    13    6    7 ar
    14    6   38 1
    15    7    8 1
    16    8    9 1
    17    8   18 1
    18    8   10 1
    19   10   11 1
    20   10   15 1
    21   10   12 1
    22   12   13 2
    23   12   22 1
    24   13   14 1
    25   14   15 2
    26   15   16 1
    27   16   17 1
    28   17   18 2
    29   17   21 1
    30   18   19 1
    31   19   20 3
    32   21   39 1
    33   21   40 1
    34   22   27 ar
    35   22   23 ar
    36   23   24 ar
    37   23   41 1
    38   24   25 ar
    39   24   42 1
    40   25   26 ar
    41   25   28 1
    42   26   27 ar
    43   26   43 1
    44   27   44 1
    45   28   29 1
    46   29   30 1
    47   29   31 1
    48   29   45 1
    49   30   46 1
    50   30   47 1
    51   30   48 1
    52   31   49 1
    53   31   50 1
    54   31   51 1
@<TRIPOS>MOLECULE
ZINC12469026
   43    46     0     0     0
SMALL
USER_CHARGES

@<TRIPOS>ATOM
      1 C1         -0.0173    1.4248    0.0099 C.3       1 <0>         0.0261
      2 O1          0.0021   -0.0041    0.0020 O.3       1 <0>        -0.3158
      3 C2          0.6258   -0.6184    1.0415 C.ar      1 <0>         0.1312
      4 C3          1.2023    0.1385    2.0514 C.ar      1 <0>        -0.2001
      5 C4          1.8353   -0.4882    3.1070 C.ar      1 <0>        -0.0750
      6 C5          1.8947   -1.8689    3.1579 C.ar      1 <0>        -0.1410
      7 C6          1.3214   -2.6252    2.1527 C.ar      1 <0>        -0.0601
      8 C7          0.6822   -2.0032    1.0975 C.ar      1 <0>        -0.1350
      9 C8          1.3885   -4.1296    2.2111 C.3       1 <0>         0.2038
     10 H1          1.2210   -4.5422    1.2162 H         1 <0>         0.0901
     11 C9          0.3172   -4.6555    3.1733 C.3       1 <0>        -0.1486
     12 C10         0.3469   -6.1888    3.1931 C.3       1 <0>         0.2119
     13 H2         -0.0325   -6.5737    2.2465 H         1 <0>         0.1083
     14 N1          1.7277   -6.6316    3.3841 N.pl3     1 <0>        -0.4058
     15 C11         2.8158   -5.8575    3.1570 C.2       1 <0>         0.5552
     16 N2          3.8812   -6.5625    3.4300 N.2       1 <0>        -0.5977
     17 C12         3.5150   -7.7887    3.8314 C.2       1 <0>         0.4912
     18 N3          2.2032   -7.8704    3.8163 N.2       1 <0>        -0.3653
     19 N4          4.3864   -8.8129    4.2050 N.pl3     1 <0>        -0.8250
     20 N5          2.7152   -4.5477    2.7039 N.pl3     1 <0>        -0.7023
     21 C13        -0.5101   -6.6959    4.3242 C.ar      1 <0>        -0.1202
     22 C14        -0.2188   -6.3360    5.6291 C.ar      1 <0>         0.1393
     23 C15        -1.0068   -6.8026    6.6674 C.ar      1 <0>        -0.1508
     24 C16        -2.0837   -7.6273    6.4010 C.ar      1 <0>        -0.0679
     25 C17        -2.3745   -7.9865    5.0986 C.ar      1 <0>        -0.1202
     26 C18        -1.5913   -7.5164    4.0590 C.ar      1 <0>         0.0098
     27 Cl1        -1.9617   -7.9624    2.4227 Cl        1 <0>        -0.0463
     28 F1          0.8341   -5.5304    5.8890 F         1 <0>        -0.1251
     29 H3          1.0053    1.8021    0.0021 H         1 <0>         0.0571
     30 H4         -0.5445    1.7859   -0.8732 H         1 <0>         0.1027
     31 H5         -0.5275    1.7763    0.9067 H         1 <0>         0.0570
     32 H6          1.1565    1.2168    2.0119 H         1 <0>         0.1307
     33 H7          2.2845    0.1005    3.8932 H         1 <0>         0.1292
     34 H8          2.3900   -2.3570    3.9842 H         1 <0>         0.1275
     35 H9          0.2306   -2.5946    0.3148 H         1 <0>         0.1355
     36 H10         0.5130   -4.2761    4.1762 H         1 <0>         0.0960
     37 H11        -0.6646   -4.3161    2.8433 H         1 <0>         0.1113
     38 H12         5.3449   -8.6650    4.1867 H         1 <0>         0.4130
     39 H13         4.0335   -9.6726    4.4829 H         1 <0>         0.4127
     40 H14         3.4724   -3.9415    2.7136 H         1 <0>         0.4269
     41 H15        -0.7799   -6.5226    7.6855 H         1 <0>         0.1441
     42 H16        -2.6980   -7.9914    7.2113 H         1 <0>         0.1465
     43 H17        -3.2159   -8.6311    4.8916 H         1 <0>         0.1451
@<TRIPOS>BOND
     1    1    2 1
     2    1   29 1
     3    1   30 1
     4    1   31 1
     5    2    3 1
     6    3    8 ar
     7    3    4 ar
     8    4    5 ar
     9    4   32 1
    10    5    6 ar
    11    5   33 1
    12    6    7 ar
    13    6   34 1
    14    7    8 ar
    15    7    9 1
    16    8   35 1
    17    9   10 1
    18    9   20 1
    19    9   11 1
    20   11   12 1
    21   11   36 1
    22   11   37 1
    23   12   13 1
    24   12   14 1
    25   12   21 1
    26   14   18 1
    27   14   15 1
    28   15   16 2
    29   15   20 1
    30   16   17 1
    31   17   18 2
    32   17   19 1
    33   19   38 1
    34   19   39 1
    35   20   40 1
    36   21   26 ar
    37   21   22 ar
    38   22   23 ar
    39   22   28 1
    40   23   24 ar
    41   23   41 1
    42   24   25 ar
    43   24   42 1
    44   25   26 ar
    45   25   43 1
    46   26   27 1
@<TRIPOS>MOLECULE
ZINC04541092
   37    39     0     0     0
SMALL
USER_CHARGES
4-amino-2-(3,5-dichloro-4-prop-2-ynoxy-phenyl)-9-methyl-5-oxa-7,8-diazabicyclo[4.3.0]nona-3,8,10-triene-3-carbonitrile
@<TRIPOS>ATOM
      1 C1         -0.1319    2.4139    7.5589 C.3       1 <0>        -0.0822
      2 C2         -0.2915    0.9340    7.7946 C.2       1 <0>         0.1235
      3 C3          0.4344   -0.0733    7.1735 C.2       1 <0>        -0.2702
      4 C4         -0.0062   -1.2734    7.6579 C.2       1 <0>         0.2792
      5 N1         -0.9763   -1.0191    8.5507 N.pl3     1 <0>        -0.4471
      6 H1         -1.4906   -1.7004    9.0716 H         1 <0>         0.4547
      7 N2         -1.1403    0.3731    8.6229 N.2       1 <0>        -0.2601
      8 O1          0.5079   -2.4606    7.2509 O.3       1 <0>        -0.2304
      9 C5          1.6610   -2.4351    6.5522 C.2       1 <0>         0.4452
     10 C6          2.1897   -1.3139    6.0137 C.2       1 <0>        -0.2640
     11 C7          1.5274    0.0352    6.1417 C.3       1 <0>         0.1260
     12 H2          2.2604    0.7769    6.4591 H         1 <0>         0.1054
     13 C8          0.9366    0.4395    4.8157 C.ar      1 <0>        -0.0509
     14 C9          1.3444    1.6121    4.2074 C.ar      1 <0>        -0.0863
     15 C10         0.8041    1.9856    2.9907 C.ar      1 <0>        -0.0399
     16 C11        -0.1486    1.1820    2.3800 C.ar      1 <0>         0.1098
     17 C12        -0.5603    0.0083    2.9958 C.ar      1 <0>        -0.0411
     18 C13        -0.0126   -0.3628    4.2099 C.ar      1 <0>        -0.0748
     19 Cl1        -1.7569   -0.9963    2.2391 Cl        1 <0>        -0.0425
     20 O2         -0.6816    1.5467    1.1837 O.3       1 <0>        -0.3108
     21 C14        -0.0127    1.0858    0.0080 C.3       1 <0>         0.1794
     22 C15        -0.7246    1.5734   -1.1845 C.1       1 <0>        -0.1987
     23 C16        -1.2925    1.9623   -2.1356 C.1       1 <0>        -0.1550
     24 Cl2         1.3164    3.4585    2.2279 Cl        1 <0>        -0.0395
     25 C17         3.4246   -1.4103    5.2951 C.1       1 <0>         0.2675
     26 N3          4.4042   -1.4868    4.7250 N.1       1 <0>        -0.4325
     27 N4          2.3370   -3.6170    6.3772 N.pl3     1 <0>        -0.8286
     28 H3         -0.7953    2.7270    6.7526 H         1 <0>         0.0858
     29 H4         -0.3857    2.9563    8.4696 H         1 <0>         0.0810
     30 H5          0.9007    2.6287    7.2838 H         1 <0>         0.0837
     31 H6          2.0860    2.2369    4.6828 H         1 <0>         0.1482
     32 H7         -0.3299   -1.2779    4.6877 H         1 <0>         0.1365
     33 H8          0.0021   -0.0041    0.0020 H         1 <0>         0.0807
     34 H9          1.0099    1.4631    0.0003 H         1 <0>         0.0816
     35 H10        -1.8003    2.3102   -2.9863 H         1 <0>         0.2247
     36 H11         1.9823   -4.4385    6.7516 H         1 <0>         0.4127
     37 H12         3.1693   -3.6305    5.8792 H         1 <0>         0.4289
@<TRIPOS>BOND
     1    1    2 1
     2    1   28 1
     3    1   29 1
     4    1   30 1
     5    2    7 2
     6    2    3 1
     7    3   11 1
     8    3    4 2
     9    4    5 1
    10    4    8 1
    11    5    6 1
    12    5    7 1
    13    8    9 1
    14    9   10 2
    15    9   27 1
    16   10   11 1
    17   10   25 1
    18   11   12 1
    19   11   13 1
    20   13   18 ar
    21   13   14 ar
    22   14   15 ar
    23   14   31 1
    24   15   16 ar
    25   15   24 1
    26   16   17 ar
    27   16   20 1
    28   17   18 ar
    29   17   19 1
    30   18   32 1
    31   20   21 1
    32   21   22 1
    33   21   33 1
    34   21   34 1
    35   22   23 3
    36   23   35 1
    37   25   26 3
    38   27   36 1
    39   27   37 1
@<TRIPOS>MOLECULE
ZINC20723449
   54    57     0     0     0
SMALL
USER_CHARGES
(4R)-3-tert-butyl-4-(3,4-dihydroxyphenyl)-7,7-dimethyl-4,6,8,9-tetrahydroisoxazolo[5,4-b]quinolin-5-one
@<TRIPOS>ATOM
      1 C1          7.7838    7.1788    0.5513 C.3       1 <0>        -0.1544
      2 C2          6.8105    7.3363    1.7213 C.3       1 <0>        -0.0506
      3 C3          7.0721    6.2443    2.7601 C.3       1 <0>        -0.0919
      4 C4          6.8573    4.8848    2.1342 C.2       1 <0>         0.2455
      5 C5          5.9445    4.7142    1.1545 C.2       1 <0>        -0.2846
      6 C6          5.6860    3.3651    0.5147 C.3       1 <0>         0.1095
      7 H1          5.6611    3.4661   -0.5804 H         1 <0>         0.0941
      8 C7          6.7815    2.4194    0.8899 C.2       1 <0>        -0.2321
      9 C8          7.1510    1.1690    0.4025 C.2       1 <0>         0.0867
     10 N1          8.1904    0.7963    1.1072 N.2       1 <0>        -0.3654
     11 O1          8.4974    1.6291    1.9384 O.3       1 <0>         0.0939
     12 C9          7.6862    2.6800    1.8871 C.2       1 <0>         0.2039
     13 N2          7.6344    3.8547    2.6088 N.pl3     1 <0>        -0.6159
     14 C10         6.4891    0.3996   -0.7115 C.3       1 <0>         0.0138
     15 C11         5.1051   -0.0678   -0.2562 C.3       1 <0>        -0.1529
     16 C12         6.3445    1.3018   -1.9387 C.3       1 <0>        -0.1463
     17 C13         7.3455   -0.8164   -1.0705 C.3       1 <0>        -0.1414
     18 C14         4.3661    2.8233    0.9999 C.ar      1 <0>        -0.0660
     19 C15         4.2219    2.4382    2.3199 C.ar      1 <0>        -0.1052
     20 C16         3.0114    1.9463    2.7713 C.ar      1 <0>        -0.1309
     21 C17         1.9428    1.8268    1.8973 C.ar      1 <0>         0.1235
     22 C18         2.0881    2.2140    0.5686 C.ar      1 <0>         0.0642
     23 C19         3.3024    2.7120    0.1241 C.ar      1 <0>        -0.1480
     24 O2          1.0408    2.1035   -0.2918 O.3       1 <0>        -0.5202
     25 O3          0.7531    1.3374    2.3383 O.3       1 <0>        -0.5100
     26 C20         5.1850    5.7977    0.6768 C.2       1 <0>         0.4087
     27 O4          4.3595    5.6057   -0.1941 O.2       1 <0>        -0.4696
     28 C21         5.3705    7.1873    1.2189 C.3       1 <0>        -0.1620
     29 C22         6.9930    8.7131    2.3632 C.3       1 <0>        -0.1440
     30 H2          8.8160    7.2864    0.9160 H         1 <0>         0.0616
     31 H3          7.5788    7.9529   -0.2029 H         1 <0>         0.0644
     32 H4          7.6563    6.1839    0.0997 H         1 <0>         0.0600
     33 H5          8.1089    6.3209    3.1195 H         1 <0>         0.0949
     34 H6          6.3805    6.3699    3.6063 H         1 <0>         0.1040
     35 H7          8.1980    3.9774    3.5454 H         1 <0>         0.4517
     36 H8          4.6219   -0.6294   -1.0693 H         1 <0>         0.0638
     37 H9          4.4894    0.8064    0.0019 H         1 <0>         0.0777
     38 H10         5.2091   -0.7164    0.6261 H         1 <0>         0.0547
     39 H11         5.8614    0.7401   -2.7518 H         1 <0>         0.0685
     40 H12         7.3395    1.6379   -2.2660 H         1 <0>         0.0579
     41 H13         5.7287    2.1760   -1.6806 H         1 <0>         0.0652
     42 H14         6.8623   -1.3780   -1.8836 H         1 <0>         0.0637
     43 H15         7.4494   -1.4651   -0.1882 H         1 <0>         0.0610
     44 H16         8.3405   -0.4804   -1.3978 H         1 <0>         0.0580
     45 H17         5.0554    2.5263    3.0010 H         1 <0>         0.1153
     46 H18         2.8999    1.6507    3.8041 H         1 <0>         0.1299
     47 H19         3.4176    3.0136   -0.9066 H         1 <0>         0.1287
     48 H20         1.1570    2.4099   -1.3419 H         1 <0>         0.4391
     49 H21        -0.0944    1.2431    1.6434 H         1 <0>         0.4367
     50 H22         4.6722    7.3578    2.0515 H         1 <0>         0.1020
     51 H23         5.1811    7.9245    0.4247 H         1 <0>         0.0988
     52 H24         6.2915    8.8218    3.2035 H         1 <0>         0.0620
     53 H25         6.7940    9.4953    1.6159 H         1 <0>         0.0655
     54 H26         8.0247    8.8120    2.7317 H         1 <0>         0.0626
@<TRIPOS>BOND
     1    1    2 1
     2    1   30 1
     3    1   31 1
     4    1   32 1
     5    2   28 1
     6    2    3 1
     7    2   29 1
     8    3    4 1
     9    3   33 1
    10    3   34 1
    11    4   13 1
    12    4    5 2
    13    5    6 1
    14    5   26 1
    15    6    7 1
    16    6    8 1
    17    6   18 1
    18    8   12 2
    19    8    9 1
    20    9   10 2
    21    9   14 1
    22   10   11 1
    23   11   12 1
    24   12   13 1
    25   13   35 1
    26   14   15 1
    27   14   16 1
    28   14   17 1
    29   15   36 1
    30   15   37 1
    31   15   38 1
    32   16   39 1
    33   16   40 1
    34   16   41 1
    35   17   42 1
    36   17   43 1
    37   17   44 1
    38   18   23 ar
    39   18   19 ar
    40   19   20 ar
    41   19   45 1
    42   20   21 ar
    43   20   46 1
    44   21   22 ar
    45   21   25 1
    46   22   23 ar
    47   22   24 1
    48   23   47 1
    49   24   48 1
    50   25   49 1
    51   26   27 2
    52   26   28 1
    53   28   50 1
    54   28   51 1
    55   29   52 1
    56   29   53 1
    57   29   54 1
@<TRIPOS>MOLECULE
ZINC37359061
   44    48     0     0     0
SMALL
USER_CHARGES

@<TRIPOS>ATOM
      1 C1         -0.3408    1.6210   -0.5430 C.ar      1 <0>        -0.0683
      2 C2          0.7902    2.3990   -0.6930 C.ar      1 <0>        -0.1290
      3 C3          2.0343    1.8003   -0.8020 C.ar      1 <0>         0.1051
      4 C4          2.1468    0.4205   -0.7612 C.ar      1 <0>        -0.1270
      5 C5          1.0183   -0.3611   -0.6118 C.ar      1 <0>        -0.1157
      6 C6         -0.2301    0.2373   -0.5014 C.ar      1 <0>         0.1346
      7 N1         -1.3760   -0.5537   -0.3489 N.pl3     1 <0>        -0.3088
      8 C7         -1.5632   -1.7622   -0.9146 C.2       1 <0>         0.4575
      9 C8         -2.8160   -2.2176   -0.5231 C.ar      1 <0>        -0.3855
     10 C9         -3.5920   -3.3750   -0.7598 C.ar      1 <0>         0.3772
     11 N2         -4.7892   -3.4561   -0.1919 N.ar      1 <0>        -0.5790
     12 C10        -5.2709   -2.4896    0.5835 C.ar      1 <0>         0.6219
     13 N3         -4.6161   -1.3795    0.8562 N.ar      1 <0>        -0.5737
     14 C11        -3.3883   -1.1706    0.3426 C.ar      1 <0>         0.3715
     15 N4         -2.4943   -0.2091    0.4187 N.2       1 <0>        -0.3062
     16 N5         -6.5288   -2.6586    1.1337 N.pl3     1 <0>        -0.6608
     17 C12        -7.0978   -1.6183    1.9941 C.3       1 <0>         0.0978
     18 C13        -7.8005   -2.0684    3.2764 C.3       1 <0>        -0.1947
     19 C14        -8.6224   -1.5431    2.0977 C.3       1 <0>        -0.1910
     20 C15        -3.0837   -4.4669   -1.6179 C.ar      1 <0>        -0.1066
     21 C16        -1.8870   -5.1106   -1.2977 C.ar      1 <0>        -0.0526
     22 C17        -1.4175   -6.1276   -2.1006 C.ar      1 <0>        -0.1616
     23 C18        -2.1305   -6.5129   -3.2262 C.ar      1 <0>         0.1507
     24 C19        -3.3183   -5.8789   -3.5510 C.ar      1 <0>        -0.1902
     25 C20        -3.8026   -4.8623   -2.7498 C.ar      1 <0>         0.1771
     26 F1         -4.9645   -4.2482   -3.0629 F         1 <0>        -0.1125
     27 F2         -1.6643   -7.5103   -4.0092 F         1 <0>        -0.1223
     28 N6         -0.6716   -2.4273   -1.7355 N.pl3     1 <0>        -0.8294
     29 F3          3.1395    2.5632   -0.9486 F         1 <0>        -0.1302
     30 H1         -1.3103    2.0885   -0.4535 H         1 <0>         0.1512
     31 H2          0.7045    3.4751   -0.7257 H         1 <0>         0.1506
     32 H3          3.1178   -0.0444   -0.8468 H         1 <0>         0.1507
     33 H4          1.1064   -1.4371   -0.5808 H         1 <0>         0.1419
     34 H5         -7.0341   -3.4660    0.9498 H         1 <0>         0.4154
     35 H6         -6.5443   -0.6799    2.0259 H         1 <0>         0.1467
     36 H7         -7.8395   -3.1385    3.4800 H         1 <0>         0.0962
     37 H8         -7.7092   -1.4261    4.1523 H         1 <0>         0.1035
     38 H9         -9.0719   -0.5552    2.1981 H         1 <0>         0.1050
     39 H10        -9.2021   -2.2676    1.5258 H         1 <0>         0.0970
     40 H11        -1.3298   -4.8118   -0.4221 H         1 <0>         0.1506
     41 H12        -0.4918   -6.6256   -1.8529 H         1 <0>         0.1547
     42 H13        -3.8693   -6.1827   -4.4288 H         1 <0>         0.1587
     43 H14         0.1432   -1.9871   -2.0240 H         1 <0>         0.4104
     44 H15        -0.8608   -3.3342   -2.0230 H         1 <0>         0.4196
@<TRIPOS>BOND
     1    1    6 ar
     2    1    2 ar
     3    1   30 1
     4    2    3 ar
     5    2   31 1
     6    3    4 ar
     7    3   29 1
     8    4    5 ar
     9    4   32 1
    10    5    6 ar
    11    5   33 1
    12    6    7 1
    13    7   15 1
    14    7    8 1
    15    8    9 2
    16    8   28 1
    17    9   14 ar
    18    9   10 ar
    19   10   11 ar
    20   10   20 1
    21   11   12 ar
    22   12   13 ar
    23   12   16 1
    24   13   14 ar
    25   14   15 2
    26   16   17 1
    27   16   34 1
    28   17   19 1
    29   17   18 1
    30   17   35 1
    31   18   19 1
    32   18   36 1
    33   18   37 1
    34   19   38 1
    35   19   39 1
    36   20   25 ar
    37   20   21 ar
    38   21   22 ar
    39   21   40 1
    40   22   23 ar
    41   22   41 1
    42   23   24 ar
    43   23   27 1
    44   24   25 ar
    45   24   42 1
    46   25   26 1
    47   28   43 1
    48   28   44 1
@<TRIPOS>MOLECULE
ZINC40701470
   42    45     0     0     0
SMALL
USER_CHARGES

@<TRIPOS>ATOM
      1 C1          0.6035   -2.6821   -2.6052 C.3       1 <0>        -0.1174
      2 C2          0.5506   -2.0006   -1.2621 C.ar      1 <0>        -0.0121
      3 C3          0.5832   -0.6155   -1.1669 C.ar      1 <0>        -0.2152
      4 C4          0.5326   -0.0220    0.0784 C.ar      1 <0>         0.1384
      5 N1          0.4544   -0.7533    1.1739 N.ar      1 <0>        -0.4711
      6 C5          0.4210   -2.0760    1.1248 C.ar      1 <0>         0.3773
      7 C6          0.4626   -2.7404   -0.0968 C.ar      1 <0>        -0.2207
      8 N2          0.3383   -2.8078    2.3052 N.pl3     1 <0>        -0.6372
      9 C7          0.4068   -2.1575    3.5331 C.ar      1 <0>         0.3668
     10 C8          0.4341   -2.8888    4.7220 C.ar      1 <0>         0.0957
     11 C9          0.5037   -2.1859    5.9269 C.ar      1 <0>         0.1035
     12 N3          0.5410   -0.8552    5.8958 N.ar      1 <0>        -0.5020
     13 C10         0.5132   -0.2038    4.7511 C.ar      1 <0>         0.2806
     14 N4          0.4529   -0.8287    3.5924 N.ar      1 <0>        -0.4719
     15 S1          0.5409   -3.0465    7.4640 S.3       1 <0>         0.0616
     16 C11         0.4795   -1.7648    8.6716 C.ar      1 <0>        -0.1059
     17 C12        -0.6893   -1.5126    9.3585 C.ar      1 <0>        -0.0326
     18 C13        -0.7506   -0.5040   10.3146 C.ar      1 <0>        -0.1297
     19 C14         0.3404    0.2611   10.5977 C.ar      1 <0>        -0.0622
     20 C15         1.5493    0.0355    9.9199 C.ar      1 <0>        -0.1114
     21 C16         1.6289   -0.9915    8.9480 C.ar      1 <0>         0.1755
     22 N5          2.7783   -1.2121    8.3052 N.ar      1 <0>        -0.4611
     23 C17         3.8485   -0.4978    8.5572 C.ar      1 <0>         0.1411
     24 C18         3.8411    0.5236    9.5046 C.ar      1 <0>        -0.1784
     25 C19         2.6945    0.8090   10.1898 C.ar      1 <0>        -0.0511
     26 N6          0.3923   -4.2914    4.7069 N.pl3     1 <0>        -0.8636
     27 H1         -0.4093   -2.8140   -2.9858 H         1 <0>         0.0778
     28 H2          1.1763   -2.0692   -3.3012 H         1 <0>         0.0732
     29 H3          1.0818   -3.6558   -2.4999 H         1 <0>         0.0705
     30 H4          0.6478   -0.0088   -2.0581 H         1 <0>         0.1327
     31 H5          0.5577    1.0549    0.1570 H         1 <0>         0.1576
     32 H6          0.4310   -3.8193   -0.1344 H         1 <0>         0.1305
     33 H7          0.2329   -3.7715    2.2720 H         1 <0>         0.4210
     34 H8          0.5447    0.8757    4.7624 H         1 <0>         0.1918
     35 H9         -1.5681   -2.1052    9.1513 H         1 <0>         0.1388
     36 H10        -1.6770   -0.3246   10.8400 H         1 <0>         0.1356
     37 H11         0.2755    1.0406   11.3425 H         1 <0>         0.1349
     38 H12         4.7597   -0.7070    8.0165 H         1 <0>         0.1584
     39 H13         4.7385    1.0949    9.6907 H         1 <0>         0.1386
     40 H14         2.6705    1.5974   10.9275 H         1 <0>         0.1404
     41 H15         0.3438   -4.7661    3.8624 H         1 <0>         0.3957
     42 H16         0.4120   -4.7863    5.5410 H         1 <0>         0.4055
@<TRIPOS>BOND
     1    1    2 1
     2    1   27 1
     3    1   28 1
     4    1   29 1
     5    2    7 ar
     6    2    3 ar
     7    3    4 ar
     8    3   30 1
     9    4    5 ar
    10    4   31 1
    11    5    6 ar
    12    6    7 ar
    13    6    8 1
    14    7   32 1
    15    8    9 1
    16    8   33 1
    17    9   14 ar
    18    9   10 ar
    19   10   11 ar
    20   10   26 1
    21   11   12 ar
    22   11   15 1
    23   12   13 ar
    24   13   14 ar
    25   13   34 1
    26   15   16 1
    27   16   21 ar
    28   16   17 ar
    29   17   18 ar
    30   17   35 1
    31   18   19 ar
    32   18   36 1
    33   19   20 ar
    34   19   37 1
    35   20   25 ar
    36   20   21 ar
    37   21   22 ar
    38   22   23 ar
    39   23   24 ar
    40   23   38 1
    41   24   25 ar
    42   24   39 1
    43   25   40 1
    44   26   41 1
    45   26   42 1
@<TRIPOS>MOLECULE
ZINC25065499
   41    44     0     0     0
SMALL
USER_CHARGES

@<TRIPOS>ATOM
      1 C1         -0.0184    1.5028    0.0103 C.3       1 <0>        -0.1075
      2 C2          0.0021   -0.0041    0.0020 C.ar      1 <0>         0.2199
      3 C3          0.0059   -0.6956   -1.1939 C.ar      1 <0>        -0.3014
      4 C4          0.0250   -2.0915   -1.1565 C.ar      1 <0>         0.4551
      5 N1          0.0388   -2.7051    0.0224 N.ar      1 <0>        -0.5981
      6 C5          0.0345   -2.0050    1.1474 C.ar      1 <0>         0.3243
      7 N2          0.0221   -0.6795    1.1414 N.ar      1 <0>        -0.5377
      8 S1          0.0533   -2.8571    2.6896 S.3       1 <0>         0.1124
      9 C6          0.0748   -4.6097    2.2224 C.3       1 <0>        -0.0895
     10 C7          0.0922   -5.4609    3.4659 C.2       1 <0>         0.4261
     11 N3          0.1155   -6.8133    3.3485 N.am      1 <0>        -0.6289
     12 H1          0.1207   -7.2138    2.4651 H         1 <0>         0.4232
     13 C8          0.1320   -7.6091    4.4337 C.2       1 <0>         0.5563
     14 O1          0.1537   -8.8218    4.3115 O.2       1 <0>        -0.5040
     15 C9          0.1241   -7.0099    5.7338 C.2       1 <0>        -0.2411
     16 C10         0.1388   -7.6487    7.0443 C.2       1 <0>        -0.0157
     17 C11         0.1276   -6.8665    8.1506 C.2       1 <0>        -0.1804
     18 S2          0.0965   -5.2128    7.4863 S.3       1 <0>         0.1699
     19 C12         0.0992   -5.6059    5.7562 C.2       1 <0>         0.1075
     20 N4          0.0898   -4.8849    4.6381 N.2       1 <0>        -0.4764
     21 C13         0.1649   -9.1260    7.1640 C.ar      1 <0>        -0.0465
     22 C14        -0.7436   -9.9025    6.4460 C.ar      1 <0>        -0.0588
     23 C15        -0.7142  -11.2773    6.5612 C.ar      1 <0>        -0.1238
     24 C16         0.2143  -11.8853    7.3870 C.ar      1 <0>        -0.1119
     25 C17         1.1182  -11.1200    8.1019 C.ar      1 <0>        -0.1272
     26 C18         1.1018   -9.7446    7.9907 C.ar      1 <0>        -0.1020
     27 N5          0.0290   -2.8260   -2.3311 N.pl3     1 <0>        -0.8347
     28 H2          1.0042    1.8801    0.0026 H         1 <0>         0.0875
     29 H3         -0.5455    1.8639   -0.8728 H         1 <0>         0.0812
     30 H4         -0.5286    1.8543    0.9071 H         1 <0>         0.0852
     31 H5         -0.0060   -0.1685   -2.1365 H         1 <0>         0.1430
     32 H6         -0.8148   -4.8406    1.6365 H         1 <0>         0.1343
     33 H7          0.9649   -4.8164    1.6282 H         1 <0>         0.1340
     34 H8          0.1353   -7.1719    9.1865 H         1 <0>         0.2005
     35 H9         -1.4691   -9.4289    5.8013 H         1 <0>         0.1163
     36 H10        -1.4176  -11.8798    6.0057 H         1 <0>         0.1212
     37 H11         0.2334  -12.9616    7.4743 H         1 <0>         0.1211
     38 H12         1.8408  -11.6001    8.7451 H         1 <0>         0.1232
     39 H13         1.8106   -9.1484    8.5461 H         1 <0>         0.1221
     40 H14         0.0185   -2.3710   -3.1877 H         1 <0>         0.4139
     41 H15         0.0423   -3.7953   -2.2970 H         1 <0>         0.4074
@<TRIPOS>BOND
     1    1    2 1
     2    1   28 1
     3    1   29 1
     4    1   30 1
     5    2    7 ar
     6    2    3 ar
     7    3    4 ar
     8    3   31 1
     9    4    5 ar
    10    4   27 1
    11    5    6 ar
    12    6    7 ar
    13    6    8 1
    14    8    9 1
    15    9   10 1
    16    9   32 1
    17    9   33 1
    18   10   20 2
    19   10   11 1
    20   11   12 1
    21   11   13 am
    22   13   14 2
    23   13   15 1
    24   15   19 2
    25   15   16 1
    26   16   17 2
    27   16   21 1
    28   17   18 1
    29   17   34 1
    30   18   19 1
    31   19   20 1
    32   21   26 ar
    33   21   22 ar
    34   22   23 ar
    35   22   35 1
    36   23   24 ar
    37   23   36 1
    38   24   25 ar
    39   24   37 1
    40   25   26 ar
    41   25   38 1
    42   26   39 1
    43   27   40 1
    44   27   41 1
@<TRIPOS>MOLECULE
ZINC09086624
   33    35     0     0     0
SMALL
USER_CHARGES
3-chloro-N-(6-sulfamoylbenzothiazol-2-yl)-benzamide
@<TRIPOS>ATOM
      1 C1          6.7871   -3.6772   -0.0831 C.ar      1 <0>        -0.1084
      2 C2          6.0530   -2.5089   -0.0699 C.ar      1 <0>        -0.0472
      3 C3          4.6583   -2.5642   -0.0569 C.ar      1 <0>        -0.1244
      4 C4          4.0148   -3.8030   -0.0521 C.ar      1 <0>        -0.0788
      5 C5          4.7607   -4.9645   -0.0707 C.ar      1 <0>        -0.0417
      6 C6          6.1442   -4.9019   -0.0835 C.ar      1 <0>        -0.0757
      7 Cl1         3.9632   -6.5065   -0.0707 Cl        1 <0>        -0.0534
      8 C7          3.8663   -1.3164   -0.0422 C.2       1 <0>         0.5600
      9 O1          4.4293   -0.2392   -0.0414 O.2       1 <0>        -0.4498
     10 N1          2.5198   -1.3731   -0.0298 N.am      1 <0>        -0.6138
     11 C8          1.7780   -0.2044   -0.0160 C.2       1 <0>         0.3950
     12 N2          2.2000    1.0388   -0.0134 N.2       1 <0>        -0.5188
     13 C9          1.3549    2.0921    0.0004 C.ar      1 <0>         0.1660
     14 C10         1.6760    3.4694    0.0051 C.ar      1 <0>        -0.0867
     15 C11         0.6879    4.4187    0.0205 C.ar      1 <0>        -0.0133
     16 C12        -0.6546    4.0679    0.0315 C.ar      1 <0>        -0.6729
     17 C13        -1.0049    2.7303    0.0311 C.ar      1 <0>         0.0590
     18 C14        -0.0220    1.7724    0.0118 C.ar      1 <0>        -0.1853
     19 S1          0.0021   -0.0041    0.0020 S.3       1 <0>         0.0375
     20 S2         -1.9000    5.3142    0.0506 S.o2      1 <0>         2.7087
     21 O2         -3.0626    4.7180    0.6092 O.2       1 <0>        -0.9594
     22 O3         -1.3009    6.4786    0.6023 O.2       1 <0>        -0.9538
     23 N3         -2.2613    5.6695   -1.5260 N.pl3     1 <0>        -1.2470
     24 H1          7.8662   -3.6352   -0.0927 H         1 <0>         0.1469
     25 H2          6.5566   -1.5535   -0.0692 H         1 <0>         0.1479
     26 H3          2.9360   -3.8526   -0.0379 H         1 <0>         0.1366
     27 H4          6.7236   -5.8133   -0.0935 H         1 <0>         0.1442
     28 H5          2.0705   -2.2328   -0.0304 H         1 <0>         0.4314
     29 H6          2.7114    3.7764   -0.0031 H         1 <0>         0.1468
     30 H7          0.9602    5.4637    0.0246 H         1 <0>         0.1545
     31 H8         -2.0454    2.4410    0.0446 H         1 <0>         0.1544
     32 H9         -3.1534    5.9670   -1.7639 H         1 <0>         0.4232
     33 H10        -1.5809    5.5802   -2.2115 H         1 <0>         0.4183
@<TRIPOS>BOND
     1    1    6 ar
     2    1    2 ar
     3    1   24 1
     4    2    3 ar
     5    2   25 1
     6    3    4 ar
     7    3    8 1
     8    4    5 ar
     9    4   26 1
    10    5    6 ar
    11    5    7 1
    12    6   27 1
    13    8    9 2
    14    8   10 am
    15   10   11 1
    16   10   28 1
    17   11   19 1
    18   11   12 2
    19   12   13 1
    20   13   18 ar
    21   13   14 ar
    22   14   15 ar
    23   14   29 1
    24   15   16 ar
    25   15   30 1
    26   16   17 ar
    27   16   20 1
    28   17   18 ar
    29   17   31 1
    30   18   19 1
    31   20   21 2
    32   20   22 2
    33   20   23 1
    34   23   32 1
    35   23   33 1
@<TRIPOS>MOLECULE
ZINC09015231
   35    37     0     0     0
SMALL
USER_CHARGES

@<TRIPOS>ATOM
      1 C1         -0.0184    1.5028    0.0103 C.3       1 <0>        -0.0828
      2 C2          0.0021   -0.0041    0.0020 C.2       1 <0>         0.1270
      3 C3          0.0080   -0.8130   -1.1263 C.2       1 <0>        -0.2655
      4 C4          0.0282   -2.1160   -0.7132 C.2       1 <0>         0.2767
      5 N1          0.0334   -2.1161    0.6295 N.pl3     1 <0>        -0.4447
      6 H1          0.0460   -2.9000    1.2006 H         1 <0>         0.4476
      7 N2          0.0231   -0.7800    1.0597 N.2       1 <0>        -0.2610
      8 O1          0.0417   -3.1589   -1.5801 O.3       1 <0>        -0.2299
      9 C5          0.3111   -2.8918   -2.8741 C.2       1 <0>         0.4466
     10 C6          0.3091   -1.6476   -3.4017 C.2       1 <0>        -0.2666
     11 C7         -0.0050   -0.4214   -2.5814 C.3       1 <0>         0.1257
     12 H2          0.7484    0.3451   -2.7627 H         1 <0>         0.1094
     13 C8         -1.3670    0.1050   -2.9541 C.ar      1 <0>        -0.0668
     14 C9         -2.4814   -0.7003   -2.8143 C.ar      1 <0>        -0.0749
     15 C10        -3.7320   -0.2182   -3.1567 C.ar      1 <0>        -0.0279
     16 C11        -3.8703    1.0712   -3.6398 C.ar      1 <0>        -0.0922
     17 C12        -2.7584    1.8798   -3.7812 C.ar      1 <0>        -0.0429
     18 C13        -1.5033    1.3994   -3.4321 C.ar      1 <0>         0.1167
     19 O2         -0.4089    2.1947   -3.5650 O.3       1 <0>        -0.3203
     20 C14         0.2759    2.1519   -4.8185 C.3       1 <0>         0.0322
     21 Cl1        -2.9318    3.4971   -4.3878 Cl        1 <0>        -0.0408
     22 Cl2        -5.1299   -1.2324   -2.9805 Cl        1 <0>        -0.0528
     23 C15         0.6161   -1.4874   -4.7912 C.1       1 <0>         0.2675
     24 N3          0.8596   -1.3603   -5.8935 N.1       1 <0>        -0.4328
     25 N4          0.6051   -3.9452   -3.7039 N.pl3     1 <0>        -0.8283
     26 H3          1.0042    1.8801    0.0026 H         1 <0>         0.0867
     27 H4         -0.5455    1.8639   -0.8728 H         1 <0>         0.0871
     28 H5         -0.5286    1.8543    0.9071 H         1 <0>         0.0793
     29 H6         -2.3757   -1.7070   -2.4378 H         1 <0>         0.1361
     30 H7         -4.8475    1.4456   -3.9069 H         1 <0>         0.1492
     31 H8          0.6267    1.1371   -5.0064 H         1 <0>         0.0470
     32 H9         -0.4044    2.4544   -5.6147 H         1 <0>         0.0512
     33 H10         1.1277    2.8315   -4.7907 H         1 <0>         0.1025
     34 H11         0.6147   -4.8499   -3.3543 H         1 <0>         0.4130
     35 H12         0.8032   -3.7847   -4.6398 H         1 <0>         0.4286
@<TRIPOS>BOND
     1    1    2 1
     2    1   26 1
     3    1   27 1
     4    1   28 1
     5    2    7 2
     6    2    3 1
     7    3   11 1
     8    3    4 2
     9    4    5 1
    10    4    8 1
    11    5    6 1
    12    5    7 1
    13    8    9 1
    14    9   10 2
    15    9   25 1
    16   10   11 1
    17   10   23 1
    18   11   12 1
    19   11   13 1
    20   13   18 ar
    21   13   14 ar
    22   14   15 ar
    23   14   29 1
    24   15   16 ar
    25   15   22 1
    26   16   17 ar
    27   16   30 1
    28   17   18 ar
    29   17   21 1
    30   18   19 1
    31   19   20 1
    32   20   31 1
    33   20   32 1
    34   20   33 1
    35   23   24 3
    36   25   34 1
    37   25   35 1
@<TRIPOS>MOLECULE
ZINC00940651
   42    45     0     0     0
SMALL
USER_CHARGES

@<TRIPOS>ATOM
      1 C1          0.6376    1.2371    0.1514 C.3       1 <0>        -0.0987
      2 C2          0.3869   -0.2460    0.0575 C.2       1 <0>         0.2978
      3 C3         -0.8836   -0.6895   -0.1806 C.2       1 <0>        -0.3914
      4 C4         -1.0890   -2.1918   -0.2672 C.3       1 <0>         0.2857
      5 H1         -1.8185   -2.4792    0.4900 H         1 <0>         0.0779
      6 N1          0.1095   -3.0184   -0.0846 N.pl3     1 <0>        -0.4346
      7 C5          1.3154   -2.3999    0.1480 C.2       1 <0>         0.5966
      8 N2          1.4054   -1.0797    0.2027 N.2       1 <0>        -0.5850
      9 N3          2.2419   -3.3622    0.2782 N.2       1 <0>        -0.5015
     10 C6          1.6900   -4.5515    0.1413 C.2       1 <0>         0.4494
     11 N4          0.3489   -4.3950   -0.0889 N.pl3     1 <0>        -0.4695
     12 C7          2.4014   -5.8416    0.2223 C.ar      1 <0>        -0.0572
     13 C8          1.7029   -7.0400    0.0530 C.ar      1 <0>        -0.0702
     14 C9          2.3736   -8.2420    0.1299 C.ar      1 <0>        -0.1115
     15 C10         3.7370   -8.2635    0.3745 C.ar      1 <0>        -0.0022
     16 C11         4.4353   -7.0790    0.5438 C.ar      1 <0>        -0.1114
     17 C12         3.7777   -5.8700    0.4631 C.ar      1 <0>        -0.0323
     18 Cl1         4.5741   -9.7813    0.4699 Cl        1 <0>        -0.0484
     19 C13        -1.6716   -2.5090   -1.6204 C.ar      1 <0>        -0.1363
     20 C14        -0.8877   -2.3964   -2.7535 C.ar      1 <0>        -0.0575
     21 C15        -1.4208   -2.6873   -3.9949 C.ar      1 <0>        -0.1481
     22 C16        -2.7405   -3.0918   -4.1035 C.ar      1 <0>         0.1115
     23 C17        -3.5247   -3.2042   -2.9679 C.ar      1 <0>        -0.1474
     24 C18        -2.9879   -2.9177   -1.7270 C.ar      1 <0>        -0.0833
     25 F1         -3.2628   -3.3761   -5.3166 F         1 <0>        -0.1340
     26 C19        -1.9560    0.2074   -0.3382 C.2       1 <0>         0.5972
     27 O1         -1.7459    1.4073   -0.3786 O.2       1 <0>        -0.5550
     28 N5         -3.2156   -0.2601   -0.4445 N.am      1 <0>        -0.8671
     29 H2          1.6965    1.4155    0.3385 H         1 <0>         0.0682
     30 H3          0.3485    1.7144   -0.7849 H         1 <0>         0.0956
     31 H4          0.0489    1.6540    0.9686 H         1 <0>         0.0896
     32 H5         -0.3040   -5.0989   -0.2273 H         1 <0>         0.4519
     33 H6          0.6399   -7.0246   -0.1374 H         1 <0>         0.1347
     34 H7          1.8349   -9.1689   -0.0004 H         1 <0>         0.1474
     35 H8          5.4980   -7.1025    0.7349 H         1 <0>         0.1505
     36 H9          4.3241   -4.9471    0.5901 H         1 <0>         0.1585
     37 H10         0.1416   -2.0805   -2.6686 H         1 <0>         0.1253
     38 H11        -0.8082   -2.5990   -4.8800 H         1 <0>         0.1398
     39 H12        -4.5543   -3.5193   -3.0514 H         1 <0>         0.1421
     40 H13        -3.5981   -3.0096   -0.8407 H         1 <0>         0.1351
     41 H14        -3.3920   -1.2077   -0.3356 H         1 <0>         0.3884
     42 H15        -3.9457    0.3509   -0.6300 H         1 <0>         0.3993
@<TRIPOS>BOND
     1    1    2 1
     2    1   29 1
     3    1   30 1
     4    1   31 1
     5    2    8 1
     6    2    3 2
     7    3    4 1
     8    3   26 1
     9    4    5 1
    10    4    6 1
    11    4   19 1
    12    6   11 1
    13    6    7 1
    14    7    8 2
    15    7    9 1
    16    9   10 2
    17   10   11 1
    18   10   12 1
    19   11   32 1
    20   12   17 ar
    21   12   13 ar
    22   13   14 ar
    23   13   33 1
    24   14   15 ar
    25   14   34 1
    26   15   16 ar
    27   15   18 1
    28   16   17 ar
    29   16   35 1
    30   17   36 1
    31   19   24 ar
    32   19   20 ar
    33   20   21 ar
    34   20   37 1
    35   21   22 ar
    36   21   38 1
    37   22   23 ar
    38   22   25 1
    39   23   24 ar
    40   23   39 1
    41   24   40 1
    42   26   27 2
    43   26   28 am
    44   28   41 1
    45   28   42 1
@<TRIPOS>MOLECULE
ZINC05156749
   42    45     0     0     0
SMALL
USER_CHARGES

@<TRIPOS>ATOM
      1 C1         -0.0934    1.3780   -2.3760 C.3       1 <0>         0.0267
      2 O1         -0.2281   -0.0032   -2.7168 O.3       1 <0>        -0.3120
      3 C2          0.7100   -0.8545   -2.2245 C.ar      1 <0>         0.1335
      4 C3          1.7358   -0.3695   -1.4246 C.ar      1 <0>        -0.1967
      5 C4          2.6916   -1.2318   -0.9215 C.ar      1 <0>        -0.0797
      6 C5          2.6316   -2.5803   -1.2121 C.ar      1 <0>        -0.1240
      7 C6          1.6053   -3.0749   -2.0141 C.ar      1 <0>         0.0158
      8 C7          0.6392   -2.2066   -2.5161 C.ar      1 <0>        -0.1216
      9 C8          1.5387   -4.5241   -2.3278 C.2       1 <0>         0.1629
     10 C9          1.2269   -5.0831   -3.5708 C.2       1 <0>        -0.2470
     11 C10         1.2702   -6.4415   -3.4459 C.2       1 <0>         0.2769
     12 N1          1.5993   -6.7260   -2.1687 N.pl3     1 <0>        -0.4431
     13 H1          1.7042   -7.6132   -1.7909 H         1 <0>         0.4497
     14 N2          1.7687   -5.5124   -1.4844 N.2       1 <0>        -0.2429
     15 O2          1.0108   -7.2805   -4.4798 O.3       1 <0>        -0.2282
     16 C11         0.4373   -6.7555   -5.5815 C.2       1 <0>         0.4396
     17 C12         0.3468   -5.4287   -5.8226 C.2       1 <0>        -0.2549
     18 C13         0.8912   -4.3949   -4.8685 C.3       1 <0>         0.1179
     19 H2          0.1403   -3.6246   -4.6929 H         1 <0>         0.1027
     20 C14         2.1340   -3.7716   -5.4499 C.ar      1 <0>        -0.1061
     21 C15         3.2609   -4.5436   -5.6608 C.ar      1 <0>        -0.0733
     22 C16         4.4009   -3.9722   -6.1940 C.ar      1 <0>        -0.1307
     23 C17         4.4154   -2.6279   -6.5172 C.ar      1 <0>        -0.0906
     24 C18         3.2899   -1.8542   -6.3077 C.ar      1 <0>        -0.1540
     25 C19         2.1455   -2.4268   -5.7784 C.ar      1 <0>         0.1115
     26 F1          1.0429   -1.6724   -5.5775 F         1 <0>        -0.1315
     27 C20        -0.2894   -4.9882   -7.0275 C.1       1 <0>         0.2682
     28 N3         -0.7941   -4.6388   -7.9834 N.1       1 <0>        -0.4324
     29 N4         -0.0846   -7.6188   -6.5125 N.pl3     1 <0>        -0.8296
     30 H3         -0.1354    1.4907   -1.2927 H         1 <0>         0.0560
     31 H4          0.8625    1.7514   -2.7434 H         1 <0>         0.0561
     32 H5         -0.9046    1.9456   -2.8321 H         1 <0>         0.1011
     33 H6          1.7873    0.6846   -1.1951 H         1 <0>         0.1305
     34 H7          3.4877   -0.8497   -0.2997 H         1 <0>         0.1302
     35 H8          3.3804   -3.2515   -0.8180 H         1 <0>         0.1291
     36 H9         -0.1608   -2.5860   -3.1346 H         1 <0>         0.1347
     37 H10         3.2508   -5.5937   -5.4084 H         1 <0>         0.1219
     38 H11         5.2811   -4.5761   -6.3581 H         1 <0>         0.1275
     39 H12         5.3070   -2.1823   -6.9331 H         1 <0>         0.1310
     40 H13         3.3016   -0.8041   -6.5599 H         1 <0>         0.1339
     41 H14        -0.0345   -8.5766   -6.3676 H         1 <0>         0.4120
     42 H15        -0.5035   -7.2710   -7.3153 H         1 <0>         0.4286
@<TRIPOS>BOND
     1    1    2 1
     2    1   30 1
     3    1   31 1
     4    1   32 1
     5    2    3 1
     6    3    8 ar
     7    3    4 ar
     8    4    5 ar
     9    4   33 1
    10    5    6 ar
    11    5   34 1
    12    6    7 ar
    13    6   35 1
    14    7    8 ar
    15    7    9 1
    16    8   36 1
    17    9   14 2
    18    9   10 1
    19   10   18 1
    20   10   11 2
    21   11   12 1
    22   11   15 1
    23   12   13 1
    24   12   14 1
    25   15   16 1
    26   16   17 2
    27   16   29 1
    28   17   18 1
    29   17   27 1
    30   18   19 1
    31   18   20 1
    32   20   25 ar
    33   20   21 ar
    34   21   22 ar
    35   21   37 1
    36   22   23 ar
    37   22   38 1
    38   23   24 ar
    39   23   39 1
    40   24   25 ar
    41   24   40 1
    42   25   26 1
    43   27   28 3
    44   29   41 1
    45   29   42 1
@<TRIPOS>MOLECULE
ZINC63351280
   49    53     0     0     0
SMALL
USER_CHARGES

@<TRIPOS>ATOM
      1 C1         -2.1252   -0.8743    8.6988 C.3       1 <0>        -0.1136
      2 C2         -0.8734   -1.1399    7.9029 C.ar      1 <0>        -0.0759
      3 C3          0.3477   -0.6805    8.3621 C.ar      1 <0>        -0.1025
      4 C4          1.4984   -0.9221    7.6347 C.ar      1 <0>        -0.1036
      5 C5          1.4316   -1.6231    6.4463 C.ar      1 <0>        -0.0886
      6 C6          0.2074   -2.0856    5.9827 C.ar      1 <0>         0.1329
      7 C7         -0.9459   -1.8465    6.7187 C.ar      1 <0>        -0.0839
      8 N1          0.1363   -2.7963    4.7777 N.am      1 <0>        -0.4666
      9 C8          0.2596   -4.1384    4.7845 C.2       1 <0>         0.5542
     10 O1          0.4325   -4.7335    5.8341 O.2       1 <0>        -0.5189
     11 C9          0.1871   -4.8474    3.5725 C.2       1 <0>        -0.4510
     12 C10        -0.0074   -4.1578    2.4121 C.2       1 <0>         0.4418
     13 N2         -0.1278   -2.7922    2.4506 N.pl3     1 <0>        -0.5901
     14 C11        -0.0603   -2.1346    3.6227 C.2       1 <0>         0.5345
     15 S1         -0.2201   -0.4302    3.6439 S.2       1 <0>        -0.5493
     16 O2         -0.0803   -4.8143    1.2348 O.3       1 <0>        -0.5229
     17 C12         0.3228   -6.3482    3.5558 C.3       1 <0>         0.1973
     18 H1          0.4047   -6.7208    4.5769 H         1 <0>         0.1150
     19 C13        -0.9002   -6.9691    2.8767 C.3       1 <0>         0.1016
     20 H2         -0.8677   -8.0560    2.9530 H         1 <0>         0.1526
     21 C14        -0.8440   -6.5335    1.4169 C.2       1 <0>         0.2347
     22 C15        -2.0120   -5.9665    1.1494 C.ar      1 <0>        -0.2401
     23 C16        -2.5818   -5.4335   -0.0986 C.ar      1 <0>         0.0364
     24 C17        -3.8281   -4.8985   -0.0086 C.ar      1 <0>        -0.2050
     25 C18        -4.5561   -4.8406    1.1839 C.ar      1 <0>         0.0106
     26 C19        -4.1128   -5.3117    2.3766 C.ar      1 <0>        -0.2078
     27 C20        -2.8167   -5.9032    2.4081 C.ar      1 <0>         0.2820
     28 N3         -2.1611   -6.4563    3.4103 N.pl3     1 <0>        -0.6335
     29 C21         0.4096   -6.6919    0.5910 C.3       1 <0>        -0.0376
     30 C22         1.5622   -6.1393    1.4493 C.3       1 <0>         0.0368
     31 N4          1.5209   -6.7293    2.7912 N.3       1 <0>        -0.6886
     32 H3         -2.2857   -1.6882    9.4059 H         1 <0>         0.0720
     33 H4         -2.0175    0.0639    9.2431 H         1 <0>         0.0714
     34 H5         -2.9778   -0.8066    8.0231 H         1 <0>         0.0665
     35 H6          0.4023   -0.1316    9.2906 H         1 <0>         0.1293
     36 H7          2.4504   -0.5621    7.9959 H         1 <0>         0.1322
     37 H8          2.3307   -1.8109    5.8782 H         1 <0>         0.1212
     38 H9         -1.8990   -2.2091    6.3630 H         1 <0>         0.1184
     39 H10        -2.0404   -5.4653   -1.0326 H         1 <0>         0.1470
     40 H11        -4.2791   -4.4972   -0.9041 H         1 <0>         0.1302
     41 H12        -5.5373   -4.3903    1.1535 H         1 <0>         0.1315
     42 H13        -4.7187   -5.2407    3.2678 H         1 <0>         0.1429
     43 H14         0.5804   -7.7449    0.3676 H         1 <0>         0.0779
     44 H15         0.3238   -6.1207   -0.3334 H         1 <0>         0.1041
     45 H16         2.5137   -6.3832    0.9768 H         1 <0>         0.0680
     46 H17         1.4673   -5.0563    1.5279 H         1 <0>         0.0961
     47 H18         2.3617   -6.5166    3.3069 H         1 <0>         0.3604
     48 H19        -2.4513   -6.5128    4.3341 H         1 <0>         0.4393
     49 H20        -0.2662   -2.2974    1.6279 H         1 <0>         0.4410
@<TRIPOS>BOND
     1    1    2 1
     2    1   32 1
     3    1   33 1
     4    1   34 1
     5    2    7 ar
     6    2    3 ar
     7    3    4 ar
     8    3   35 1
     9    4    5 ar
    10    4   36 1
    11    5    6 ar
    12    5   37 1
    13    6    7 ar
    14    6    8 1
    15    7   38 1
    16    8   14 1
    17    8    9 am
    18    9   10 2
    19    9   11 1
    20   11   12 2
    21   11   17 1
    22   12   13 1
    23   12   16 1
    24   13   14 1
    25   13   49 1
    26   14   15 2
    27   17   18 1
    28   17   31 1
    29   17   19 1
    30   19   20 1
    31   19   28 1
    32   19   21 1
    33   21   22 2
    34   21   29 1
    35   22   27 ar
    36   22   23 ar
    37   23   24 ar
    38   23   39 1
    39   24   25 ar
    40   24   40 1
    41   25   26 ar
    42   25   41 1
    43   26   27 ar
    44   26   42 1
    45   27   28 2
    46   28   48 1
    47   29   30 1
    48   29   43 1
    49   29   44 1
    50   30   31 1
    51   30   45 1
    52   30   46 1
    53   31   47 1
@<TRIPOS>MOLECULE
ZINC04537852
   45    49     0     0     0
SMALL
USER_CHARGES
(5-phenyl-2-furyl)BLAHtrione
@<TRIPOS>ATOM
      1 C1         -4.9292    1.3038   -6.8203 C.ar      1 <0>        -0.1211
      2 C2         -3.7883    1.9795   -6.4254 C.ar      1 <0>        -0.1161
      3 C3         -3.6006    2.3054   -5.0981 C.ar      1 <0>        -0.1104
      4 C4         -4.5649    1.9518   -4.1528 C.ar      1 <0>        -0.0022
      5 C5         -5.7109    1.2651   -4.5571 C.ar      1 <0>        -0.1032
      6 C6         -5.8891    0.9507   -5.8885 C.ar      1 <0>        -0.1134
      7 C7         -4.3704    2.2978   -2.7291 C.2       1 <0>         0.0079
      8 C8         -5.2289    2.0124   -1.7143 C.2       1 <0>        -0.1730
      9 C9         -4.6484    2.5226   -0.5359 C.2       1 <0>        -0.1689
     10 C10        -3.4767    3.0881   -0.8860 C.2       1 <0>         0.0376
     11 O1         -3.3147    2.9555   -2.2126 O.3       1 <0>        -0.1692
     12 C11        -2.5112    3.7630    0.0539 C.3       1 <0>         0.1467
     13 H1         -2.9185    3.7351    1.0646 H         1 <0>         0.1095
     14 C12        -1.2051    3.0246    0.0309 C.2       1 <0>        -0.3090
     15 C13        -0.0209    3.6977    0.0202 C.2       1 <0>         0.4449
     16 N1          1.1594    2.9943    0.0049 N.am      1 <0>        -0.6469
     17 H2          2.0308    3.4847   -0.0026 H         1 <0>         0.4420
     18 C14         1.1483    1.6485   -0.0001 C.2       1 <0>         0.7167
     19 O2          2.2013    1.0408   -0.0118 O.2       1 <0>        -0.5311
     20 N2         -0.0111    0.9658    0.0074 N.am      1 <0>        -0.6628
     21 H3          0.0025   -0.0341    0.0062 H         1 <0>         0.4423
     22 C15        -1.1904    1.6178    0.0165 C.2       1 <0>         0.5643
     23 O3         -2.2370    0.9930    0.0172 O.2       1 <0>        -0.4869
     24 N3         -0.0082    5.0700    0.0216 N.pl3     1 <0>        -0.6369
     25 C16        -1.1149    5.7786   -0.3624 C.2       1 <0>         0.2173
     26 C17        -2.3341    5.1997   -0.3677 C.2       1 <0>        -0.2596
     27 C18        -3.4764    5.9191   -0.7614 C.2       1 <0>         0.3942
     28 O4         -4.5565    5.3627   -0.7739 O.2       1 <0>        -0.4405
     29 C19        -3.3860    7.3648   -1.1670 C.3       1 <0>        -0.1587
     30 C20        -2.1994    8.0114   -0.4446 C.3       1 <0>        -0.1127
     31 C21        -0.9356    7.2170   -0.7817 C.3       1 <0>        -0.0940
     32 H4         -5.0713    1.0510   -7.8607 H         1 <0>         0.1241
     33 H5         -3.0429    2.2522   -7.1578 H         1 <0>         0.1243
     34 H6         -2.7097    2.8333   -4.7912 H         1 <0>         0.1219
     35 H7         -6.4585    0.9843   -3.8300 H         1 <0>         0.1278
     36 H8         -6.7776    0.4236   -6.2034 H         1 <0>         0.1279
     37 H9         -6.1733    1.4948   -1.7956 H         1 <0>         0.1439
     38 H10        -5.0641    2.4702    0.4595 H         1 <0>         0.1411
     39 H11         0.7929    5.5425    0.2970 H         1 <0>         0.4227
     40 H12        -4.2320    7.8350   -0.9156 H         1 <0>         0.0898
     41 H13        -3.2390    7.4344   -2.2448 H         1 <0>         0.1011
     42 H14        -2.3696    7.9896    0.6318 H         1 <0>         0.0791
     43 H15        -2.0842    9.0423   -0.7795 H         1 <0>         0.0908
     44 H16        -0.0851    7.6461   -0.2520 H         1 <0>         0.0937
     45 H17        -0.7542    7.2620   -1.8555 H         1 <0>         0.1052
@<TRIPOS>BOND
     1    1    6 ar
     2    1    2 ar
     3    1   32 1
     4    2    3 ar
     5    2   33 1
     6    3    4 ar
     7    3   34 1
     8    4    5 ar
     9    4    7 1
    10    5    6 ar
    11    5   35 1
    12    6   36 1
    13    7   11 1
    14    7    8 2
    15    8    9 1
    16    8   37 1
    17    9   10 2
    18    9   38 1
    19   10   11 1
    20   10   12 1
    21   12   13 1
    22   12   26 1
    23   12   14 1
    24   14   22 1
    25   14   15 2
    26   15   16 1
    27   15   24 1
    28   16   17 1
    29   16   18 am
    30   18   19 2
    31   18   20 am
    32   20   21 1
    33   20   22 am
    34   22   23 2
    35   24   25 1
    36   24   39 1
    37   25   31 1
    38   25   26 2
    39   26   27 1
    40   27   28 2
    41   27   29 1
    42   29   30 1
    43   29   40 1
    44   29   41 1
    45   30   31 1
    46   30   42 1
    47   30   43 1
    48   31   44 1
    49   31   45 1
@<TRIPOS>MOLECULE
ZINC05728830
   34    36     0     0     0
SMALL
USER_CHARGES
6-bromo-N-[(3,4-dihydroxyphenyl)methyleneamino]imidazo[1,2-a]pyridine-2-carboxamide
@<TRIPOS>ATOM
      1 C1         10.8243   -0.2073   -0.1075 C.ar      1 <0>        -0.0690
      2 C2         12.2036   -0.1949   -0.1152 C.ar      1 <0>        -0.1345
      3 C3         12.9111   -1.3877   -0.1281 C.ar      1 <0>         0.0987
      4 C4         12.2321   -2.6047   -0.1279 C.ar      1 <0>         0.0764
      5 C5         10.8505   -2.6253   -0.1144 C.ar      1 <0>        -0.0998
      6 C6         10.1371   -1.4234   -0.1014 C.ar      1 <0>        -0.0485
      7 C7          8.6630   -1.4392   -0.0874 C.2       1 <0>         0.1137
      8 N1          8.0021   -0.3220   -0.0753 N.2       1 <0>        -0.2247
      9 N2          6.6013   -0.3370   -0.0620 N.am      1 <0>        -0.5678
     10 C8          5.9150    0.8229   -0.0495 C.2       1 <0>         0.6250
     11 O1          6.5119    1.8827   -0.0497 O.2       1 <0>        -0.4933
     12 C9          4.4398    0.8071   -0.0355 C.2       1 <0>         0.0066
     13 C10         3.6265    1.9049   -0.0220 C.2       1 <0>         0.0034
     14 N3          2.3422    1.4514   -0.0126 N.pl3     1 <0>        -0.3638
     15 C11         1.1383    2.0990    0.0025 C.2       1 <0>         0.0970
     16 C12        -0.0170    1.4021    0.0098 C.2       1 <0>        -0.1108
     17 C13         0.0021   -0.0041    0.0020 C.2       1 <0>        -0.0807
     18 C14         1.1911   -0.6618   -0.0129 C.2       1 <0>        -0.0625
     19 C15         2.3924    0.0798   -0.0204 C.2       1 <0>         0.2348
     20 N4          3.6619   -0.2910   -0.0342 N.2       1 <0>        -0.4612
     21 Br1        -1.6699    2.3206    0.0226 Br        1 <0>        -0.0008
     22 O2         12.9294   -3.7722   -0.1406 O.3       1 <0>        -0.4855
     23 O3         14.2703   -1.3696   -0.1415 O.3       1 <0>        -0.4876
     24 H1         10.2758    0.7230   -0.1016 H         1 <0>         0.1443
     25 H2         12.7338    0.7460   -0.1155 H         1 <0>         0.1394
     26 H3         10.3231   -3.5678   -0.1135 H         1 <0>         0.1407
     27 H4          8.1331   -2.3802   -0.0872 H         1 <0>         0.1260
     28 H5          6.1253   -1.1822   -0.0618 H         1 <0>         0.3985
     29 H6          3.9425    2.9376   -0.0199 H         1 <0>         0.2042
     30 H7          1.1118    3.1787    0.0086 H         1 <0>         0.1792
     31 H8         -0.9245   -0.5590    0.0083 H         1 <0>         0.1573
     32 H9          1.2169   -1.7414   -0.0193 H         1 <0>         0.1656
     33 H10        13.1223   -4.1055   -1.0276 H         1 <0>         0.3888
     34 H11        14.6548   -1.3597   -1.0287 H         1 <0>         0.3909
@<TRIPOS>BOND
     1    1    6 ar
     2    1    2 ar
     3    1   24 1
     4    2    3 ar
     5    2   25 1
     6    3    4 ar
     7    3   23 1
     8    4    5 ar
     9    4   22 1
    10    5    6 ar
    11    5   26 1
    12    6    7 1
    13    7    8 2
    14    7   27 1
    15    8    9 1
    16    9   10 am
    17    9   28 1
    18   10   11 2
    19   10   12 1
    20   12   20 1
    21   12   13 2
    22   13   14 1
    23   13   29 1
    24   14   19 1
    25   14   15 1
    26   15   16 2
    27   15   30 1
    28   16   17 1
    29   16   21 1
    30   17   18 2
    31   17   31 1
    32   18   19 1
    33   18   32 1
    34   19   20 2
    35   22   33 1
    36   23   34 1
@<TRIPOS>MOLECULE
ZINC00565744
   39    42     0     0     0
SMALL
USER_CHARGES

@<TRIPOS>ATOM
      1 C1         -0.1006    1.1876    0.1279 C.ar      1 <0>        -0.1417
      2 C2          0.2261    0.3849   -0.9481 C.ar      1 <0>        -0.0357
      3 C3          1.5134   -0.1002   -1.0844 C.ar      1 <0>        -0.0488
      4 C4          2.4772    0.2164   -0.1446 C.ar      1 <0>        -0.0314
      5 C5          2.1557    1.0185    0.9329 C.ar      1 <0>        -0.1221
      6 C6          0.8644    1.5070    1.0717 C.ar      1 <0>         0.1672
      7 O1          0.5456    2.2967    2.1308 O.3       1 <0>        -0.4877
      8 C7          3.8795   -0.3145   -0.2960 C.3       1 <0>         0.3866
      9 H1          4.1442   -0.3229   -1.3533 H         1 <0>         0.1457
     10 N1          3.9307   -1.6931    0.2238 N.pl3     1 <0>        -0.6913
     11 C8          4.0954   -1.8259    1.5843 C.2       1 <0>         0.0945
     12 C9          4.7004   -0.8280    2.3573 C.2       1 <0>        -0.2606
     13 C10         4.7924   -1.1037    3.7794 C.2       1 <0>        -0.0305
     14 C11         4.2826   -2.2995    4.1535 C.2       1 <0>        -0.2182
     15 S1          3.6970   -3.0320    2.6499 S.3       1 <0>         0.2028
     16 C12         4.2335   -2.8640    5.5390 C.3       1 <0>        -0.0307
     17 C13         5.1848   -2.0486    6.4272 C.3       1 <0>        -0.1144
     18 C14         4.9220   -0.5578    6.1958 C.3       1 <0>        -0.1214
     19 C15         5.4037   -0.1548    4.8006 C.3       1 <0>        -0.0550
     20 C16         5.1841    0.3865    1.6515 C.2       1 <0>         0.4636
     21 N2          4.7996    0.5620    0.4177 N.2       1 <0>        -0.6441
     22 O2          5.9944    1.2783    2.2670 O.3       1 <0>        -0.4508
     23 N3          1.8606   -0.9603   -2.2378 N.pl3     1 <0>         0.0410
     24 O3          1.0534   -1.1452   -3.1185 O.2       1 <0>        -0.1411
     25 O4          2.9515   -1.4779   -2.2991 O.3       1 <0>        -0.1759
     26 H2         -1.1055    1.5697    0.2317 H         1 <0>         0.1571
     27 H3         -0.5249    0.1359   -1.6832 H         1 <0>         0.1622
     28 H4          2.9086    1.2652    1.6668 H         1 <0>         0.1477
     29 H5          0.2330    1.8090    2.9050 H         1 <0>         0.4051
     30 H6          3.8523   -2.4637   -0.3601 H         1 <0>         0.4238
     31 H7          3.2176   -2.7944    5.9281 H         1 <0>         0.0788
     32 H8          4.5501   -3.9068    5.5221 H         1 <0>         0.0790
     33 H9          5.0059   -2.2928    7.4743 H         1 <0>         0.0736
     34 H10         6.2172   -2.2821    6.1671 H         1 <0>         0.0688
     35 H11         3.8533   -0.3611    6.2809 H         1 <0>         0.0645
     36 H12         5.4570    0.0247    6.9458 H         1 <0>         0.0703
     37 H13         6.4908   -0.2205    4.7557 H         1 <0>         0.0812
     38 H14         5.0879    0.8661    4.5858 H         1 <0>         0.0795
     39 H15         6.2460    2.0294    1.7123 H         1 <0>         0.4086
@<TRIPOS>BOND
     1    1    6 ar
     2    1    2 ar
     3    1   26 1
     4    2    3 ar
     5    2   27 1
     6    3    4 ar
     7    3   23 1
     8    4    5 ar
     9    4    8 1
    10    5    6 ar
    11    5   28 1
    12    6    7 1
    13    7   29 1
    14    8    9 1
    15    8   21 1
    16    8   10 1
    17   10   11 1
    18   10   30 1
    19   11   15 1
    20   11   12 2
    21   12   13 1
    22   12   20 1
    23   13   19 1
    24   13   14 2
    25   14   15 1
    26   14   16 1
    27   16   17 1
    28   16   31 1
    29   16   32 1
    30   17   18 1
    31   17   33 1
    32   17   34 1
    33   18   19 1
    34   18   35 1
    35   18   36 1
    36   19   37 1
    37   19   38 1
    38   20   21 2
    39   20   22 1
    40   22   39 1
    41   23   24 2
    42   23   25 1
@<TRIPOS>MOLECULE
ZINC02472160
   47    50     0     0     0
SMALL
USER_CHARGES

@<TRIPOS>ATOM
      1 C1         -0.0173    1.4248    0.0099 C.3       1 <0>         0.0255
      2 O1          0.0021   -0.0041    0.0020 O.3       1 <0>        -0.3161
      3 C2          0.6258   -0.6184    1.0415 C.ar      1 <0>         0.1362
      4 C3          1.2022    0.1384    2.0513 C.ar      1 <0>        -0.2061
      5 C4          1.8353   -0.4884    3.1070 C.ar      1 <0>        -0.0596
      6 C5          1.8951   -1.8688    3.1577 C.ar      1 <0>        -0.1377
      7 C6          1.3218   -2.6253    2.1523 C.ar      1 <0>        -0.0632
      8 C7          0.6822   -2.0034    1.0976 C.ar      1 <0>        -0.1492
      9 C8          2.5867   -2.5500    4.3104 C.3       1 <0>         0.2058
     10 H1          3.2644   -1.8484    4.7968 H         1 <0>         0.0852
     11 C9          1.5425   -3.0407    5.3197 C.3       1 <0>        -0.1389
     12 C10         2.2461   -3.6859    6.5202 C.3       1 <0>         0.2203
     13 H2          2.7430   -2.9154    7.1097 H         1 <0>         0.1020
     14 N1          3.2374   -4.6422    6.0281 N.pl3     1 <0>        -0.4027
     15 C11         3.7365   -4.6442    4.7689 C.2       1 <0>         0.5456
     16 N2          4.5905   -5.6279    4.6710 N.2       1 <0>        -0.6006
     17 C12         4.6648   -6.2737    5.8441 C.2       1 <0>         0.4855
     18 N3          3.8508   -5.6993    6.7016 N.2       1 <0>        -0.3613
     19 N4          5.4758   -7.3776    6.1113 N.pl3     1 <0>        -0.8265
     20 N5          3.3492   -3.7118    3.8139 N.pl3     1 <0>        -0.7048
     21 C13         1.2319   -4.4006    7.3756 C.ar      1 <0>        -0.1214
     22 C14         0.4820   -5.4316    6.8430 C.ar      1 <0>        -0.0520
     23 C15        -0.4489   -6.0874    7.6271 C.ar      1 <0>        -0.1568
     24 C16        -0.6315   -5.7138    8.9460 C.ar      1 <0>        -0.0699
     25 C17         0.1161   -4.6841    9.4832 C.ar      1 <0>        -0.2089
     26 C18         1.0547   -4.0278    8.6998 C.ar      1 <0>         0.1496
     27 O2          1.7954   -3.0181    9.2277 O.3       1 <0>        -0.3160
     28 C19         1.5595   -2.6881   10.5979 C.3       1 <0>         0.0273
     29 H3          1.0053    1.8021    0.0021 H         1 <0>         0.0574
     30 H4         -0.5445    1.7859   -0.8732 H         1 <0>         0.1024
     31 H5         -0.5275    1.7763    0.9067 H         1 <0>         0.0573
     32 H6          1.1564    1.2167    2.0118 H         1 <0>         0.1320
     33 H7          2.2842    0.1003    3.8934 H         1 <0>         0.1298
     34 H8          1.3701   -3.7035    2.1940 H         1 <0>         0.1318
     35 H9          0.2307   -2.5948    0.3148 H         1 <0>         0.1340
     36 H10         0.9436   -2.1964    5.6613 H         1 <0>         0.1082
     37 H11         0.8937   -3.7749    4.8422 H         1 <0>         0.0872
     38 H12         6.0488   -7.7380    5.4166 H         1 <0>         0.4122
     39 H13         5.4665   -7.7844    6.9918 H         1 <0>         0.4122
     40 H14         3.5647   -3.8196    2.8743 H         1 <0>         0.4251
     41 H15         0.6228   -5.7252    5.8133 H         1 <0>         0.1213
     42 H16        -1.0346   -6.8925    7.2088 H         1 <0>         0.1250
     43 H17        -1.3595   -6.2274    9.5563 H         1 <0>         0.1267
     44 H18        -0.0270   -4.3927   10.5132 H         1 <0>         0.1305
     45 H19         2.2146   -1.8682   10.8921 H         1 <0>         0.1016
     46 H20         0.5199   -2.3861   10.7250 H         1 <0>         0.0569
     47 H21         1.7639   -3.5583   11.2216 H         1 <0>         0.0570
@<TRIPOS>BOND
     1    1    2 1
     2    1   29 1
     3    1   30 1
     4    1   31 1
     5    2    3 1
     6    3    8 ar
     7    3    4 ar
     8    4    5 ar
     9    4   32 1
    10    5    6 ar
    11    5   33 1
    12    6    7 ar
    13    6    9 1
    14    7    8 ar
    15    7   34 1
    16    8   35 1
    17    9   10 1
    18    9   20 1
    19    9   11 1
    20   11   12 1
    21   11   36 1
    22   11   37 1
    23   12   13 1
    24   12   14 1
    25   12   21 1
    26   14   18 1
    27   14   15 1
    28   15   16 2
    29   15   20 1
    30   16   17 1
    31   17   18 2
    32   17   19 1
    33   19   38 1
    34   19   39 1
    35   20   40 1
    36   21   26 ar
    37   21   22 ar
    38   22   23 ar
    39   22   41 1
    40   23   24 ar
    41   23   42 1
    42   24   25 ar
    43   24   43 1
    44   25   26 ar
    45   25   44 1
    46   26   27 1
    47   27   28 1
    48   28   45 1
    49   28   46 1
    50   28   47 1
@<TRIPOS>MOLECULE
ZINC55186559
   26    27     0     0     0
SMALL
USER_CHARGES

@<TRIPOS>ATOM
      1 C1          0.0647    1.2424   -0.6202 C.ar      1 <0>        -0.0131
      2 C2          1.2502    1.9517   -0.6186 C.ar      1 <0>        -0.1300
      3 C3          2.3815    1.4092   -0.0241 C.ar      1 <0>         0.2365
      4 C4          2.3171    0.1532    0.5677 C.ar      1 <0>        -0.1382
      5 C5          1.1283   -0.5508    0.5625 C.ar      1 <0>         0.0007
      6 C6          0.0036   -0.0068   -0.0308 C.ar      1 <0>        -0.0698
      7 N1         -1.2684   -0.7637   -0.0347 N.pl3     1 <0>         0.0373
      8 O1         -2.2524   -0.2895   -0.5529 O.2       1 <0>        -0.1525
      9 O2         -1.3234   -1.8562    0.4803 O.3       1 <0>        -0.1561
     10 Br1         3.8548   -0.5913    1.3784 Br        1 <0>        -0.0068
     11 N2          3.5835    2.1248   -0.0212 N.am      1 <0>        -0.6520
     12 C7          3.5676    3.4691   -0.1160 C.2       1 <0>         0.6003
     13 O3          2.5084    4.0674   -0.1029 O.2       1 <0>        -0.4989
     14 C8          4.8314    4.2132   -0.2354 C.2       1 <0>         0.0336
     15 C9          4.8274    5.5825   -0.3275 C.2       1 <0>        -0.1478
     16 S1          6.5801    5.9140   -0.4460 S.3       1 <0>         0.0333
     17 C10         7.1389    4.2188   -0.3624 C.2       1 <0>         0.3875
     18 N3          5.9994    3.5666   -0.2503 N.2       1 <0>        -0.5715
     19 N4          8.4306    3.7214   -0.4001 N.pl3     1 <0>        -0.7911
     20 H1         -0.8166    1.6660   -1.0786 H         1 <0>         0.1658
     21 H2          1.2969    2.9273   -1.0796 H         1 <0>         0.1777
     22 H3          1.0773   -1.5268    1.0220 H         1 <0>         0.1677
     23 H4          4.4283    1.6535    0.0491 H         1 <0>         0.4302
     24 H5          3.9947    6.2703   -0.3284 H         1 <0>         0.2119
     25 H6          9.1821    4.3292   -0.4823 H         1 <0>         0.4248
     26 H7          8.5839    2.7652   -0.3444 H         1 <0>         0.4205
@<TRIPOS>BOND
     1    1    6 ar
     2    1    2 ar
     3    1   20 1
     4    2    3 ar
     5    2   21 1
     6    3    4 ar
     7    3   11 1
     8    4    5 ar
     9    4   10 1
    10    5    6 ar
    11    5   22 1
    12    6    7 1
    13    7    8 2
    14    7    9 1
    15   11   12 am
    16   11   23 1
    17   12   13 2
    18   12   14 1
    19   14   18 1
    20   14   15 2
    21   15   16 1
    22   15   24 1
    23   16   17 1
    24   17   18 2
    25   17   19 1
    26   19   25 1
    27   19   26 1
@<TRIPOS>MOLECULE
ZINC00827956
   43    45     0     0     0
SMALL
USER_CHARGES
8-acetonylsulfanyl-3-methyl-7-phenethyl-purine-2,6-dione
@<TRIPOS>ATOM
      1 C1          0.9528   -7.3756   -0.0466 C.3       1 <0>        -0.1858
      2 C2         -0.0799   -6.2783   -0.0309 C.2       1 <0>         0.3701
      3 O1         -1.2553   -6.5553   -0.0211 O.2       1 <0>        -0.4374
      4 C3          0.3541   -4.8351   -0.0273 C.3       1 <0>        -0.1645
      5 S1         -1.1063   -3.7660   -0.0076 S.3       1 <0>         0.0704
      6 C4         -0.3282   -2.1851   -0.0065 C.2       1 <0>         0.2506
      7 N1          0.9736   -1.9763   -0.0178 N.2       1 <0>        -0.4981
      8 C5          1.2250   -0.6667   -0.0132 C.2       1 <0>         0.3337
      9 C6          0.0021   -0.0041    0.0020 C.2       1 <0>        -0.1451
     10 N2         -0.9767   -0.9893    0.0061 N.pl3     1 <0>        -0.3896
     11 C7         -2.4268   -0.7811    0.0215 C.3       1 <0>         0.1061
     12 C8         -2.9457   -0.7006   -1.4156 C.3       1 <0>        -0.0908
     13 C9         -4.4373   -0.4865   -1.3998 C.ar      1 <0>        -0.0890
     14 C10        -5.2917   -1.5732   -1.4032 C.ar      1 <0>        -0.1118
     15 C11        -6.6599   -1.3768   -1.3833 C.ar      1 <0>        -0.1184
     16 C12        -7.1738   -0.0937   -1.3711 C.ar      1 <0>        -0.1172
     17 C13        -6.3196    0.9931   -1.3734 C.ar      1 <0>        -0.1181
     18 C14        -4.9513    0.7967   -1.3875 C.ar      1 <0>        -0.1081
     19 C15        -0.0170    1.4015    0.0097 C.2       1 <0>         0.5977
     20 O2         -1.0770    2.0029    0.0181 O.2       1 <0>        -0.5101
     21 N3          1.1503    2.0778    0.0022 N.am      1 <0>        -0.6544
     22 H1          1.1401    3.0777    0.0068 H         1 <0>         0.4478
     23 C16         2.3269    1.4280   -0.0113 C.2       1 <0>         0.7114
     24 O3          3.3592    2.0706   -0.0173 O.2       1 <0>        -0.5319
     25 N4          2.3904    0.0831   -0.0199 N.am      1 <0>        -0.5098
     26 C17         3.6925   -0.5880   -0.0360 C.3       1 <0>         0.0888
     27 H2          1.5323   -7.2996    0.7649 H         1 <0>         0.0887
     28 H3          0.4535   -8.3445   -0.0471 H         1 <0>         0.0917
     29 H4          1.5675   -7.2833   -0.9420 H         1 <0>         0.0997
     30 H5          0.8937   -4.6473   -0.8480 H         1 <0>         0.1198
     31 H6          0.9592   -4.6399    0.8580 H         1 <0>         0.1356
     32 H7         -2.9078   -1.6133    0.5354 H         1 <0>         0.1052
     33 H8         -2.6549    0.1485    0.5428 H         1 <0>         0.1144
     34 H9         -2.4646    0.1316   -1.9295 H         1 <0>         0.0838
     35 H10        -2.7176   -1.6302   -1.9369 H         1 <0>         0.0837
     36 H11        -4.8901   -2.5757   -1.4173 H         1 <0>         0.1244
     37 H12        -7.3273   -2.2259   -1.3812 H         1 <0>         0.1243
     38 H13        -8.2428    0.0598   -1.3594 H         1 <0>         0.1230
     39 H14        -6.7211    1.9957   -1.3638 H         1 <0>         0.1238
     40 H15        -4.2839    1.6458   -1.3893 H         1 <0>         0.1249
     41 H16         4.0058   -0.7486   -1.0675 H         1 <0>         0.0742
     42 H17         4.4281    0.0337    0.4745 H         1 <0>         0.0950
     43 H18         3.6126   -1.5484    0.4732 H         1 <0>         0.0910
@<TRIPOS>BOND
     1    1    2 1
     2    1   27 1
     3    1   28 1
     4    1   29 1
     5    2    3 2
     6    2    4 1
     7    4    5 1
     8    4   30 1
     9    4   31 1
    10    5    6 1
    11    6   10 1
    12    6    7 2
    13    7    8 1
    14    8   25 1
    15    8    9 2
    16    9   10 1
    17    9   19 1
    18   10   11 1
    19   11   12 1
    20   11   32 1
    21   11   33 1
    22   12   13 1
    23   12   34 1
    24   12   35 1
    25   13   18 ar
    26   13   14 ar
    27   14   15 ar
    28   14   36 1
    29   15   16 ar
    30   15   37 1
    31   16   17 ar
    32   16   38 1
    33   17   18 ar
    34   17   39 1
    35   18   40 1
    36   19   20 2
    37   19   21 am
    38   21   22 1
    39   21   23 am
    40   23   24 2
    41   23   25 am
    42   25   26 1
    43   26   41 1
    44   26   42 1
    45   26   43 1
@<TRIPOS>MOLECULE
ZINC34738694
   50    52     0     0     0
SMALL
USER_CHARGES

@<TRIPOS>ATOM
      1 C1          0.0006    1.4760   -0.0062 C.3       1 <0>        -0.0039
      2 N1          0.0065    0.0070   -0.0040 N.3       1 <0>        -0.3171
      3 C2          0.7596   -0.5228   -1.1655 C.3       1 <0>         0.1280
      4 H1          1.4993    0.2042   -1.5006 H         1 <0>         0.0866
      5 C3          1.4577   -1.7961   -0.6436 C.3       1 <0>        -0.6393
      6 H2          2.5399   -1.7004   -0.7321 H         1 <0>         0.1477
      7 C4          1.0430   -1.8806    0.8423 C.3       1 <0>         0.0716
      8 O1          0.7042   -0.5178    1.1879 O.3       1 <0>        -0.2375
      9 S1          0.8758   -3.2550   -1.5511 S.o2      1 <0>         2.6327
     10 O2         -0.5161   -3.4429   -1.3348 O.2       1 <0>        -0.9268
     11 O3          1.4113   -3.2585   -2.8673 O.2       1 <0>        -0.9398
     12 N2          1.5978   -4.5408   -0.7977 N.pl3     1 <0>        -1.1173
     13 C5          1.2598   -4.8600    0.5916 C.3       1 <0>         0.1618
     14 C6          1.7471   -6.2474    0.9212 C.ar      1 <0>         0.1118
     15 C7          2.9760   -6.4127    1.5321 C.ar      1 <0>        -0.1576
     16 C8          3.4149   -7.6932    1.8310 C.ar      1 <0>        -0.0749
     17 C9          2.5978   -8.7645    1.5028 C.ar      1 <0>        -0.1651
     18 C10         1.3817   -8.5217    0.8931 C.ar      1 <0>         0.1017
     19 N3          0.9939   -7.2893    0.6284 N.ar      1 <0>        -0.4661
     20 C11        -0.1843   -0.8641   -2.2896 C.ar      1 <0>        -0.2660
     21 C12        -1.4149   -1.4292   -2.0096 C.ar      1 <0>         0.0231
     22 C13        -2.2823   -1.7432   -3.0374 C.ar      1 <0>        -0.2107
     23 C14        -1.9172   -1.4909   -4.3537 C.ar      1 <0>         0.2427
     24 C15        -0.6802   -0.9232   -4.6315 C.ar      1 <0>        -0.2138
     25 C16         0.1800   -0.6064   -3.5985 C.ar      1 <0>        -0.0180
     26 N4         -2.7918   -1.8077   -5.3956 N.pl3     1 <0>        -0.6344
     27 C17        -4.0404   -2.5199   -5.1130 C.3       1 <0>         0.0847
     28 C18        -2.4605   -1.4277   -6.7712 C.3       1 <0>         0.0906
     29 H3          1.0267    1.8435   -0.0141 H         1 <0>         0.0458
     30 H4         -0.5211    1.8359   -0.8930 H         1 <0>         0.0965
     31 H5         -0.5084    1.8386    0.8869 H         1 <0>         0.0875
     32 H6          0.1769   -2.5317    0.9611 H         1 <0>         0.0824
     33 H7          1.8747   -2.2341    1.4518 H         1 <0>         0.1098
     34 H8          2.2445   -5.0827   -1.2762 H         1 <0>         0.4188
     35 H9          1.7371   -4.1398    1.2563 H         1 <0>         0.0811
     36 H10         0.1786   -4.8140    0.7223 H         1 <0>         0.1034
     37 H11         3.5866   -5.5551    1.7731 H         1 <0>         0.1383
     38 H12         4.3708   -7.8528    2.3078 H         1 <0>         0.1385
     39 H13         2.9080   -9.7757    1.7207 H         1 <0>         0.1387
     40 H14         0.7395   -9.3506    0.6344 H         1 <0>         0.1604
     41 H15        -1.6980   -1.6255   -0.9860 H         1 <0>         0.1426
     42 H16        -3.2431   -2.1849   -2.8180 H         1 <0>         0.1293
     43 H17        -0.3932   -0.7260   -5.6538 H         1 <0>         0.1261
     44 H18         1.1401   -0.1609   -3.8135 H         1 <0>         0.1233
     45 H19        -4.1562   -2.6366   -4.0354 H         1 <0>         0.0818
     46 H20        -4.8812   -1.9505   -5.5091 H         1 <0>         0.0580
     47 H21        -4.0129   -3.5025   -5.5840 H         1 <0>         0.0546
     48 H22        -1.8961   -2.2313   -7.2442 H         1 <0>         0.0504
     49 H23        -3.3792   -1.2509   -7.3306 H         1 <0>         0.0682
     50 H24        -1.8598   -0.5182   -6.7622 H         1 <0>         0.0698
@<TRIPOS>BOND
     1    1    2 1
     2    1   29 1
     3    1   30 1
     4    1   31 1
     5    2    8 1
     6    2    3 1
     7    3    4 1
     8    3    5 1
     9    3   20 1
    10    5    6 1
    11    5    7 1
    12    5    9 1
    13    7    8 1
    14    7   32 1
    15    7   33 1
    16    9   10 2
    17    9   11 2
    18    9   12 1
    19   12   13 1
    20   12   34 1
    21   13   14 1
    22   13   35 1
    23   13   36 1
    24   14   19 ar
    25   14   15 ar
    26   15   16 ar
    27   15   37 1
    28   16   17 ar
    29   16   38 1
    30   17   18 ar
    31   17   39 1
    32   18   19 ar
    33   18   40 1
    34   20   25 ar
    35   20   21 ar
    36   21   22 ar
    37   21   41 1
    38   22   23 ar
    39   22   42 1
    40   23   24 ar
    41   23   26 1
    42   24   25 ar
    43   24   43 1
    44   25   44 1
    45   26   27 1
    46   26   28 1
    47   27   45 1
    48   27   46 1
    49   27   47 1
    50   28   48 1
    51   28   49 1
    52   28   50 1
@<TRIPOS>MOLECULE
ZINC44357248
   43    44     0     0     0
SMALL
USER_CHARGES

@<TRIPOS>ATOM
      1 C1         -0.6016    2.7116   -2.1946 C.3       1 <0>        -0.1534
      2 C2         -0.3031    1.3022   -1.6793 C.3       1 <0>         0.0636
      3 O1         -1.5293    0.6439   -1.3554 O.3       1 <0>        -0.3533
      4 C3         -1.4415   -0.6175   -0.8832 C.2       1 <0>         0.5607
      5 O2         -0.3519   -1.1430   -0.7507 O.2       1 <0>        -0.5062
      6 C4         -2.6174   -1.3295   -0.5420 C.2       1 <0>        -0.3325
      7 C5         -2.7430   -2.6189   -0.0402 C.2       1 <0>         0.0186
      8 C6         -4.0222   -3.0470    0.1986 C.2       1 <0>        -0.2462
      9 C7         -5.0655   -2.1904   -0.0691 C.2       1 <0>         0.0355
     10 S1         -4.3162   -0.7988   -0.6388 S.3       1 <0>         0.3628
     11 N1         -6.4248   -2.4212    0.0986 N.am      1 <0>        -0.6135
     12 C8         -7.3156   -1.4605   -0.2179 C.2       1 <0>         0.4961
     13 O3         -6.9301   -0.3945   -0.6492 O.2       1 <0>        -0.4785
     14 C9         -8.7904   -1.7109   -0.0359 C.3       1 <0>         0.1469
     15 H1         -8.9515   -2.3756    0.8128 H         1 <0>         0.1051
     16 C10        -9.3774   -2.3424   -1.3159 C.3       1 <0>        -0.1188
     17 C11       -10.7670   -1.6622   -1.4331 C.3       1 <0>        -0.1282
     18 C12       -10.4609   -0.2370   -0.9089 C.3       1 <0>         0.1183
     19 N2         -9.4901   -0.4372    0.1867 N.pl3     1 <0>        -0.9955
     20 S2         -9.2315    0.5974    1.4537 S.o2      1 <0>         2.6191
     21 O4         -7.9437    0.2532    1.9458 O.2       1 <0>        -0.9429
     22 O5         -9.4819    1.8913    0.9221 O.2       1 <0>        -0.9387
     23 C13       -10.5025    0.1666    2.6742 C.3       1 <0>        -0.6741
     24 C14        -1.5448   -3.4936    0.2250 C.3       1 <0>        -0.1105
     25 H2          0.3338    3.2138   -2.4418 H         1 <0>         0.0801
     26 H3         -1.2262    2.6480   -3.0856 H         1 <0>         0.0669
     27 H4         -1.1249    3.2771   -1.4237 H         1 <0>         0.0673
     28 H5          0.2203    0.7367   -2.4503 H         1 <0>         0.0682
     29 H6          0.3215    1.3659   -0.7883 H         1 <0>         0.0683
     30 H7         -4.2082   -4.0367    0.5887 H         1 <0>         0.1420
     31 H8         -6.7331   -3.2738    0.4436 H         1 <0>         0.4221
     32 H9         -8.7582   -2.1063   -2.1813 H         1 <0>         0.0867
     33 H10        -9.4846   -3.4209   -1.1996 H         1 <0>         0.0968
     34 H11       -11.1017   -1.6335   -2.4701 H         1 <0>         0.0930
     35 H12       -11.5011   -2.1617   -0.8009 H         1 <0>         0.0832
     36 H13       -10.0223    0.3719   -1.6994 H         1 <0>         0.0813
     37 H14       -11.3691    0.2305   -0.5285 H         1 <0>         0.0830
     38 H15       -10.3318   -0.8481    3.0338 H         1 <0>         0.1282
     39 H16       -10.4523    0.8622    3.5119 H         1 <0>         0.1321
     40 H17       -11.4870    0.2269    2.2103 H         1 <0>         0.1292
     41 H18        -1.1997   -3.3371    1.2470 H         1 <0>         0.0788
     42 H19        -1.8216   -4.5394    0.0911 H         1 <0>         0.0681
     43 H20        -0.7464   -3.2371   -0.4714 H         1 <0>         0.0903
@<TRIPOS>BOND
     1    1    2 1
     2    1   25 1
     3    1   26 1
     4    1   27 1
     5    2    3 1
     6    2   28 1
     7    2   29 1
     8    3    4 1
     9    4    5 2
    10    4    6 1
    11    6   10 1
    12    6    7 2
    13    7    8 1
    14    7   24 1
    15    8    9 2
    16    8   30 1
    17    9   10 1
    18    9   11 1
    19   11   12 am
    20   11   31 1
    21   12   13 2
    22   12   14 1
    23   14   15 1
    24   14   19 1
    25   14   16 1
    26   16   17 1
    27   16   32 1
    28   16   33 1
    29   17   18 1
    30   17   34 1
    31   17   35 1
    32   18   19 1
    33   18   36 1
    34   18   37 1
    35   19   20 1
    36   20   21 2
    37   20   22 2
    38   20   23 1
    39   23   38 1
    40   23   39 1
    41   23   40 1
    42   24   41 1
    43   24   42 1
    44   24   43 1
@<TRIPOS>MOLECULE
ZINC59919240
   47    49     0     0     0
SMALL
USER_CHARGES

@<TRIPOS>ATOM
      1 C1         -0.0187    1.5258    0.0104 C.3       1 <0>        -0.1430
      2 C2          0.0021   -0.0041    0.0020 C.3       1 <0>        -0.6013
      3 S1          0.8511   -0.5891   -1.4904 S.o2      1 <0>         2.5057
      4 O1          0.0816   -0.2798   -2.6443 O.2       1 <0>        -0.9517
      5 O2          2.2316   -0.2574   -1.4300 O.2       1 <0>        -0.9070
      6 C3          0.8058   -2.3469   -1.3776 C.ar      1 <0>        -0.6107
      7 C4          0.0983   -3.0814   -2.3070 C.ar      1 <0>        -0.0287
      8 C5          0.0617   -4.4615   -2.2199 C.ar      1 <0>        -0.1095
      9 C6          0.7334   -5.1146   -1.2014 C.ar      1 <0>        -0.0743
     10 C7          1.4447   -4.3923   -0.2661 C.ar      1 <0>        -0.1038
     11 C8          1.4901   -2.9997   -0.3513 C.ar      1 <0>        -0.0504
     12 C9          2.2552   -2.2194    0.6444 C.2       1 <0>         0.5387
     13 O3          2.2892   -1.0066    0.5703 O.2       1 <0>        -0.5010
     14 N1          2.9150   -2.8528    1.6343 N.am      1 <0>        -0.7151
     15 C10         3.6732   -2.0796    2.6210 C.3       1 <0>         0.1663
     16 C11         4.3118   -3.0184    3.6119 C.ar      1 <0>        -0.1799
     17 C12         3.6329   -3.3902    4.7640 C.ar      1 <0>        -0.0243
     18 C13         4.2559   -4.2545    5.6475 C.ar      1 <0>        -0.1818
     19 C14         5.5322   -4.7179    5.3530 C.ar      1 <0>         0.3615
     20 N2          6.1470   -4.3404    4.2441 N.ar      1 <0>        -0.4959
     21 C15         5.5766   -3.5226    3.3805 C.ar      1 <0>         0.1581
     22 N3          6.1731   -5.5911    6.2374 N.pl3     1 <0>        -0.4144
     23 C16         5.6666   -6.0744    7.4170 C.2       1 <0>        -0.0630
     24 C17         6.6089   -6.8771    7.9459 C.2       1 <0>        -0.0057
     25 N4          7.6639   -6.8880    7.1173 N.2       1 <0>        -0.4871
     26 C18         7.4135   -6.1263    6.0879 C.2       1 <0>         0.2467
     27 C19         8.3448   -5.8789    4.9292 C.3       1 <0>        -0.0741
     28 H1          1.0039    1.9031    0.0027 H         1 <0>         0.0754
     29 H2         -0.5459    1.8868   -0.8726 H         1 <0>         0.0691
     30 H3         -0.5289    1.8773    0.9072 H         1 <0>         0.0811
     31 H4          0.5293   -0.3651    0.8851 H         1 <0>         0.1480
     32 H5         -1.0205   -0.3814    0.0098 H         1 <0>         0.1216
     33 H6         -0.4283   -2.5777   -3.1041 H         1 <0>         0.1547
     34 H7         -0.4938   -5.0317   -2.9497 H         1 <0>         0.1416
     35 H8          0.7003   -6.1923   -1.1385 H         1 <0>         0.1401
     36 H9          1.9685   -4.9032    0.5283 H         1 <0>         0.1342
     37 H10         2.8879   -3.8206    1.6935 H         1 <0>         0.4032
     38 H11         4.4480   -1.5042    2.1143 H         1 <0>         0.0931
     39 H12         3.0007   -1.4006    3.1452 H         1 <0>         0.0886
     40 H13         2.6412   -3.0134    4.9666 H         1 <0>         0.1492
     41 H14         3.7568   -4.5642    6.5538 H         1 <0>         0.1461
     42 H15         6.1071   -3.2402    2.4832 H         1 <0>         0.1726
     43 H16         4.6980   -5.8531    7.8403 H         1 <0>         0.1816
     44 H17         6.5295   -7.4187    8.8770 H         1 <0>         0.1796
     45 H18         8.9754   -5.0170    5.1476 H         1 <0>         0.0813
     46 H19         8.9712   -6.7570    4.7725 H         1 <0>         0.0853
     47 H20         7.7614   -5.6835    4.0294 H         1 <0>         0.0996
@<TRIPOS>BOND
     1    1    2 1
     2    1   28 1
     3    1   29 1
     4    1   30 1
     5    2    3 1
     6    2   31 1
     7    2   32 1
     8    3    4 2
     9    3    5 2
    10    3    6 1
    11    6   11 ar
    12    6    7 ar
    13    7    8 ar
    14    7   33 1
    15    8    9 ar
    16    8   34 1
    17    9   10 ar
    18    9   35 1
    19   10   11 ar
    20   10   36 1
    21   11   12 1
    22   12   13 2
    23   12   14 am
    24   14   15 1
    25   14   37 1
    26   15   16 1
    27   15   38 1
    28   15   39 1
    29   16   21 ar
    30   16   17 ar
    31   17   18 ar
    32   17   40 1
    33   18   19 ar
    34   18   41 1
    35   19   20 ar
    36   19   22 1
    37   20   21 ar
    38   21   42 1
    39   22   26 1
    40   22   23 1
    41   23   24 2
    42   23   43 1
    43   24   25 1
    44   24   44 1
    45   25   26 2
    46   26   27 1
    47   27   45 1
    48   27   46 1
    49   27   47 1
@<TRIPOS>MOLECULE
ZINC66280757
   40    41     0     0     0
SMALL
USER_CHARGES

@<TRIPOS>ATOM
      1 C1         -0.0178    1.4608    0.0101 C.3       1 <0>         0.0877
      2 N1          0.0021   -0.0041    0.0020 N.pl3     1 <0>        -0.3344
      3 C2          0.0077   -0.7825   -1.0918 C.2       1 <0>         0.0703
      4 C3          0.0274   -2.0951   -0.6648 C.2       1 <0>        -0.2572
      5 C4          0.0336   -2.0740    0.7480 C.2       1 <0>         0.0819
      6 N2          0.0245   -0.8277    1.1331 N.2       1 <0>        -0.2709
      7 C5          0.0398   -3.2943   -1.5222 C.2       1 <0>         0.5925
      8 O1          0.0327   -3.1765   -2.7325 O.2       1 <0>        -0.5197
      9 N3          0.0590   -4.5212   -0.9647 N.am      1 <0>        -0.7263
     10 C6          0.0713   -5.7129   -1.8167 C.3       1 <0>         0.2035
     11 C7          0.0920   -6.9477   -0.9531 C.2       1 <0>        -0.1352
     12 C8         -0.9490   -7.6646   -0.4637 C.2       1 <0>        -0.1651
     13 C9         -0.6898   -8.7764    0.3157 C.2       1 <0>        -0.0085
     14 C10         0.5978   -9.1169    0.5675 C.2       1 <0>        -0.7594
     15 S1          1.4941   -7.8504   -0.3156 S.3       1 <0>         0.1869
     16 S2          1.2244  -10.4638    1.5151 S.o2      1 <0>         2.7231
     17 O2          2.5277  -10.0898    1.9401 O.2       1 <0>        -0.9428
     18 O3          0.2000  -10.8278    2.4302 O.2       1 <0>        -0.9434
     19 N4          1.4126  -11.7439    0.4816 N.pl3     1 <0>        -1.0009
     20 C11         2.6816  -11.9342   -0.2252 C.3       1 <0>         0.0896
     21 C12         0.3101  -12.6861    0.2741 C.3       1 <0>         0.0827
     22 C13        -0.0052   -0.3102   -2.5229 C.3       1 <0>         0.3391
     23 F1          0.6376    0.9292   -2.6107 F         1 <0>        -0.1974
     24 F2          0.6628   -1.2400   -3.3268 F         1 <0>        -0.1515
     25 H1          1.0048    1.8381    0.0023 H         1 <0>         0.0899
     26 H2         -0.5450    1.8219   -0.8730 H         1 <0>         0.0976
     27 H3         -0.5280    1.8123    0.9069 H         1 <0>         0.1012
     28 H4          0.0483   -2.9383    1.3955 H         1 <0>         0.1973
     29 H5          0.0647   -4.6152    0.0007 H         1 <0>         0.4030
     30 H6         -0.8215   -5.7217   -2.4420 H         1 <0>         0.1008
     31 H7          0.9583   -5.6976   -2.4501 H         1 <0>         0.0924
     32 H8         -1.9659   -7.3714   -0.6792 H         1 <0>         0.1487
     33 H9         -1.5011   -9.3648    0.7182 H         1 <0>         0.1505
     34 H10         3.3427  -12.5578    0.3765 H         1 <0>         0.0658
     35 H11         2.4949  -12.4208   -1.1825 H         1 <0>         0.0775
     36 H12         3.1514  -10.9655   -0.3956 H         1 <0>         0.0727
     37 H13        -0.5447  -12.3840    0.8792 H         1 <0>         0.0864
     38 H14         0.0274  -12.6884   -0.7786 H         1 <0>         0.0643
     39 H15         0.6274  -13.6868    0.5673 H         1 <0>         0.0714
     40 H16        -1.0359   -0.2099   -2.8631 H         1 <0>         0.1360
@<TRIPOS>BOND
     1    1    2 1
     2    1   25 1
     3    1   26 1
     4    1   27 1
     5    2    6 1
     6    2    3 1
     7    3    4 2
     8    3   22 1
     9    4    5 1
    10    4    7 1
    11    5    6 2
    12    5   28 1
    13    7    8 2
    14    7    9 am
    15    9   10 1
    16    9   29 1
    17   10   11 1
    18   10   30 1
    19   10   31 1
    20   11   15 1
    21   11   12 2
    22   12   13 1
    23   12   32 1
    24   13   14 2
    25   13   33 1
    26   14   15 1
    27   14   16 1
    28   16   17 2
    29   16   18 2
    30   16   19 1
    31   19   20 1
    32   19   21 1
    33   20   34 1
    34   20   35 1
    35   20   36 1
    36   21   37 1
    37   21   38 1
    38   21   39 1
    39   22   23 1
    40   22   24 1
    41   22   40 1
@<TRIPOS>MOLECULE
ZINC00226142
   39    40     0     0     0
SMALL
USER_CHARGES
4-(dimethylthiocarbamoyloxy)-N-(3-nitrophenyl)-benzamide
@<TRIPOS>ATOM
      1 C1         -6.7942   -4.6692   -1.8728 C.3       1 <0>         0.0704
      2 N1         -5.9382   -4.5436   -0.6906 N.pl3     1 <0>        -0.5258
      3 C2         -6.1768   -5.3916    0.4799 C.3       1 <0>         0.0528
      4 C3         -4.9312   -3.6479   -0.6798 C.2       1 <0>         0.4873
      5 S1         -4.6523   -2.6569   -2.0477 S.2       1 <0>        -0.5909
      6 O1         -4.1435   -3.5324    0.4080 O.3       1 <0>        -0.2576
      7 C4         -3.0858   -2.6864    0.3160 C.ar      1 <0>         0.1167
      8 C5         -1.8013   -3.1963    0.1690 C.ar      1 <0>        -0.1052
      9 C6         -0.7256   -2.3415    0.0753 C.ar      1 <0>        -0.0416
     10 C7         -0.9270   -0.9598    0.1278 C.ar      1 <0>        -0.1246
     11 C8         -2.2195   -0.4513    0.2805 C.ar      1 <0>        -0.0725
     12 C9         -3.2904   -1.3127    0.3686 C.ar      1 <0>        -0.0872
     13 C10         0.2231   -0.0400    0.0282 C.2       1 <0>         0.5626
     14 O2          1.3477   -0.4844   -0.0995 O.2       1 <0>        -0.5013
     15 N2          0.0268    1.2924    0.0790 N.am      1 <0>        -0.6654
     16 C11         1.1231    2.1602    0.1075 C.ar      1 <0>         0.1554
     17 C12         0.9958    3.4585   -0.3698 C.ar      1 <0>        -0.0994
     18 C13         2.0803    4.3128   -0.3402 C.ar      1 <0>        -0.0915
     19 C14         3.2921    3.8772    0.1642 C.ar      1 <0>        -0.0747
     20 C15         3.4221    2.5857    0.6405 C.ar      1 <0>        -0.0208
     21 C16         2.3399    1.7276    0.6182 C.ar      1 <0>        -0.0725
     22 N3          4.7207    2.1240    1.1804 N.pl3     1 <0>         0.0260
     23 O3          5.6740    2.8816    1.2049 O.2       1 <0>        -0.1554
     24 O4          4.8359    0.9864    1.6001 O.3       1 <0>        -0.1510
     25 H1         -6.3709   -5.4103   -2.5508 H         1 <0>         0.0821
     26 H2         -7.7919   -4.9842   -1.5672 H         1 <0>         0.0896
     27 H3         -6.8567   -3.7064   -2.3801 H         1 <0>         0.1116
     28 H4         -5.4460   -5.1568    1.2538 H         1 <0>         0.0933
     29 H5         -7.1814   -5.2096    0.8617 H         1 <0>         0.0844
     30 H6         -6.0806   -6.4394    0.1953 H         1 <0>         0.0846
     31 H7         -1.6465   -4.2644    0.1286 H         1 <0>         0.1423
     32 H8          0.2723   -2.7386   -0.0388 H         1 <0>         0.1514
     33 H9         -2.3789    0.6159    0.3258 H         1 <0>         0.1360
     34 H10        -4.2901   -0.9204    0.4825 H         1 <0>         0.1398
     35 H11        -0.8750    1.6496    0.0918 H         1 <0>         0.4186
     36 H12         0.0496    3.7995   -0.7631 H         1 <0>         0.1480
     37 H13         1.9819    5.3223   -0.7112 H         1 <0>         0.1545
     38 H14         4.1387    4.5474    0.1865 H         1 <0>         0.1562
     39 H15         2.4408    0.7203    0.9945 H         1 <0>         0.1736
@<TRIPOS>BOND
     1    1    2 1
     2    1   25 1
     3    1   26 1
     4    1   27 1
     5    2    3 1
     6    2    4 1
     7    3   28 1
     8    3   29 1
     9    3   30 1
    10    4    5 2
    11    4    6 1
    12    6    7 1
    13    7   12 ar
    14    7    8 ar
    15    8    9 ar
    16    8   31 1
    17    9   10 ar
    18    9   32 1
    19   10   11 ar
    20   10   13 1
    21   11   12 ar
    22   11   33 1
    23   12   34 1
    24   13   14 2
    25   13   15 am
    26   15   16 1
    27   15   35 1
    28   16   21 ar
    29   16   17 ar
    30   17   18 ar
    31   17   36 1
    32   18   19 ar
    33   18   37 1
    34   19   20 ar
    35   19   38 1
    36   20   21 ar
    37   20   22 1
    38   21   39 1
    39   22   23 2
    40   22   24 1
@<TRIPOS>MOLECULE
ZINC09668490
   43    45     0     0     0
SMALL
USER_CHARGES
2-benzo[1,3]dioxol-5-yloxy-N-[5-(1,1-dimethylpropyl)-1,3,4-thiadiazol-2-yl]-acetamide
@<TRIPOS>ATOM
      1 C1         14.8131   -3.5249    5.6868 C.3       1 <0>        -0.1559
      2 C2         13.4730   -3.1760    5.0362 C.3       1 <0>        -0.1097
      3 C3         12.3447   -3.3866    6.0479 C.3       1 <0>         0.0353
      4 C4         12.5729   -2.4834    7.2616 C.3       1 <0>        -0.1415
      5 C5         12.3284   -4.8493    6.4965 C.3       1 <0>        -0.1543
      6 C6         11.0248   -3.0430    5.4071 C.2       1 <0>         0.0680
      7 N1         10.6079   -1.9066    4.8853 N.2       1 <0>        -0.2424
      8 N2          9.4514   -1.8127    4.3882 N.2       1 <0>        -0.2880
      9 C7          8.6148   -2.8362    4.3677 C.2       1 <0>         0.2573
     10 S1          9.5761   -4.0594    5.1454 S.3       1 <0>         0.0275
     11 N3          7.3194   -2.9122    3.8672 N.am      1 <0>        -0.6109
     12 C8          6.7514   -1.8293    3.3003 C.2       1 <0>         0.5083
     13 O1          7.3700   -0.7887    3.2267 O.2       1 <0>        -0.4361
     14 C9          5.3478   -1.9116    2.7580 C.3       1 <0>         0.0505
     15 O2          4.9730   -0.6453    2.2122 O.3       1 <0>        -0.2826
     16 C10         3.7266   -0.5480    1.6775 C.ar      1 <0>         0.1421
     17 C11         2.8836   -1.6495    1.6793 C.ar      1 <0>        -0.2012
     18 C12         1.6162   -1.5528    1.1364 C.ar      1 <0>        -0.0577
     19 C13         1.1842   -0.3557    0.5893 C.ar      1 <0>        -0.0025
     20 C14         2.0286    0.7517    0.5869 C.ar      1 <0>         0.0773
     21 C15         3.2986    0.6524    1.1313 C.ar      1 <0>        -0.1286
     22 O3          1.3763    1.7966   -0.0014 O.3       1 <0>        -0.3036
     23 C16        -0.0175    1.4356    0.0099 C.3       1 <0>         0.2134
     24 O4          0.0021   -0.0041    0.0020 O.3       1 <0>        -0.3072
     25 H1         15.6169   -3.3749    4.9660 H         1 <0>         0.0604
     26 H2         14.9757   -2.8815    6.5514 H         1 <0>         0.0624
     27 H3         14.8015   -4.5670    6.0064 H         1 <0>         0.0603
     28 H4         13.3105   -3.8195    4.1715 H         1 <0>         0.0664
     29 H5         13.4846   -2.1340    4.7166 H         1 <0>         0.0765
     30 H6         11.7691   -2.6334    7.9824 H         1 <0>         0.0595
     31 H7         13.5276   -2.7320    7.7251 H         1 <0>         0.0775
     32 H8         12.5845   -1.4414    6.9420 H         1 <0>         0.0698
     33 H9         12.1659   -5.4927    5.6319 H         1 <0>         0.0639
     34 H10        13.2831   -5.0978    6.9600 H         1 <0>         0.0828
     35 H11        11.5246   -4.9993    7.2173 H         1 <0>         0.0636
     36 H12         6.8247   -3.7445    3.9261 H         1 <0>         0.4303
     37 H13         4.6624   -2.1777    3.5627 H         1 <0>         0.1062
     38 H14         5.3039   -2.6711    1.9774 H         1 <0>         0.1063
     39 H15         3.2182   -2.5839    2.1051 H         1 <0>         0.1439
     40 H16         0.9616   -2.4118    1.1389 H         1 <0>         0.1420
     41 H17         3.9551    1.5099    1.1304 H         1 <0>         0.1483
     42 H18        -0.5191    1.8168   -0.8796 H         1 <0>         0.1350
     43 H19        -0.5019    1.8071    0.9129 H         1 <0>         0.0874
@<TRIPOS>BOND
     1    1    2 1
     2    1   25 1
     3    1   26 1
     4    1   27 1
     5    2    3 1
     6    2   28 1
     7    2   29 1
     8    3    4 1
     9    3    5 1
    10    3    6 1
    11    4   30 1
    12    4   31 1
    13    4   32 1
    14    5   33 1
    15    5   34 1
    16    5   35 1
    17    6   10 1
    18    6    7 2
    19    7    8 1
    20    8    9 2
    21    9   10 1
    22    9   11 1
    23   11   12 am
    24   11   36 1
    25   12   13 2
    26   12   14 1
    27   14   15 1
    28   14   37 1
    29   14   38 1
    30   15   16 1
    31   16   21 ar
    32   16   17 ar
    33   17   18 ar
    34   17   39 1
    35   18   19 ar
    36   18   40 1
    37   19   24 1
    38   19   20 ar
    39   20   21 ar
    40   20   22 1
    41   21   41 1
    42   22   23 1
    43   23   24 1
    44   23   42 1
    45   23   43 1
@<TRIPOS>MOLECULE
ZINC32779112
   37    39     0     0     0
SMALL
USER_CHARGES
2-[[3-(3-chlorophenyl)-1,2,4-oxadiazol-5-yl]methylsulfanyl]-N-(5-methylisoxazol-3-yl)acetamide
@<TRIPOS>ATOM
      1 C1          2.5003    1.5459   -0.0140 C.3       1 <0>        -0.0795
      2 C2          1.0414    1.9233    0.0024 C.2       1 <0>        -0.0168
      3 C3         -0.0126    1.0758    0.0080 C.2       1 <0>        -0.2316
      4 C4         -1.1432    1.9353    0.0171 C.2       1 <0>         0.2499
      5 N1         -0.6740    3.1554    0.0255 N.2       1 <0>        -0.3888
      6 O1          0.5351    3.1648    0.0140 O.3       1 <0>         0.0967
      7 N2         -2.4851    1.5540    0.0204 N.am      1 <0>        -0.6413
      8 C5         -2.8143    0.2471    0.0146 C.2       1 <0>         0.5443
      9 O2         -1.9439   -0.5974    0.0065 O.2       1 <0>        -0.4924
     10 C6         -4.2639   -0.1648    0.0181 C.3       1 <0>        -0.1334
     11 S1         -4.3781   -1.9752    0.0087 S.3       1 <0>        -0.1251
     12 C7         -6.1623   -2.3024    0.0140 C.3       1 <0>        -0.0299
     13 C8         -6.4002   -3.7905    0.0068 C.2       1 <0>         0.1994
     14 N3         -6.5135   -4.5652    1.0568 N.2       1 <0>        -0.4519
     15 C9         -6.7196   -5.8096    0.5693 C.2       1 <0>         0.2153
     16 N4         -6.7113   -5.7195   -0.7351 N.2       1 <0>        -0.3625
     17 O3         -6.5293   -4.5687   -1.0723 O.3       1 <0>         0.0979
     18 C10        -6.9125   -7.0470    1.3658 C.ar      1 <0>        -0.0130
     19 C11        -7.1099   -8.2680    0.7239 C.ar      1 <0>        -0.0783
     20 C12        -7.2884   -9.4160    1.4687 C.ar      1 <0>        -0.1064
     21 C13        -7.2717   -9.3569    2.8505 C.ar      1 <0>        -0.0887
     22 C14        -7.0756   -8.1472    3.4939 C.ar      1 <0>        -0.0388
     23 C15        -6.8911   -6.9928    2.7575 C.ar      1 <0>        -0.0661
     24 Cl1        -7.0547   -8.0814    5.2285 Cl        1 <0>        -0.0568
     25 H1          2.5955    0.4500   -0.0208 H         1 <0>         0.0954
     26 H2          2.9940    1.9513    0.8815 H         1 <0>         0.0893
     27 H3          2.9763    1.9609   -0.9147 H         1 <0>         0.0893
     28 H4          0.0021   -0.0041    0.0020 H         1 <0>         0.1894
     29 H5         -3.2745    2.3200    0.0277 H         1 <0>         0.4480
     30 H6         -4.7547    0.2289    0.9204 H         1 <0>         0.1267
     31 H7         -4.7619    0.2387   -0.8759 H         1 <0>         0.1268
     32 H8         -6.6129   -1.8634    0.9164 H         1 <0>         0.1344
     33 H9         -6.6201   -1.8536   -0.8799 H         1 <0>         0.1281
     34 H10        -7.1229   -8.3158   -0.3550 H         1 <0>         0.1385
     35 H11        -7.4411  -10.3626    0.9716 H         1 <0>         0.1434
     36 H12        -7.4118  -10.2578    3.4294 H         1 <0>         0.1415
     37 H13        -6.7340   -6.0498    3.2599 H         1 <0>         0.1473
@<TRIPOS>BOND
     1    1    2 1
     2    1   25 1
     3    1   26 1
     4    1   27 1
     5    2    6 1
     6    2    3 2
     7    3    4 1
     8    3   28 1
     9    4    5 2
    10    4    7 1
    11    5    6 1
    12    7    8 am
    13    7   29 1
    14    8    9 2
    15    8   10 1
    16   10   11 1
    17   10   30 1
    18   10   31 1
    19   11   12 1
    20   12   13 1
    21   12   32 1
    22   12   33 1
    23   13   17 1
    24   13   14 2
    25   14   15 1
    26   15   16 2
    27   15   18 1
    28   16   17 1
    29   18   23 ar
    30   18   19 ar
    31   19   20 ar
    32   19   34 1
    33   20   21 ar
    34   20   35 1
    35   21   22 ar
    36   21   36 1
    37   22   23 ar
    38   22   24 1
    39   23   37 1
@<TRIPOS>MOLECULE
ZINC49045955
   44    46     0     0     0
SMALL
USER_CHARGES

@<TRIPOS>ATOM
      1 C1         -2.8288    0.2929   -0.1875 C.3       1 <0>        -0.0750
      2 C2         -2.6130   -1.1691   -0.4829 C.2       1 <0>         0.2936
      3 N1         -1.9272   -1.5076   -1.5702 N.2       1 <0>        -0.5441
      4 C3         -1.7097   -2.7704   -1.8743 C.2       1 <0>         0.4088
      5 C4         -2.2400   -3.8177   -0.9873 C.2       1 <0>         0.4744
      6 O1         -2.0616   -4.9990   -1.2308 O.2       1 <0>        -0.5114
      7 N2         -2.9321   -3.4265    0.1084 N.am      1 <0>        -0.3843
      8 N3         -3.1014   -2.0543    0.3406 N.2       1 <0>        -0.2888
      9 C5         -3.4882   -4.4160    1.0345 C.3       1 <0>         0.1865
     10 H1         -3.2466   -5.4190    0.6827 H         1 <0>         0.1145
     11 C6         -5.0078   -4.2521    1.1040 C.3       1 <0>        -0.1560
     12 C7         -2.8883   -4.2055    2.4262 C.3       1 <0>        -0.1671
     13 C8         -1.9389   -5.2818    2.9565 C.3       1 <0>        -0.1790
     14 C9         -3.3458   -5.1467    3.5424 C.3       1 <0>        -0.1631
     15 N4         -0.9948   -3.1067   -3.0093 N.pl3     1 <0>        -0.6029
     16 C10        -0.6054   -2.1103   -3.9119 C.ar      1 <0>         0.1233
     17 C11        -1.2259   -0.8619   -3.8965 C.ar      1 <0>        -0.0549
     18 C12        -0.8084    0.0920   -4.8069 C.ar      1 <0>        -0.1283
     19 C13         0.2078   -0.2228   -5.7001 C.ar      1 <0>         0.3125
     20 N5          0.7742   -1.4173   -5.6872 N.ar      1 <0>        -0.4801
     21 C14         0.4067   -2.3502   -4.8295 C.ar      1 <0>         0.0437
     22 C15         1.0895   -3.6935   -4.8515 C.3       1 <0>         0.5178
     23 F1          0.1669   -4.6798   -5.2163 F         1 <0>        -0.1698
     24 F2          2.1370   -3.6690   -5.7786 F         1 <0>        -0.1547
     25 F3          1.5988   -3.9786   -3.5801 F         1 <0>        -0.1678
     26 O2          0.6241    0.7072   -6.5973 O.3       1 <0>        -0.2991
     27 C16         1.6725    0.3241   -7.4895 C.3       1 <0>         0.0356
     28 H2         -2.0067    0.6653    0.4236 H         1 <0>         0.0912
     29 H3         -2.8677    0.8507   -1.1232 H         1 <0>         0.0933
     30 H4         -3.7681    0.4200    0.3506 H         1 <0>         0.0910
     31 H5         -5.4351   -4.4021    0.1126 H         1 <0>         0.0590
     32 H6         -5.4215   -4.9884    1.7932 H         1 <0>         0.0795
     33 H7         -5.2493   -3.2492    1.4559 H         1 <0>         0.0748
     34 H8         -2.6771   -3.1706    2.6955 H         1 <0>         0.1168
     35 H9         -1.7417   -6.1399    2.3139 H         1 <0>         0.0974
     36 H10        -1.1028   -4.9551    3.5747 H         1 <0>         0.0970
     37 H11        -3.4352   -4.7310    4.5461 H         1 <0>         0.1010
     38 H12        -4.0741   -5.9158    3.2853 H         1 <0>         0.0989
     39 H13        -0.7632   -4.0330   -3.1799 H         1 <0>         0.4338
     40 H14        -2.0140   -0.6449   -3.1907 H         1 <0>         0.1939
     41 H15        -1.2672    1.0696   -4.8234 H         1 <0>         0.1616
     42 H16         1.3501   -0.5315   -8.0829 H         1 <0>         0.0621
     43 H17         1.9085    1.1572   -8.1517 H         1 <0>         0.1020
     44 H18         2.5585    0.0546   -6.9147 H         1 <0>         0.0623
@<TRIPOS>BOND
     1    1    2 1
     2    1   28 1
     3    1   29 1
     4    1   30 1
     5    2    8 2
     6    2    3 1
     7    3    4 2
     8    4    5 1
     9    4   15 1
    10    5    6 2
    11    5    7 am
    12    7    8 1
    13    7    9 1
    14    9   10 1
    15    9   11 1
    16    9   12 1
    17   11   31 1
    18   11   32 1
    19   11   33 1
    20   12   14 1
    21   12   13 1
    22   12   34 1
    23   13   14 1
    24   13   35 1
    25   13   36 1
    26   14   37 1
    27   14   38 1
    28   15   16 1
    29   15   39 1
    30   16   21 ar
    31   16   17 ar
    32   17   18 ar
    33   17   40 1
    34   18   19 ar
    35   18   41 1
    36   19   20 ar
    37   19   26 1
    38   20   21 ar
    39   21   22 1
    40   22   23 1
    41   22   24 1
    42   22   25 1
    43   26   27 1
    44   27   42 1
    45   27   43 1
    46   27   44 1
@<TRIPOS>MOLECULE
ZINC61511367
   44    46     0     0     0
SMALL
USER_CHARGES

@<TRIPOS>ATOM
      1 C1         -0.0187    1.5258    0.0104 C.3       1 <0>        -0.1730
      2 C2          0.0021   -0.0041    0.0020 C.3       1 <0>         0.1027
      3 N1          0.6878   -0.4765   -1.2033 N.pl3     1 <0>        -0.4798
      4 C3          0.1035   -0.7453   -2.4249 C.ar      1 <0>         0.0553
      5 C4         -1.1950   -0.6773   -2.9115 C.ar      1 <0>        -0.1130
      6 C5         -1.4529   -1.0257   -4.2201 C.ar      1 <0>        -0.0943
      7 C6         -0.4242   -1.4436   -5.0525 C.ar      1 <0>        -0.1277
      8 C7          0.8594   -1.5171   -4.5909 C.ar      1 <0>        -0.0588
      9 C8          1.1448   -1.1681   -3.2682 C.ar      1 <0>         0.0412
     10 N2          2.2863   -1.1362   -2.5336 N.2       1 <0>        -0.4685
     11 C9          2.0192   -0.7261   -1.3280 C.2       1 <0>         0.2549
     12 C10         3.0361   -0.5560   -0.2289 C.3       1 <0>         0.2024
     13 N3          3.1576   -1.8079    0.5221 N.am      1 <0>        -0.7207
     14 C11         4.0146   -1.8914    1.5590 C.2       1 <0>         0.5504
     15 O1          4.6876   -0.9267    1.8713 O.2       1 <0>        -0.5318
     16 C12         4.1360   -3.1427    2.3096 C.2       1 <0>        -0.1854
     17 C13         4.9932   -3.2262    3.3467 C.2       1 <0>        -0.0324
     18 C14         5.1153   -4.4842    4.1014 C.ar      1 <0>        -0.0201
     19 C15         4.3480   -5.5966    3.7419 C.ar      1 <0>        -0.1061
     20 C16         4.4683   -6.7716    4.4534 C.ar      1 <0>        -0.0531
     21 C17         5.3453   -6.8516    5.5211 C.ar      1 <0>        -0.0439
     22 C18         6.1078   -5.7548    5.8833 C.ar      1 <0>        -0.0535
     23 C19         6.0034   -4.5747    5.1777 C.ar      1 <0>        -0.0954
     24 N4          5.4680   -8.1165    6.2799 N.pl3     1 <0>         0.0305
     25 O2          4.8031   -9.0764    5.9665 O.2       1 <0>        -0.1551
     26 O3          6.2331   -8.1899    7.2131 O.3       1 <0>        -0.1539
     27 H1          1.0039    1.9031    0.0027 H         1 <0>         0.0647
     28 H2         -0.5459    1.8868   -0.8726 H         1 <0>         0.0651
     29 H3         -0.5289    1.8773    0.9072 H         1 <0>         0.0808
     30 H4          0.5293   -0.3651    0.8851 H         1 <0>         0.0943
     31 H5         -1.0205   -0.3814    0.0098 H         1 <0>         0.0940
     32 H6         -1.9993   -0.3534   -2.2677 H         1 <0>         0.1226
     33 H7         -2.4625   -0.9733   -4.6000 H         1 <0>         0.1322
     34 H8         -0.6406   -1.7139   -6.0755 H         1 <0>         0.1319
     35 H9          1.6523   -1.8443   -5.2471 H         1 <0>         0.1309
     36 H10         4.0017   -0.2981   -0.6640 H         1 <0>         0.1084
     37 H11         2.7157    0.2408    0.4424 H         1 <0>         0.0922
     38 H12         2.6212   -2.5768    0.2732 H         1 <0>         0.4064
     39 H13         3.5388   -3.9988    2.0325 H         1 <0>         0.1348
     40 H14         5.5905   -2.3701    3.6239 H         1 <0>         0.1485
     41 H15         3.6627   -5.5355    2.9094 H         1 <0>         0.1510
     42 H16         3.8763   -7.6316    4.1770 H         1 <0>         0.1578
     43 H17         6.7895   -5.8247    6.7181 H         1 <0>         0.1588
     44 H18         6.6023   -3.7210    5.4587 H         1 <0>         0.1549
@<TRIPOS>BOND
     1    1    2 1
     2    1   27 1
     3    1   28 1
     4    1   29 1
     5    2    3 1
     6    2   30 1
     7    2   31 1
     8    3   11 1
     9    3    4 1
    10    4    9 ar
    11    4    5 ar
    12    5    6 ar
    13    5   32 1
    14    6    7 ar
    15    6   33 1
    16    7    8 ar
    17    7   34 1
    18    8    9 ar
    19    8   35 1
    20    9   10 1
    21   10   11 2
    22   11   12 1
    23   12   13 1
    24   12   36 1
    25   12   37 1
    26   13   14 am
    27   13   38 1
    28   14   15 2
    29   14   16 1
    30   16   17 2
    31   16   39 1
    32   17   18 1
    33   17   40 1
    34   18   23 ar
    35   18   19 ar
    36   19   20 ar
    37   19   41 1
    38   20   21 ar
    39   20   42 1
    40   21   22 ar
    41   21   24 1
    42   22   23 ar
    43   22   43 1
    44   23   44 1
    45   24   25 2
    46   24   26 1
@<TRIPOS>MOLECULE
ZINC01269651
   44    46     0     0     0
SMALL
USER_CHARGES
5-(3-ethoxyphenyl)-4-[(4-hydroxy-3-methoxy-phenyl)methyleneamino]-2H-1,2,4-triazole-3-thione
@<TRIPOS>ATOM
      1 C1          3.7281   -0.8784   -0.0383 C.3       1 <0>        -0.1542
      2 C2          2.3078   -0.3098   -0.0216 C.3       1 <0>         0.0527
      3 O1          2.3663    1.1180   -0.0145 O.3       1 <0>        -0.3108
      4 C3          1.1818    1.7840    0.0004 C.ar      1 <0>         0.1338
      5 C4         -0.0126    1.0758    0.0080 C.ar      1 <0>        -0.1788
      6 C5         -1.2203    1.7483    0.0174 C.ar      1 <0>        -0.0738
      7 C6         -1.2464    3.1282    0.0308 C.ar      1 <0>        -0.1267
      8 C7         -0.0514    3.8480    0.0237 C.ar      1 <0>        -0.0117
      9 C8          1.1663    3.1685    0.0084 C.ar      1 <0>        -0.1006
     10 C9         -0.0758    5.3275    0.0328 C.2       1 <0>         0.3307
     11 N1          0.9312    6.1078   -0.2461 N.2       1 <0>        -0.2564
     12 N2          0.4985    7.4352   -0.1236 N.pl3     1 <0>        -0.4659
     13 H1          1.0356    8.2293   -0.2713 H         1 <0>         0.4734
     14 C10        -0.8007    7.4074    0.2378 C.2       1 <0>         0.4718
     15 S1         -1.8010    8.7683    0.5175 S.2       1 <0>        -0.5543
     16 N3         -1.1711    6.1149    0.3326 N.pl3     1 <0>        -0.3638
     17 N4         -2.4464    5.6497    0.6792 N.2       1 <0>        -0.2331
     18 C11        -2.7417    5.4323    1.9248 C.2       1 <0>         0.2166
     19 C12        -4.0833    4.9429    2.2894 C.ar      1 <0>        -0.0561
     20 C13        -5.0406    4.7178    1.2966 C.ar      1 <0>        -0.0760
     21 C14        -6.2933    4.2549    1.6395 C.ar      1 <0>        -0.1157
     22 C15        -6.6102    4.0217    2.9700 C.ar      1 <0>         0.1160
     23 C16        -5.6627    4.2494    3.9658 C.ar      1 <0>         0.0971
     24 C17        -4.4031    4.7084    3.6295 C.ar      1 <0>        -0.1476
     25 O2         -5.9771    4.0196    5.2688 O.3       1 <0>        -0.3031
     26 C18        -4.9572    4.2740    6.2368 C.3       1 <0>         0.0211
     27 O3         -7.8483    3.5703    3.3029 O.3       1 <0>        -0.4846
     28 H2          3.6834   -1.9675   -0.0437 H         1 <0>         0.0814
     29 H3          4.2479   -0.5316   -0.9314 H         1 <0>         0.0683
     30 H4          4.2649   -0.5412    0.8485 H         1 <0>         0.0678
     31 H5          1.7880   -0.6566    0.8715 H         1 <0>         0.0651
     32 H6          1.7710   -0.6470   -0.9084 H         1 <0>         0.0656
     33 H7          0.0021   -0.0041    0.0020 H         1 <0>         0.1379
     34 H8         -2.1461    1.1922    0.0184 H         1 <0>         0.1393
     35 H9         -2.1917    3.6505    0.0429 H         1 <0>         0.1410
     36 H10         2.0946    3.7206    0.0025 H         1 <0>         0.1464
     37 H11        -2.0043    5.6101    2.6936 H         1 <0>         0.1338
     38 H12        -4.7979    4.9024    0.2606 H         1 <0>         0.1458
     39 H13        -7.0310    4.0773    0.8709 H         1 <0>         0.1475
     40 H14        -3.6676    4.8849    4.4004 H         1 <0>         0.1422
     41 H15        -5.3382    4.0506    7.2333 H         1 <0>         0.1056
     42 H16        -4.0930    3.6433    6.0285 H         1 <0>         0.0580
     43 H17        -4.6624    5.3222    6.1871 H         1 <0>         0.0588
     44 H18        -8.4893    4.2730    3.4776 H         1 <0>         0.3957
@<TRIPOS>BOND
     1    1    2 1
     2    1   28 1
     3    1   29 1
     4    1   30 1
     5    2    3 1
     6    2   31 1
     7    2   32 1
     8    3    4 1
     9    4    9 ar
    10    4    5 ar
    11    5    6 ar
    12    5   33 1
    13    6    7 ar
    14    6   34 1
    15    7    8 ar
    16    7   35 1
    17    8    9 ar
    18    8   10 1
    19    9   36 1
    20   10   16 1
    21   10   11 2
    22   11   12 1
    23   12   13 1
    24   12   14 1
    25   14   15 2
    26   14   16 1
    27   16   17 1
    28   17   18 2
    29   18   19 1
    30   18   37 1
    31   19   24 ar
    32   19   20 ar
    33   20   21 ar
    34   20   38 1
    35   21   22 ar
    36   21   39 1
    37   22   23 ar
    38   22   27 1
    39   23   24 ar
    40   23   25 1
    41   24   40 1
    42   25   26 1
    43   26   41 1
    44   26   42 1
    45   26   43 1
    46   27   44 1
@<TRIPOS>MOLECULE
ZINC08273117
   47    49     0     0     0
SMALL
USER_CHARGES
N'-[4-(2,5-dimethylphenyl)-4-oxo-butanoyl]benzo[1,3]dioxole-5-carbohydrazide
@<TRIPOS>ATOM
      1 C1          0.2631   -7.3235   -0.2452 C.3       1 <0>        -0.1160
      2 C2         -1.0435   -6.5827   -0.1233 C.ar      1 <0>        -0.1058
      3 C3         -2.1958   -7.2675    0.2223 C.ar      1 <0>        -0.0815
      4 C4         -3.4005   -6.5963    0.3364 C.ar      1 <0>        -0.1328
      5 C5         -3.4616   -5.2379    0.1065 C.ar      1 <0>        -0.0272
      6 C6         -2.3019   -4.5388   -0.2426 C.ar      1 <0>        -0.1737
      7 C7         -1.0891   -5.2254   -0.3610 C.ar      1 <0>        -0.0687
      8 C8         -2.3584   -3.0892   -0.4901 C.2       1 <0>         0.3969
      9 O1         -3.4270   -2.5160   -0.4941 O.2       1 <0>        -0.4457
     10 C9         -1.0883   -2.3171   -0.7385 C.3       1 <0>        -0.1397
     11 C10        -1.4243   -0.8418   -0.9654 C.3       1 <0>        -0.1235
     12 C11        -0.1542   -0.0698   -1.2138 C.2       1 <0>         0.5176
     13 O2          0.9146   -0.6431   -1.2098 O.2       1 <0>        -0.5383
     14 N1         -0.2059    1.2578   -1.4405 N.am      1 <0>        -0.5205
     15 N2          0.9749    1.9755   -1.6714 N.am      1 <0>        -0.5194
     16 C12         0.9231    3.3031   -1.8981 C.2       1 <0>         0.5687
     17 O3         -0.1483    3.8778   -1.9021 O.2       1 <0>        -0.5289
     18 C13         2.1672    4.0593   -2.1414 C.ar      1 <0>        -0.1241
     19 C14         3.3997    3.4017   -2.1314 C.ar      1 <0>        -0.0698
     20 C15         4.5593    4.1080   -2.3646 C.ar      1 <0>        -0.1062
     21 C16         4.5094    5.4758   -2.5985 C.ar      1 <0>         0.0679
     22 C17         3.2820    6.1397   -2.6039 C.ar      1 <0>         0.0259
     23 C18         2.1156    5.4356   -2.3765 C.ar      1 <0>        -0.0355
     24 O4          3.5041    7.4635   -2.8539 O.3       1 <0>        -0.3024
     25 C19         4.9049    7.6729   -2.5953 C.3       1 <0>         0.2117
     26 O5          5.4960    6.3842   -2.8454 O.3       1 <0>        -0.3027
     27 C20        -4.7745   -4.5087    0.2317 C.3       1 <0>        -0.1242
     28 H1          0.3851   -7.6790   -1.2684 H         1 <0>         0.0723
     29 H2          1.0853   -6.6540    0.0074 H         1 <0>         0.0691
     30 H3          0.2639   -8.1735    0.4372 H         1 <0>         0.0683
     31 H4         -2.1544   -8.3314    0.4036 H         1 <0>         0.1276
     32 H5         -4.2953   -7.1377    0.6057 H         1 <0>         0.1295
     33 H6         -0.1900   -4.6931   -0.6343 H         1 <0>         0.1334
     34 H7         -0.6289   -2.6826   -1.5480 H         1 <0>         0.0983
     35 H8         -0.4309   -2.4113    0.1259 H         1 <0>         0.1101
     36 H9         -1.9250   -0.4434   -0.0830 H         1 <0>         0.1101
     37 H10        -2.0817   -0.7477   -1.8298 H         1 <0>         0.1097
     38 H11        -1.0611    1.7156   -1.4477 H         1 <0>         0.4356
     39 H12         1.8297    1.5170   -1.6682 H         1 <0>         0.4324
     40 H13         3.4431    2.3388   -1.9451 H         1 <0>         0.1436
     41 H14         5.5108    3.5970   -2.3609 H         1 <0>         0.1477
     42 H15         1.1650    5.9483   -2.3802 H         1 <0>         0.1529
     43 H16         5.0626    7.9718   -1.5591 H         1 <0>         0.0905
     44 H17         5.3144    8.4203   -3.2749 H         1 <0>         0.1380
     45 H18        -5.2286   -4.4063   -0.7538 H         1 <0>         0.0767
     46 H19        -5.4426   -5.0725    0.8828 H         1 <0>         0.0607
     47 H20        -4.6018   -3.5199    0.6568 H         1 <0>         0.0912
@<TRIPOS>BOND
     1    1    2 1
     2    1   28 1
     3    1   29 1
     4    1   30 1
     5    2    7 ar
     6    2    3 ar
     7    3    4 ar
     8    3   31 1
     9    4    5 ar
    10    4   32 1
    11    5    6 ar
    12    5   27 1
    13    6    7 ar
    14    6    8 1
    15    7   33 1
    16    8    9 2
    17    8   10 1
    18   10   11 1
    19   10   34 1
    20   10   35 1
    21   11   12 1
    22   11   36 1
    23   11   37 1
    24   12   13 2
    25   12   14 am
    26   14   15 1
    27   14   38 1
    28   15   16 am
    29   15   39 1
    30   16   17 2
    31   16   18 1
    32   18   23 ar
    33   18   19 ar
    34   19   20 ar
    35   19   40 1
    36   20   21 ar
    37   20   41 1
    38   21   26 1
    39   21   22 ar
    40   22   23 ar
    41   22   24 1
    42   23   42 1
    43   24   25 1
    44   25   26 1
    45   25   43 1
    46   25   44 1
    47   27   45 1
    48   27   46 1
    49   27   47 1
@<TRIPOS>MOLECULE
ZINC21877053
   41    43     0     0     0
SMALL
USER_CHARGES
4-chloro-N'-[3-(5-phenyl-1,3,4-oxadiazol-2-yl)propanoyl]benzohydrazide
@<TRIPOS>ATOM
      1 C1         12.2109   -1.3021    2.8686 C.ar      1 <0>        -0.0915
      2 C2         12.2810   -1.3403    1.4874 C.ar      1 <0>        -0.1198
      3 C3         11.2768   -0.7777    0.7269 C.ar      1 <0>        -0.0656
      4 C4         10.1885   -0.1691    1.3538 C.ar      1 <0>        -0.0309
      5 C5         10.1268   -0.1289    2.7474 C.ar      1 <0>        -0.0833
      6 C6         11.1348   -0.7003    3.4963 C.ar      1 <0>        -0.1208
      7 C7          9.1088    0.4358    0.5450 C.2       1 <0>         0.2136
      8 N1          9.0445    0.4717   -0.7652 N.2       1 <0>        -0.2744
      9 N2          7.9625    1.0705   -1.1206 N.2       1 <0>        -0.2742
     10 C8          7.3036    1.4455   -0.0599 C.2       1 <0>         0.1637
     11 O1          8.0065    1.0523    1.0162 O.3       1 <0>        -0.2183
     12 C9          5.9884    2.1812   -0.0434 C.3       1 <0>        -0.0082
     13 C10         4.8392    1.1712   -0.0379 C.3       1 <0>        -0.1316
     14 C11         3.5240    1.9069   -0.0213 C.2       1 <0>         0.5228
     15 O2          3.5076    3.1196   -0.0147 O.2       1 <0>        -0.5422
     16 N3          2.3661    1.2172   -0.0140 N.am      1 <0>        -0.5304
     17 N4          1.1435    1.9011    0.0014 N.am      1 <0>        -0.5294
     18 C12        -0.0144    1.2114    0.0087 C.2       1 <0>         0.5640
     19 O3          0.0021   -0.0041    0.0020 O.2       1 <0>        -0.5376
     20 C13        -1.3042    1.9329    0.0187 C.ar      1 <0>        -0.1252
     21 C14        -1.3262    3.3288    0.0322 C.ar      1 <0>        -0.0726
     22 C15        -2.5328    3.9964    0.0348 C.ar      1 <0>        -0.1151
     23 C16        -3.7212    3.2849    0.0370 C.ar      1 <0>        -0.0082
     24 C17        -3.7056    1.8999    0.0299 C.ar      1 <0>        -0.1156
     25 C18        -2.5053    1.2212    0.0206 C.ar      1 <0>        -0.0420
     26 Cl1        -5.2362    4.1324    0.0482 Cl        1 <0>        -0.0551
     27 H1         12.9995   -1.7442    3.4594 H         1 <0>         0.1322
     28 H2         13.1235   -1.8119    1.0035 H         1 <0>         0.1365
     29 H3         11.3325   -0.8085   -0.3512 H         1 <0>         0.1408
     30 H4          9.2897    0.3449    3.2386 H         1 <0>         0.1319
     31 H5         11.0860   -0.6738    4.5749 H         1 <0>         0.1341
     32 H6          5.9301    2.8079    0.8587 H         1 <0>         0.1110
     33 H7          5.9130    2.8176   -0.9374 H         1 <0>         0.1259
     34 H8          4.8975    0.5446   -0.9401 H         1 <0>         0.1139
     35 H9          4.9147    0.5347    0.8561 H         1 <0>         0.1086
     36 H10         2.3810    0.1173   -0.0201 H         1 <0>         0.4615
     37 H11         1.1286    3.0010    0.0075 H         1 <0>         0.4568
     38 H12        -0.4003    3.8846    0.0357 H         1 <0>         0.1364
     39 H13        -2.5512    5.0763    0.0400 H         1 <0>         0.1443
     40 H14        -4.6354    1.3504    0.0313 H         1 <0>         0.1450
     41 H15        -2.4944    0.1412    0.0143 H         1 <0>         0.1490
@<TRIPOS>BOND
     1    1    6 ar
     2    1    2 ar
     3    1   27 1
     4    2    3 ar
     5    2   28 1
     6    3    4 ar
     7    3   29 1
     8    4    5 ar
     9    4    7 1
    10    5    6 ar
    11    5   30 1
    12    6   31 1
    13    7   11 1
    14    7    8 2
    15    8    9 1
    16    9   10 2
    17   10   11 1
    18   10   12 1
    19   12   13 1
    20   12   32 1
    21   12   33 1
    22   13   14 1
    23   13   34 1
    24   13   35 1
    25   14   15 2
    26   14   16 am
    27   16   17 1
    28   16   36 1
    29   17   18 am
    30   17   37 1
    31   18   19 2
    32   18   20 1
    33   20   25 ar
    34   20   21 ar
    35   21   22 ar
    36   21   38 1
    37   22   23 ar
    38   22   39 1
    39   23   24 ar
    40   23   26 1
    41   24   25 ar
    42   24   40 1
    43   25   41 1
@<TRIPOS>MOLECULE
ZINC42074133
   46    48     0     0     0
SMALL
USER_CHARGES

@<TRIPOS>ATOM
      1 C1          1.2070    1.2353   -0.1713 C.3       1 <0>        -0.1171
      2 C2          0.5778   -0.1313   -0.0842 C.ar      1 <0>        -0.0665
      3 C3         -0.0267   -0.6856   -1.1980 C.ar      1 <0>        -0.1294
      4 C4         -0.6049   -1.9394   -1.1227 C.ar      1 <0>        -0.1001
      5 C5         -0.5809   -2.6425    0.0660 C.ar      1 <0>        -0.1308
      6 C6          0.0254   -2.0887    1.1864 C.ar      1 <0>         0.1419
      7 C7          0.6104   -0.8310    1.1057 C.ar      1 <0>        -0.1100
      8 C8          1.2743   -0.2286    2.3170 C.3       1 <0>        -0.1206
      9 N1          0.0512   -2.7970    2.3906 N.am      1 <0>        -0.6382
     10 C9         -0.0328   -4.1421    2.3832 C.2       1 <0>         0.5066
     11 O1         -0.0297   -4.7446    1.3295 O.2       1 <0>        -0.4937
     12 C10        -0.1296   -4.8914    3.6715 C.2       1 <0>         0.5121
     13 O2         -0.1327   -4.2890    4.7251 O.2       1 <0>        -0.5143
     14 N2         -0.2135   -6.2365    3.6641 N.am      1 <0>        -0.6951
     15 C11        -0.3085   -6.9715    4.9279 C.3       1 <0>         0.1205
     16 C12        -0.3913   -8.4719    4.6402 C.3       1 <0>         0.0436
     17 O3          0.8289   -8.9097    4.0391 O.3       1 <0>        -0.3070
     18 C13         0.9207  -10.2279    3.7180 C.ar      1 <0>         0.1431
     19 C14        -0.1446  -11.0790    3.9718 C.ar      1 <0>        -0.1993
     20 C15        -0.0534  -12.4192    3.6462 C.ar      1 <0>        -0.0582
     21 C16         1.1020  -12.9160    3.0656 C.ar      1 <0>        -0.0045
     22 C17         2.1729  -12.0634    2.8099 C.ar      1 <0>         0.0755
     23 C18         2.0771  -10.7194    3.1318 C.ar      1 <0>        -0.1335
     24 O4          3.1808  -12.7871    2.2410 O.3       1 <0>        -0.3048
     25 C19         2.8733  -14.1647    2.5253 C.3       1 <0>         0.2136
     26 O5          1.4395  -14.1749    2.6565 O.3       1 <0>        -0.3076
     27 H1          2.2510    1.1363   -0.4687 H         1 <0>         0.0727
     28 H2          0.6741    1.8343   -0.9097 H         1 <0>         0.0690
     29 H3          1.1511    1.7237    0.8016 H         1 <0>         0.0699
     30 H4         -0.0476   -0.1378   -2.1284 H         1 <0>         0.1247
     31 H5         -1.0761   -2.3693   -1.9942 H         1 <0>         0.1276
     32 H6         -1.0332   -3.6214    0.1243 H         1 <0>         0.1443
     33 H7          0.5419    0.3448    2.8853 H         1 <0>         0.0743
     34 H8          1.6782   -1.0241    2.9433 H         1 <0>         0.0637
     35 H9          2.0830    0.4293    1.9987 H         1 <0>         0.0769
     36 H10         0.1294   -2.3205    3.2319 H         1 <0>         0.4230
     37 H11        -0.2111   -6.7180    2.8221 H         1 <0>         0.4181
     38 H12         0.5732   -6.7660    5.5348 H         1 <0>         0.0902
     39 H13        -1.2019   -6.6549    5.4661 H         1 <0>         0.1012
     40 H14        -0.5511   -9.0124    5.5732 H         1 <0>         0.0900
     41 H15        -1.2213   -8.6664    3.9609 H         1 <0>         0.0777
     42 H16        -1.0463  -10.6941    4.4247 H         1 <0>         0.1437
     43 H17        -0.8841  -13.0801    3.8451 H         1 <0>         0.1406
     44 H18         2.9047  -10.0554    2.9303 H         1 <0>         0.1451
     45 H19         3.1871  -14.8052    1.7011 H         1 <0>         0.1344
     46 H20         3.3453  -14.4782    3.4565 H         1 <0>         0.0868
@<TRIPOS>BOND
     1    1    2 1
     2    1   27 1
     3    1   28 1
     4    1   29 1
     5    2    7 ar
     6    2    3 ar
     7    3    4 ar
     8    3   30 1
     9    4    5 ar
    10    4   31 1
    11    5    6 ar
    12    5   32 1
    13    6    7 ar
    14    6    9 1
    15    7    8 1
    16    8   33 1
    17    8   34 1
    18    8   35 1
    19    9   10 am
    20    9   36 1
    21   10   11 2
    22   10   12 1
    23   12   13 2
    24   12   14 am
    25   14   15 1
    26   14   37 1
    27   15   16 1
    28   15   38 1
    29   15   39 1
    30   16   17 1
    31   16   40 1
    32   16   41 1
    33   17   18 1
    34   18   23 ar
    35   18   19 ar
    36   19   20 ar
    37   19   42 1
    38   20   21 ar
    39   20   43 1
    40   21   26 1
    41   21   22 ar
    42   22   23 ar
    43   22   24 1
    44   23   44 1
    45   24   25 1
    46   25   26 1
    47   25   45 1
    48   25   46 1
@<TRIPOS>MOLECULE
ZINC61450506
   48    51     0     0     0
SMALL
USER_CHARGES

@<TRIPOS>ATOM
      1 C1          0.7379    1.7591   -0.1974 C.ar      1 <0>        -0.1082
      2 C2          2.0071    2.3038   -0.1339 C.ar      1 <0>        -0.1081
      3 C3          3.1073    1.4784    0.0023 C.ar      1 <0>        -0.0999
      4 C4          2.9386    0.1081    0.0755 C.ar      1 <0>        -0.0997
      5 C5          1.6698   -0.4363    0.0129 C.ar      1 <0>        -0.0902
      6 C6          0.5693    0.3892   -0.1248 C.ar      1 <0>        -0.0976
      7 C7          1.4860   -1.9300    0.0916 C.3       1 <0>         0.1704
      8 N1          1.5956   -2.3626    1.4870 N.am      1 <0>        -0.7371
      9 C8          1.4642   -3.6668    1.8005 C.2       1 <0>         0.7043
     10 O1          1.2547   -4.4844    0.9252 O.2       1 <0>        -0.5719
     11 N2          1.5650   -4.0648    3.0842 N.am      1 <0>        -0.6710
     12 C9          1.5494   -5.4294    3.3974 C.ar      1 <0>         0.1761
     13 C10         1.9614   -6.3636    2.4581 C.ar      1 <0>        -0.1127
     14 C11         1.9451   -7.7097    2.7694 C.ar      1 <0>        -0.1001
     15 C12         1.5188   -8.1302    4.0162 C.ar      1 <0>        -0.1149
     16 C13         1.1067   -7.2067    4.9579 C.ar      1 <0>        -0.1162
     17 C14         1.1252   -5.8530    4.6561 C.ar      1 <0>         0.1141
     18 N3          0.7129   -4.9135    5.6124 N.pl3     1 <0>        -0.3139
     19 C15         0.3989   -5.1752    6.9011 C.2       1 <0>         0.0604
     20 C16         0.0528   -4.0049    7.4865 C.2       1 <0>        -0.2615
     21 C17         0.1584   -2.9945    6.5248 C.2       1 <0>         0.0642
     22 N4          0.5592   -3.5369    5.4029 N.2       1 <0>        -0.3152
     23 C18         4.1383   -0.7920    0.2230 C.3       1 <0>         0.1412
     24 N5          4.6238   -1.1799   -1.1037 N.pl3     1 <0>        -0.4538
     25 C19         4.2585   -2.2952   -1.8081 C.2       1 <0>        -0.0566
     26 C20         4.9383   -2.2620   -2.9702 C.2       1 <0>        -0.0259
     27 N6          5.6979   -1.1566   -2.9751 N.2       1 <0>        -0.4928
     28 C21         5.5109   -0.5009   -1.8624 C.2       1 <0>         0.1834
     29 H1         -0.1221    2.4044   -0.2994 H         1 <0>         0.1291
     30 H2          2.1388    3.3742   -0.1911 H         1 <0>         0.1291
     31 H3          4.0988    1.9038    0.0512 H         1 <0>         0.1273
     32 H4         -0.4221   -0.0362   -0.1744 H         1 <0>         0.1290
     33 H5          0.5022   -2.1960   -0.2950 H         1 <0>         0.0809
     34 H6          2.2554   -2.4226   -0.5030 H         1 <0>         0.0811
     35 H7          1.7628   -1.7104    2.1853 H         1 <0>         0.4000
     36 H8          1.6484   -3.4058    3.7912 H         1 <0>         0.4189
     37 H9          2.2945   -6.0387    1.4835 H         1 <0>         0.1558
     38 H10         2.2658   -8.4356    2.0369 H         1 <0>         0.1342
     39 H11         1.5076   -9.1836    4.2544 H         1 <0>         0.1355
     40 H12         0.7742   -7.5386    5.9303 H         1 <0>         0.1342
     41 H13         0.4202   -6.1440    7.3777 H         1 <0>         0.1801
     42 H14        -0.2517   -3.8744    8.5144 H         1 <0>         0.1565
     43 H15        -0.0507   -1.9466    6.6820 H         1 <0>         0.1912
     44 H16         4.9265   -0.2620    0.7577 H         1 <0>         0.1038
     45 H17         3.8565   -1.6843    0.7820 H         1 <0>         0.1015
     46 H18         3.5598   -3.0558   -1.4925 H         1 <0>         0.1738
     47 H19         4.8817   -2.9967   -3.7598 H         1 <0>         0.1697
     48 H20         5.9884    0.4293   -1.5921 H         1 <0>         0.2017
@<TRIPOS>BOND
     1    1    6 ar
     2    1    2 ar
     3    1   29 1
     4    2    3 ar
     5    2   30 1
     6    3    4 ar
     7    3   31 1
     8    4    5 ar
     9    4   23 1
    10    5    6 ar
    11    5    7 1
    12    6   32 1
    13    7    8 1
    14    7   33 1
    15    7   34 1
    16    8    9 am
    17    8   35 1
    18    9   10 2
    19    9   11 am
    20   11   12 1
    21   11   36 1
    22   12   17 ar
    23   12   13 ar
    24   13   14 ar
    25   13   37 1
    26   14   15 ar
    27   14   38 1
    28   15   16 ar
    29   15   39 1
    30   16   17 ar
    31   16   40 1
    32   17   18 1
    33   18   22 1
    34   18   19 1
    35   19   20 2
    36   19   41 1
    37   20   21 1
    38   20   42 1
    39   21   22 2
    40   21   43 1
    41   23   24 1
    42   23   44 1
    43   23   45 1
    44   24   28 1
    45   24   25 1
    46   25   26 2
    47   25   46 1
    48   26   27 1
    49   26   47 1
    50   27   28 2
    51   28   48 1
@<TRIPOS>MOLECULE
ZINC06560119
   43    44     0     0     0
SMALL
USER_CHARGES
[2-oxo-2-(1H-pyrrol-2-yl)ethyl] 2-[2-(p-tolyl)vinylsulfonylamino]acetate
@<TRIPOS>ATOM
      1 C1         -4.3813    2.5573    6.9285 C.3       1 <0>        -0.1220
      2 C2         -3.6029    2.1438    5.7061 C.ar      1 <0>        -0.0606
      3 C3         -3.3945    0.8016    5.4438 C.ar      1 <0>        -0.1278
      4 C4         -2.6831    0.4164    4.3261 C.ar      1 <0>        -0.0797
      5 C5         -2.1731    1.3841    3.4598 C.ar      1 <0>        -0.1100
      6 C6         -2.3815    2.7364    3.7335 C.ar      1 <0>        -0.0813
      7 C7         -3.0995    3.1082    4.8515 C.ar      1 <0>        -0.1282
      8 C8         -1.4101    0.9785    2.2605 C.2       1 <0>         0.0710
      9 C9         -0.9267    1.9002    1.4394 C.2       1 <0>        -0.7630
     10 S1         -0.0172    1.4168    0.0098 S.o2      1 <0>         2.6931
     11 O1          0.0021   -0.0041    0.0020 O.2       1 <0>        -0.9541
     12 O2          1.1718    2.1948    0.0027 O.2       1 <0>        -0.9518
     13 N1         -0.8975    1.8855   -1.3122 N.pl3     1 <0>        -1.1125
     14 C10        -1.1248    3.3089   -1.5738 C.3       1 <0>         0.1267
     15 C11        -1.6142    3.4879   -2.9878 C.2       1 <0>         0.4653
     16 O3         -1.7584    2.5252   -3.7036 O.2       1 <0>        -0.4938
     17 O4         -1.8900    4.7168   -3.4521 O.3       1 <0>        -0.3350
     18 C12        -2.3572    4.8139   -4.8234 C.3       1 <0>         0.0470
     19 C13        -2.6135    6.2589   -5.1656 C.2       1 <0>         0.4209
     20 O5         -2.4211    7.1231   -4.3344 O.2       1 <0>        -0.4497
     21 C14        -3.0779    6.6085   -6.4541 C.2       1 <0>        -0.1009
     22 C15        -3.3339    5.7357   -7.4978 C.2       1 <0>        -0.1055
     23 C16        -3.7754    6.5073   -8.5741 C.2       1 <0>        -0.2143
     24 C17        -3.7731    7.8065   -8.1844 C.2       1 <0>         0.0452
     25 N2         -3.3535    7.8819   -6.9049 N.pl3     1 <0>        -0.5154
     26 H1         -3.2610    8.6971   -6.3874 H         1 <0>         0.4258
     27 H2         -3.6981    2.6857    7.7681 H         1 <0>         0.0763
     28 H3         -4.8951    3.4981    6.7311 H         1 <0>         0.0703
     29 H4         -5.1137    1.7872    7.1706 H         1 <0>         0.0706
     30 H5         -3.7898    0.0536    6.1151 H         1 <0>         0.1298
     31 H6         -2.5211   -0.6317    4.1223 H         1 <0>         0.1326
     32 H7         -1.9854    3.4903    3.0692 H         1 <0>         0.1297
     33 H8         -3.2653    4.1544    5.0620 H         1 <0>         0.1289
     34 H9         -1.2463   -0.0687    2.0533 H         1 <0>         0.1465
     35 H10        -1.0905    2.9474    1.6467 H         1 <0>         0.1636
     36 H11        -1.2626    1.2175   -1.9134 H         1 <0>         0.4300
     37 H12        -1.8729    3.6910   -0.8792 H         1 <0>         0.1155
     38 H13        -0.1917    3.8563   -1.4402 H         1 <0>         0.1295
     39 H14        -1.6619    4.4438   -5.4394 H         1 <0>         0.0978
     40 H15        -3.2804    4.2450   -4.9339 H         1 <0>         0.1113
     41 H16        -3.2170    4.6622   -7.4815 H         1 <0>         0.1519
     42 H17        -4.0631    6.1360   -9.5465 H         1 <0>         0.1489
     43 H18        -4.0608    8.6459   -8.8001 H         1 <0>         0.1773
@<TRIPOS>BOND
     1    1    2 1
     2    1   27 1
     3    1   28 1
     4    1   29 1
     5    2    7 ar
     6    2    3 ar
     7    3    4 ar
     8    3   30 1
     9    4    5 ar
    10    4   31 1
    11    5    6 ar
    12    5    8 1
    13    6    7 ar
    14    6   32 1
    15    7   33 1
    16    8    9 2
    17    8   34 1
    18    9   10 1
    19    9   35 1
    20   10   11 2
    21   10   12 2
    22   10   13 1
    23   13   14 1
    24   13   36 1
    25   14   15 1
    26   14   37 1
    27   14   38 1
    28   15   16 2
    29   15   17 1
    30   17   18 1
    31   18   19 1
    32   18   39 1
    33   18   40 1
    34   19   20 2
    35   19   21 1
    36   21   25 1
    37   21   22 2
    38   22   23 1
    39   22   41 1
    40   23   24 2
    41   23   42 1
    42   24   25 1
    43   24   43 1
    44   25   26 1
@<TRIPOS>MOLECULE
ZINC36145758
   51    53     0     0     0
SMALL
USER_CHARGES

@<TRIPOS>ATOM
      1 C1         -2.3974   -0.9686   -0.2530 C.3       1 <0>        -0.1847
      2 C2         -0.8835   -1.1894   -0.2682 C.3       1 <0>         0.0914
      3 H1         -0.3758   -0.2250   -0.2811 H         1 <0>         0.1055
      4 C3         -0.4690   -1.9673    0.9824 C.3       1 <0>         0.0893
      5 N1          0.9913   -2.0752    1.0286 N.pl3     1 <0>        -0.7370
      6 C4          1.6093   -2.7481    2.0867 C.ar      1 <0>         0.2292
      7 C5          0.8385   -3.3194    3.0914 C.ar      1 <0>        -0.1808
      8 C6          1.4488   -3.9841    4.1358 C.ar      1 <0>        -0.0576
      9 C7          2.8334   -4.0814    4.1826 C.ar      1 <0>         0.0722
     10 C8          3.6043   -3.5099    3.1785 C.ar      1 <0>        -0.0447
     11 C9          2.9940   -2.8505    2.1307 C.ar      1 <0>        -0.1798
     12 N2          3.4530   -4.7560    5.2434 N.pl3     1 <0>        -0.3046
     13 C10         3.0643   -5.9348    5.7991 C.2       1 <0>         0.3449
     14 N3          3.9135   -6.2224    6.7668 N.2       1 <0>        -0.5505
     15 C11         4.8383   -5.2666    6.8535 C.2       1 <0>         0.4105
     16 N4          4.6031   -4.3532    5.9415 N.2       1 <0>        -0.2985
     17 O1          5.8655   -5.2445    7.7420 O.3       1 <0>        -0.2689
     18 C12         5.9566   -6.3393    8.6558 C.3       1 <0>         0.0752
     19 C13         7.1665   -6.1406    9.5709 C.3       1 <0>         0.0623
     20 O2          6.9628   -4.9843   10.3855 O.3       1 <0>        -0.3856
     21 C14         8.0407   -4.7075   11.2819 C.3       1 <0>         0.0306
     22 C15         1.8989   -6.7482    5.3918 C.ar      1 <0>        -0.0722
     23 C16         1.6858   -7.0423    4.0443 C.ar      1 <0>        -0.0532
     24 C17         0.5966   -7.8016    3.6706 C.ar      1 <0>        -0.1289
     25 C18        -0.2854   -8.2722    4.6277 C.ar      1 <0>        -0.0666
     26 C19        -0.0824   -7.9854    5.9650 C.ar      1 <0>        -0.1567
     27 C20         1.0087   -7.2310    6.3548 C.ar      1 <0>         0.1474
     28 F1          1.2102   -6.9561    7.6621 F         1 <0>        -0.1211
     29 O3         -0.5223   -1.9334   -1.4335 O.3       1 <0>        -0.5594
     30 H2         -2.6729   -0.4011    0.6359 H         1 <0>         0.0705
     31 H3         -2.6927   -0.4144   -1.1439 H         1 <0>         0.0713
     32 H4         -2.9051   -1.9331   -0.2401 H         1 <0>         0.0628
     33 H5         -0.8229   -1.4433    1.8702 H         1 <0>         0.0718
     34 H6         -0.9062   -2.9653    0.9510 H         1 <0>         0.0661
     35 H7          1.5294   -1.6798    0.3251 H         1 <0>         0.4067
     36 H8         -0.2382   -3.2431    3.0555 H         1 <0>         0.1316
     37 H9          0.8496   -4.4283    4.9169 H         1 <0>         0.1265
     38 H10         4.6810   -3.5851    3.2154 H         1 <0>         0.1345
     39 H11         3.5932   -2.4102    1.3474 H         1 <0>         0.1329
     40 H12         5.0493   -6.3863    9.2581 H         1 <0>         0.0793
     41 H13         6.0713   -7.2691    8.0986 H         1 <0>         0.0855
     42 H14         7.2882   -7.0168   10.2078 H         1 <0>         0.0779
     43 H15         8.0621   -6.0048    8.9647 H         1 <0>         0.0630
     44 H16         8.1806   -5.5540   11.9542 H         1 <0>         0.0425
     45 H17         8.9545   -4.5420   10.7112 H         1 <0>         0.0433
     46 H18         7.8093   -3.8155   11.8640 H         1 <0>         0.0881
     47 H19         2.3722   -6.6757    3.2955 H         1 <0>         0.1357
     48 H20         0.4314   -8.0293    2.6279 H         1 <0>         0.1388
     49 H21        -1.1365   -8.8659    4.3286 H         1 <0>         0.1404
     50 H22        -0.7749   -8.3551    6.7067 H         1 <0>         0.1452
     51 H23        -0.9383   -2.8047   -1.4885 H         1 <0>         0.3779
@<TRIPOS>BOND
     1    1    2 1
     2    1   30 1
     3    1   31 1
     4    1   32 1
     5    2    3 1
     6    2    4 1
     7    2   29 1
     8    4    5 1
     9    4   33 1
    10    4   34 1
    11    5    6 1
    12    5   35 1
    13    6   11 ar
    14    6    7 ar
    15    7    8 ar
    16    7   36 1
    17    8    9 ar
    18    8   37 1
    19    9   10 ar
    20    9   12 1
    21   10   11 ar
    22   10   38 1
    23   11   39 1
    24   12   16 1
    25   12   13 1
    26   13   14 2
    27   13   22 1
    28   14   15 1
    29   15   16 2
    30   15   17 1
    31   17   18 1
    32   18   19 1
    33   18   40 1
    34   18   41 1
    35   19   20 1
    36   19   42 1
    37   19   43 1
    38   20   21 1
    39   21   44 1
    40   21   45 1
    41   21   46 1
    42   22   27 ar
    43   22   23 ar
    44   23   24 ar
    45   23   47 1
    46   24   25 ar
    47   24   48 1
    48   25   26 ar
    49   25   49 1
    50   26   27 ar
    51   26   50 1
    52   27   28 1
    53   29   51 1
@<TRIPOS>MOLECULE
ZINC30020907
   46    47     0     0     0
SMALL
USER_CHARGES

@<TRIPOS>ATOM
      1 C1          0.8535    1.3666   -0.5675 C.3       1 <0>         0.0345
      2 O1          0.8571   -0.0622   -0.5427 O.3       1 <0>        -0.3505
      3 C2          1.2300   -0.6530    0.6095 C.2       1 <0>         0.5107
      4 O2          1.5436    0.0263    1.5669 O.2       1 <0>        -0.5068
      5 C3          1.2575   -2.1241    0.7085 C.ar      1 <0>        -0.1669
      6 C4          0.9027   -2.9075   -0.3935 C.ar      1 <0>        -0.0180
      7 C5          0.9302   -4.2806   -0.2970 C.ar      1 <0>        -0.1589
      8 C6          1.3097   -4.8882    0.8944 C.ar      1 <0>         0.1667
      9 C7          1.6634   -4.1128    1.9927 C.ar      1 <0>        -0.2241
     10 C8          1.6441   -2.7391    1.9029 C.ar      1 <0>        -0.0087
     11 O3          1.3347   -6.2419    0.9856 O.3       1 <0>        -0.2823
     12 C9          1.7341   -6.8004    2.2388 C.3       1 <0>         0.0391
     13 C10         1.7015   -8.3045    2.1517 C.2       1 <0>         0.5205
     14 O4          1.3689   -8.8450    1.1181 O.2       1 <0>        -0.4885
     15 N1          2.0419   -9.0491    3.2223 N.am      1 <0>        -0.5682
     16 C11         2.5447   -8.4003    4.4357 C.3       1 <0>         0.1182
     17 C12         1.3716   -8.0688    5.3603 C.3       1 <0>        -0.1687
     18 C13         1.8888   -7.4015    6.6086 C.2       1 <0>         0.5215
     19 O5          3.0786   -7.2098    6.7452 O.2       1 <0>        -0.5397
     20 N2          1.0292   -7.0176    7.5731 N.am      1 <0>        -0.8535
     21 C14         1.9150  -10.4428    3.1747 C.ar      1 <0>         0.1260
     22 C15         3.0480  -11.2452    3.1974 C.ar      1 <0>        -0.0858
     23 C16         2.9206  -12.6196    3.1503 C.ar      1 <0>        -0.1415
     24 C17         1.6642  -13.1975    3.0802 C.ar      1 <0>         0.1047
     25 C18         0.5331  -12.3991    3.0575 C.ar      1 <0>        -0.1415
     26 C19         0.6558  -11.0244    3.1106 C.ar      1 <0>        -0.0777
     27 F1          1.5418  -14.5422    3.0334 F         1 <0>        -0.1351
     28 H1          1.8579    1.7361   -0.3606 H         1 <0>         0.0621
     29 H2          0.5347    1.7121   -1.5509 H         1 <0>         0.1047
     30 H3          0.1652    1.7415    0.1900 H         1 <0>         0.0619
     31 H4          0.6070   -2.4363   -1.3193 H         1 <0>         0.1487
     32 H5          0.6562   -4.8866   -1.1479 H         1 <0>         0.1449
     33 H6          1.9576   -4.5888    2.9165 H         1 <0>         0.1380
     34 H7          1.9229   -2.1375    2.7554 H         1 <0>         0.1429
     35 H8          2.7459   -6.4721    2.4769 H         1 <0>         0.1025
     36 H9          1.0507   -6.4667    3.0197 H         1 <0>         0.0990
     37 H10         3.2329   -9.0723    4.9485 H         1 <0>         0.1019
     38 H11         3.0664   -7.4817    4.1671 H         1 <0>         0.0958
     39 H12         0.6835   -7.3968    4.8475 H         1 <0>         0.0987
     40 H13         0.8499   -8.9874    5.6289 H         1 <0>         0.1063
     41 H14         0.0777   -7.1708    7.4638 H         1 <0>         0.4036
     42 H15         1.3622   -6.5880    8.3765 H         1 <0>         0.4058
     43 H16         4.0281  -10.7949    3.2513 H         1 <0>         0.1383
     44 H17         3.8016  -13.2441    3.1679 H         1 <0>         0.1430
     45 H18        -0.4460  -12.8517    3.0024 H         1 <0>         0.1423
     46 H19        -0.2268  -10.4022    3.0974 H         1 <0>         0.1340
@<TRIPOS>BOND
     1    1    2 1
     2    1   28 1
     3    1   29 1
     4    1   30 1
     5    2    3 1
     6    3    4 2
     7    3    5 1
     8    5   10 ar
     9    5    6 ar
    10    6    7 ar
    11    6   31 1
    12    7    8 ar
    13    7   32 1
    14    8    9 ar
    15    8   11 1
    16    9   10 ar
    17    9   33 1
    18   10   34 1
    19   11   12 1
    20   12   13 1
    21   12   35 1
    22   12   36 1
    23   13   14 2
    24   13   15 am
    25   15   16 1
    26   15   21 1
    27   16   17 1
    28   16   37 1
    29   16   38 1
    30   17   18 1
    31   17   39 1
    32   17   40 1
    33   18   19 2
    34   18   20 am
    35   20   41 1
    36   20   42 1
    37   21   26 ar
    38   21   22 ar
    39   22   23 ar
    40   22   43 1
    41   23   24 ar
    42   23   44 1
    43   24   25 ar
    44   24   27 1
    45   25   26 ar
    46   25   45 1
    47   26   46 1
@<TRIPOS>MOLECULE
ZINC53162293
   51    52     0     0     0
SMALL
USER_CHARGES

@<TRIPOS>ATOM
      1 C1         -0.0187    1.5258    0.0104 C.3       1 <0>        -0.1531
      2 C2          0.0021   -0.0041    0.0020 C.3       1 <0>         0.0538
      3 O1          0.6932   -0.4774    1.1597 O.3       1 <0>        -0.3091
      4 C3          0.8020   -1.8242    1.3057 C.ar      1 <0>         0.1486
      5 C4          0.2597   -2.6727    0.3511 C.ar      1 <0>        -0.2117
      6 C5          0.3720   -4.0411    0.5015 C.ar      1 <0>        -0.0689
      7 C6          1.0242   -4.5657    1.6023 C.ar      1 <0>        -0.1595
      8 C7          1.5650   -3.7225    2.5550 C.ar      1 <0>        -0.0611
      9 C8          1.4603   -2.3528    2.4062 C.ar      1 <0>        -0.1476
     10 C9          2.0555   -1.4341    3.4420 C.3       1 <0>         0.1748
     11 N1          1.0002   -0.9665    4.3441 N.am      1 <0>        -0.7204
     12 C10         1.3010   -0.1283    5.3558 C.2       1 <0>         0.5121
     13 O2          2.4453    0.2387    5.5194 O.2       1 <0>        -0.5147
     14 C11         0.2155    0.3527    6.2839 C.3       1 <0>        -0.0909
     15 C12         0.8107    1.2714    7.3196 C.2       1 <0>         0.1437
     16 C13         1.0274    2.6297    7.1642 C.2       1 <0>        -0.1977
     17 C14         1.5966    3.1013    8.3665 C.2       1 <0>        -0.0104
     18 C15         1.7058    2.0158    9.2087 C.2       1 <0>        -0.0894
     19 N2          1.2128    0.9098    8.5467 N.pl3     1 <0>        -0.5053
     20 H1          1.1669    0.0119    8.9107 H         1 <0>         0.4250
     21 C16         2.2269    2.0335   10.5247 C.2       1 <0>         0.4177
     22 O3          2.6285    3.0739   11.0048 O.2       1 <0>        -0.4514
     23 C17         2.2832    0.7609   11.3300 C.3       1 <0>        -0.2070
     24 C18         2.0068    4.5191    8.6707 C.3       1 <0>        -0.1011
     25 C19         0.7213    3.4326    5.9681 C.2       1 <0>         0.5448
     26 O4         -0.3671    3.9606    5.8529 O.2       1 <0>        -0.4974
     27 O5          1.6482    3.5816    5.0013 O.3       1 <0>        -0.3367
     28 C20         1.2833    4.3735    3.8692 C.3       1 <0>         0.0316
     29 H2          1.0039    1.9031    0.0027 H         1 <0>         0.0675
     30 H3         -0.5459    1.8868   -0.8726 H         1 <0>         0.0801
     31 H4         -0.5289    1.8773    0.9072 H         1 <0>         0.0660
     32 H5         -1.0205   -0.3814    0.0098 H         1 <0>         0.0628
     33 H6          0.5123   -0.3556   -0.8948 H         1 <0>         0.0632
     34 H7         -0.2501   -2.2635   -0.5086 H         1 <0>         0.1299
     35 H8         -0.0503   -4.7020   -0.2411 H         1 <0>         0.1271
     36 H9          1.1110   -5.6360    1.7181 H         1 <0>         0.1272
     37 H10         2.0736   -4.1346    3.4140 H         1 <0>         0.1315
     38 H11         2.8107   -1.9727    4.0145 H         1 <0>         0.0762
     39 H12         2.5161   -0.5789    2.9474 H         1 <0>         0.0809
     40 H13         0.0850   -1.2600    4.2133 H         1 <0>         0.4011
     41 H14        -0.5397    0.8913    5.7114 H         1 <0>         0.1224
     42 H15        -0.2451   -0.5025    6.7784 H         1 <0>         0.1152
     43 H16         2.9031    0.0297   10.8111 H         1 <0>         0.0903
     44 H17         2.7114    0.9699   12.3103 H         1 <0>         0.0916
     45 H18         1.2758    0.3626   11.4510 H         1 <0>         0.0897
     46 H19         1.1662    5.0535    9.1133 H         1 <0>         0.0789
     47 H20         2.8427    4.5134    9.3702 H         1 <0>         0.0904
     48 H21         2.3082    5.0159    7.7485 H         1 <0>         0.0659
     49 H22         2.1175    4.4123    3.1687 H         1 <0>         0.1027
     50 H23         0.4174    3.9289    3.3787 H         1 <0>         0.0593
     51 H24         1.0365    5.3835    4.1966 H         1 <0>         0.0616
@<TRIPOS>BOND
     1    1    2 1
     2    1   29 1
     3    1   30 1
     4    1   31 1
     5    2    3 1
     6    2   32 1
     7    2   33 1
     8    3    4 1
     9    4    9 ar
    10    4    5 ar
    11    5    6 ar
    12    5   34 1
    13    6    7 ar
    14    6   35 1
    15    7    8 ar
    16    7   36 1
    17    8    9 ar
    18    8   37 1
    19    9   10 1
    20   10   11 1
    21   10   38 1
    22   10   39 1
    23   11   12 am
    24   11   40 1
    25   12   13 2
    26   12   14 1
    27   14   15 1
    28   14   41 1
    29   14   42 1
    30   15   19 1
    31   15   16 2
    32   16   17 1
    33   16   25 1
    34   17   18 2
    35   17   24 1
    36   18   19 1
    37   18   21 1
    38   19   20 1
    39   21   22 2
    40   21   23 1
    41   23   43 1
    42   23   44 1
    43   23   45 1
    44   24   46 1
    45   24   47 1
    46   24   48 1
    47   25   26 2
    48   25   27 1
    49   27   28 1
    50   28   49 1
    51   28   50 1
    52   28   51 1
@<TRIPOS>MOLECULE
ZINC66816532
   54    54     0     0     0
SMALL
USER_CHARGES

@<TRIPOS>ATOM
      1 C1         -0.0187    1.5258    0.0104 C.3       1 <0>        -0.1518
      2 C2          0.0021   -0.0041    0.0020 C.3       1 <0>         0.0483
      3 O1          0.6932   -0.4774    1.1597 O.3       1 <0>        -0.2961
      4 C3          0.8021   -1.8252    1.3058 C.ar      1 <0>         0.1481
      5 C4          0.2611   -2.6689    0.3538 C.ar      1 <0>        -0.1685
      6 C5          0.3732   -4.0533    0.5044 C.ar      1 <0>        -0.0565
      7 C6          1.0322   -4.5813    1.6173 C.ar      1 <0>        -0.2033
      8 C7          1.5714   -3.7333    2.5665 C.ar      1 <0>         0.1499
      9 C8          1.4632   -2.3539    2.4111 C.ar      1 <0>         0.0630
     10 O2          1.9991   -1.5223    3.3428 O.3       1 <0>        -0.3094
     11 C9          1.1584   -1.1437    4.4346 C.3       1 <0>         0.0623
     12 C10         1.9291   -0.2126    5.3726 C.3       1 <0>        -0.1495
     13 O3          2.2126   -4.2468    3.6504 O.3       1 <0>        -0.2959
     14 C11         2.2913   -5.6706    3.7434 C.3       1 <0>         0.0481
     15 C12         3.0422   -6.0576    5.0191 C.3       1 <0>        -0.1523
     16 C13        -0.2040   -4.9565   -0.5104 C.2       1 <0>         0.5653
     17 O4         -0.7776   -4.4959   -1.4785 O.2       1 <0>        -0.5266
     18 N1         -0.0951   -6.2919   -0.3640 N.am      1 <0>        -0.5181
     19 N2         -0.6430   -7.1492   -1.3272 N.am      1 <0>        -0.5176
     20 C14        -0.5341   -8.4845   -1.1808 C.2       1 <0>         0.5253
     21 O5          0.0381   -8.9440   -0.2152 O.2       1 <0>        -0.5356
     22 C15        -1.1234   -9.4067   -2.2168 C.3       1 <0>        -0.0810
     23 H1         -0.6610   -9.2093   -3.1840 H         1 <0>         0.1157
     24 C16        -2.6314   -9.1672   -2.3141 C.3       1 <0>        -0.1521
     25 C17        -0.8626  -10.8594   -1.8139 C.3       1 <0>        -0.0700
     26 S1         -1.4402  -11.9652   -3.1309 S.3       1 <0>        -0.2548
     27 C18        -1.0636  -13.6260   -2.5061 C.3       1 <0>        -0.1208
     28 H2          1.0039    1.9031    0.0027 H         1 <0>         0.0686
     29 H3         -0.5459    1.8868   -0.8726 H         1 <0>         0.0816
     30 H4         -0.5289    1.8773    0.9072 H         1 <0>         0.0672
     31 H5         -1.0205   -0.3814    0.0098 H         1 <0>         0.0667
     32 H6          0.5123   -0.3556   -0.8948 H         1 <0>         0.0679
     33 H7         -0.2482   -2.2583   -0.5055 H         1 <0>         0.1521
     34 H8          1.1199   -5.6512    1.7362 H         1 <0>         0.1374
     35 H9          0.2777   -0.6272    4.0529 H         1 <0>         0.0531
     36 H10         0.8489   -2.0347    4.9808 H         1 <0>         0.0528
     37 H11         2.2387    0.6785    4.8264 H         1 <0>         0.0655
     38 H12         1.2879    0.0762    6.2054 H         1 <0>         0.0747
     39 H13         2.8099   -0.7290    5.7543 H         1 <0>         0.0653
     40 H14         1.2852   -6.0889    3.7730 H         1 <0>         0.0652
     41 H15         2.8225   -6.0625    2.8761 H         1 <0>         0.0664
     42 H16         4.0483   -5.6392    4.9895 H         1 <0>         0.0692
     43 H17         2.5111   -5.6656    5.8864 H         1 <0>         0.0678
     44 H18         3.1023   -7.1436    5.0900 H         1 <0>         0.0817
     45 H19         0.3625   -6.6594    0.4083 H         1 <0>         0.4316
     46 H20        -1.1006   -6.7816   -2.0995 H         1 <0>         0.4352
     47 H21        -3.0937   -9.3646   -1.3469 H         1 <0>         0.0668
     48 H22        -2.8172   -8.1322   -2.6011 H         1 <0>         0.0659
     49 H23        -3.0576   -9.8342   -3.0635 H         1 <0>         0.0865
     50 H24         0.2060  -11.0071   -1.6581 H         1 <0>         0.0926
     51 H25        -1.3985  -11.0824   -0.8913 H         1 <0>         0.0910
     52 H26         0.0093  -13.7155   -2.3357 H         1 <0>         0.0781
     53 H27        -1.5952  -13.7908   -1.5689 H         1 <0>         0.0784
     54 H28        -1.3786  -14.3697   -3.2381 H         1 <0>         0.1048
@<TRIPOS>BOND
     1    1    2 1
     2    1   28 1
     3    1   29 1
     4    1   30 1
     5    2    3 1
     6    2   31 1
     7    2   32 1
     8    3    4 1
     9    4    9 ar
    10    4    5 ar
    11    5    6 ar
    12    5   33 1
    13    6    7 ar
    14    6   16 1
    15    7    8 ar
    16    7   34 1
    17    8    9 ar
    18    8   13 1
    19    9   10 1
    20   10   11 1
    21   11   12 1
    22   11   35 1
    23   11   36 1
    24   12   37 1
    25   12   38 1
    26   12   39 1
    27   13   14 1
    28   14   15 1
    29   14   40 1
    30   14   41 1
    31   15   42 1
    32   15   43 1
    33   15   44 1
    34   16   17 2
    35   16   18 am
    36   18   19 1
    37   18   45 1
    38   19   20 am
    39   19   46 1
    40   20   21 2
    41   20   22 1
    42   22   23 1
    43   22   24 1
    44   22   25 1
    45   24   47 1
    46   24   48 1
    47   24   49 1
    48   25   26 1
    49   25   50 1
    50   25   51 1
    51   26   27 1
    52   27   52 1
    53   27   53 1
    54   27   54 1
@<TRIPOS>MOLECULE
ZINC00879340
   52    54     0     0     0
SMALL
USER_CHARGES
1-[(6-ethoxy-2-oxo-1H-quinolin-3-yl)methyl]-3-ethyl-1-(3-pyridylmethyl)thiourea
@<TRIPOS>ATOM
      1 C1          3.3560   -4.3280    5.2956 C.3       1 <0>        -0.1710
      2 C2          3.6266   -3.6663    3.9428 C.3       1 <0>         0.1157
      3 N1          2.3606   -3.4753    3.2307 N.pl3     1 <0>        -0.6806
      4 C3          2.3538   -2.9058    2.0092 C.2       1 <0>         0.5647
      5 S1          3.8246   -2.4057    1.2897 S.2       1 <0>        -0.6236
      6 N2          1.1891   -2.7301    1.3541 N.pl3     1 <0>        -0.5725
      7 C4         -0.0778   -3.0606    2.0110 C.3       1 <0>         0.1275
      8 C5         -0.4798   -4.4670    1.6484 C.ar      1 <0>        -0.1752
      9 C6         -1.1797   -4.7175    0.4778 C.ar      1 <0>        -0.0588
     10 C7         -1.5245   -6.0274    0.1827 C.ar      1 <0>        -0.1624
     11 C8         -1.1704   -7.0320    1.0638 C.ar      1 <0>         0.1132
     12 N3         -0.5090   -6.7560    2.1705 N.ar      1 <0>        -0.4758
     13 C9         -0.1606   -5.5225    2.4812 C.ar      1 <0>         0.1189
     14 C10         1.1903   -2.2086   -0.0150 C.3       1 <0>         0.1524
     15 C11         1.0369   -0.7098    0.0183 C.ar      1 <0>        -0.2791
     16 C12         2.1354    0.0831   -0.0387 C.ar      1 <0>         0.0405
     17 C13         1.9528    1.5354   -0.0038 C.ar      1 <0>        -0.1124
     18 C14         3.0492    2.4025   -0.0598 C.ar      1 <0>        -0.1095
     19 C15         2.8412    3.7665   -0.0260 C.ar      1 <0>         0.1080
     20 C16         1.5490    4.2790    0.0652 C.ar      1 <0>        -0.1595
     21 C17         0.4619    3.4355    0.1223 C.ar      1 <0>        -0.0749
     22 C18         0.6490    2.0574    0.0878 C.ar      1 <0>         0.1397
     23 N4         -0.4276    1.1956    0.1421 N.ar      1 <0>        -0.5267
     24 H1         -0.9262   -1.8219    0.1265 H         1 <0>         0.4042
     25 C19        -0.2495   -0.1366    0.1095 C.ar      1 <0>         0.3932
     26 O1         -1.2235   -0.8677    0.1609 O.3       1 <0>        -0.4036
     27 O2          3.9028    4.6142   -0.0805 O.3       1 <0>        -0.3142
     28 C20         3.6180    6.0140   -0.0403 C.3       1 <0>         0.0532
     29 C21         4.9269    6.8030   -0.1115 C.3       1 <0>        -0.1532
     30 H2          4.2979   -4.4700    5.8254 H         1 <0>         0.0859
     31 H3          2.6991   -3.6903    5.8870 H         1 <0>         0.0623
     32 H4          2.8783   -5.2950    5.1379 H         1 <0>         0.0634
     33 H5          4.2836   -4.3040    3.3514 H         1 <0>         0.0907
     34 H6          4.1043   -2.6993    4.1005 H         1 <0>         0.0898
     35 H7          1.5273   -3.7587    3.6384 H         1 <0>         0.3933
     36 H8          0.0423   -2.9843    3.0917 H         1 <0>         0.0992
     37 H9         -0.8501   -2.3656    1.6814 H         1 <0>         0.1036
     38 H10        -1.4464   -3.9118   -0.1901 H         1 <0>         0.1334
     39 H11        -2.0665   -6.2597   -0.7221 H         1 <0>         0.1442
     40 H12        -1.4389   -8.0545    0.8431 H         1 <0>         0.1631
     41 H13         0.3808   -5.3353    3.3967 H         1 <0>         0.1464
     42 H14         0.3614   -2.6465   -0.5712 H         1 <0>         0.0887
     43 H15         2.1310   -2.4669   -0.5014 H         1 <0>         0.1404
     44 H16         3.1235   -0.3472   -0.1084 H         1 <0>         0.1657
     45 H17         4.0517    2.0071   -0.1302 H         1 <0>         0.1391
     46 H18         1.3983    5.3481    0.0916 H         1 <0>         0.1362
     47 H19        -0.5355    3.8435    0.1928 H         1 <0>         0.1386
     48 H20         2.9863    6.2807   -0.8876 H         1 <0>         0.0625
     49 H21         3.0999    6.2528    0.8885 H         1 <0>         0.0621
     50 H22         4.7096    7.8707   -0.0809 H         1 <0>         0.0790
     51 H23         5.5585    6.5362    0.7358 H         1 <0>         0.0669
     52 H24         5.4450    6.5642   -1.0403 H         1 <0>         0.0671
@<TRIPOS>BOND
     1    1    2 1
     2    1   30 1
     3    1   31 1
     4    1   32 1
     5    2    3 1
     6    2   33 1
     7    2   34 1
     8    3    4 1
     9    3   35 1
    10    4    5 2
    11    4    6 1
    12    6    7 1
    13    6   14 1
    14    7    8 1
    15    7   36 1
    16    7   37 1
    17    8   13 ar
    18    8    9 ar
    19    9   10 ar
    20    9   38 1
    21   10   11 ar
    22   10   39 1
    23   11   12 ar
    24   11   40 1
    25   12   13 ar
    26   13   41 1
    27   14   15 1
    28   14   42 1
    29   14   43 1
    30   15   25 ar
    31   15   16 ar
    32   16   44 1
    33   16   17 ar
    34   17   18 ar
    35   17   22 ar
    36   18   19 ar
    37   18   45 1
    38   19   20 ar
    39   19   27 1
    40   20   21 ar
    41   20   46 1
    42   21   22 ar
    43   21   47 1
    44   22   23 ar
    45   23   25 ar
    46   24   26 1
    47   25   26 1
    48   27   28 1
    49   28   29 1
    50   28   48 1
    51   28   49 1
    52   29   50 1
    53   29   51 1
    54   29   52 1
@<TRIPOS>MOLECULE
ZINC31219106
   48    49     0     0     0
SMALL
USER_CHARGES
4-indan-5-yl-N-[3-(methanesulfonamido)propyl]-4-oxo-butanamide
@<TRIPOS>ATOM
      1 C1         -7.3942   -9.7578    0.9414 C.3       1 <0>        -0.6842
      2 S1         -8.1791   -8.7995   -0.3839 S.o2      1 <0>         2.6172
      3 O1         -9.5926   -8.9223   -0.3055 O.2       1 <0>        -0.9590
      4 O2         -7.5002   -9.0169   -1.6131 O.2       1 <0>        -0.9558
      5 N1         -7.8707   -7.2173   -0.0049 N.pl3     1 <0>        -1.1263
      6 C2         -6.4933   -6.7183   -0.0082 C.3       1 <0>         0.1159
      7 C3         -6.5051   -5.1884    0.0008 C.3       1 <0>        -0.1360
      8 C4         -5.0666   -4.6672   -0.0027 C.3       1 <0>         0.1195
      9 N2         -5.0779   -3.2023    0.0059 N.am      1 <0>        -0.7431
     10 C5         -3.9159   -2.5194    0.0046 C.2       1 <0>         0.5153
     11 O3         -2.8609   -3.1177   -0.0036 O.2       1 <0>        -0.5440
     12 C6         -3.9275   -1.0125    0.0135 C.3       1 <0>        -0.1332
     13 C7         -2.4890   -0.4914    0.0100 C.3       1 <0>        -0.1519
     14 C8         -2.5006    1.0155    0.0188 C.2       1 <0>         0.4009
     15 O4         -3.5553    1.6137    0.0271 O.2       1 <0>        -0.4553
     16 C9         -1.2318    1.7612    0.0175 C.ar      1 <0>        -0.1739
     17 C10        -0.0126    1.0758    0.0080 C.ar      1 <0>        -0.0704
     18 C11         1.1692    1.7831    0.0005 C.ar      1 <0>        -0.1215
     19 C12         1.1584    3.1702    0.0085 C.ar      1 <0>        -0.0648
     20 C13        -0.0444    3.8554    0.0238 C.ar      1 <0>        -0.1137
     21 C14        -1.2372    3.1582    0.0310 C.ar      1 <0>        -0.0484
     22 C15         0.2168    5.3467    0.0300 C.3       1 <0>        -0.0879
     23 C16         1.6836    5.5018   -0.4242 C.3       1 <0>        -0.1174
     24 C17         2.3074    4.1566    0.0034 C.3       1 <0>        -0.0854
     25 H1         -6.3013   -9.6550    0.8703 H         1 <0>         0.1269
     26 H2         -7.6702  -10.8178    0.8402 H         1 <0>         0.1302
     27 H3         -7.7352   -9.3816    1.9172 H         1 <0>         0.1281
     28 H4         -8.6801   -6.5953    0.4050 H         1 <0>         0.4417
     29 H5         -5.9679   -7.0862    0.8855 H         1 <0>         0.0630
     30 H6         -5.9760   -7.0757   -0.9108 H         1 <0>         0.0882
     31 H7         -7.0305   -4.8205   -0.8928 H         1 <0>         0.0829
     32 H8         -7.0224   -4.8310    0.9034 H         1 <0>         0.0784
     33 H9         -4.5412   -5.0351    0.8909 H         1 <0>         0.0692
     34 H10        -4.5493   -5.0246   -0.9053 H         1 <0>         0.0710
     35 H11        -6.0347   -2.6597    0.0134 H         1 <0>         0.4243
     36 H12        -4.4529   -0.6446   -0.8801 H         1 <0>         0.1016
     37 H13        -4.4448   -0.6551    0.9161 H         1 <0>         0.1013
     38 H14        -1.9636   -0.8593    0.9037 H         1 <0>         0.1091
     39 H15        -1.9717   -0.8488   -0.8926 H         1 <0>         0.1093
     40 H16         0.0021   -0.0041    0.0020 H         1 <0>         0.1366
     41 H17         2.1108    1.2542   -0.0114 H         1 <0>         0.1283
     42 H18        -2.1750    3.6939    0.0425 H         1 <0>         0.1310
     43 H19        -0.4765    5.8432   -0.6649 H         1 <0>         0.0774
     44 H20         0.0638    5.7415    1.0452 H         1 <0>         0.0820
     45 H21         1.7156    5.6614   -1.5121 H         1 <0>         0.0752
     46 H22         2.1363    6.3646    0.0864 H         1 <0>         0.0803
     47 H23         2.7444    4.2157    1.0112 H         1 <0>         0.0869
     48 H24         3.0749    3.8219   -0.7100 H         1 <0>         0.0807
@<TRIPOS>BOND
     1    1    2 1
     2    1   25 1
     3    1   26 1
     4    1   27 1
     5    2    3 2
     6    2    4 2
     7    2    5 1
     8    5    6 1
     9    5   28 1
    10    6    7 1
    11    6   29 1
    12    6   30 1
    13    7    8 1
    14    7   31 1
    15    7   32 1
    16    8    9 1
    17    8   33 1
    18    8   34 1
    19    9   10 am
    20    9   35 1
    21   10   11 2
    22   10   12 1
    23   12   13 1
    24   12   36 1
    25   12   37 1
    26   13   14 1
    27   13   38 1
    28   13   39 1
    29   14   15 2
    30   14   16 1
    31   16   21 ar
    32   16   17 ar
    33   17   18 ar
    34   17   40 1
    35   18   19 ar
    36   18   41 1
    37   19   24 1
    38   19   20 ar
    39   20   21 ar
    40   20   22 1
    41   21   42 1
    42   22   23 1
    43   22   43 1
    44   22   44 1
    45   23   24 1
    46   23   45 1
    47   23   46 1
    48   24   47 1
    49   24   48 1
@<TRIPOS>MOLECULE
ZINC51162407
   44    44     0     0     0
SMALL
USER_CHARGES

@<TRIPOS>ATOM
      1 C1         -0.0187    1.5258    0.0104 C.3       1 <0>        -0.1484
      2 C2          0.0021   -0.0041    0.0020 C.3       1 <0>        -0.6312
      3 S1          0.8794   -0.6050    1.4716 S.o2      1 <0>         2.6115
      4 O1          2.2585   -0.2725    1.3884 O.2       1 <0>        -0.9540
      5 O2          0.1321   -0.3082    2.6432 O.2       1 <0>        -0.9554
      6 N1          0.8346   -2.2558    1.3487 N.pl3     1 <0>        -1.1210
      7 C3          1.5328   -2.9277    0.2499 C.3       1 <0>         0.1117
      8 C4          1.6566   -4.4205    0.5614 C.3       1 <0>        -0.1353
      9 C5          2.3857   -5.1223   -0.5861 C.3       1 <0>         0.1137
     10 N2          2.5042   -6.5517   -0.2878 N.pl3     1 <0>        -1.1180
     11 S2          2.9069   -7.6176   -1.4894 S.o2      1 <0>         2.6887
     12 O3          2.9680   -8.9036   -0.8879 O.2       1 <0>        -0.9633
     13 O4          2.0542   -7.3309   -2.5893 O.2       1 <0>        -0.9566
     14 C6          4.5450   -7.2253   -2.0065 C.2       1 <0>        -0.7603
     15 C7          5.5269   -8.0951   -1.8147 C.2       1 <0>         0.0671
     16 C8          6.9010   -7.7660   -2.2484 C.ar      1 <0>        -0.1092
     17 C9          7.1692   -6.5383   -2.8549 C.ar      1 <0>        -0.0817
     18 C10         8.4540   -6.2371   -3.2576 C.ar      1 <0>        -0.1280
     19 C11         9.4753   -7.1496   -3.0615 C.ar      1 <0>        -0.0610
     20 C12         9.2160   -8.3687   -2.4612 C.ar      1 <0>        -0.1275
     21 C13         7.9367   -8.6793   -2.0480 C.ar      1 <0>        -0.0806
     22 C14        10.8762   -6.8142   -3.5043 C.3       1 <0>        -0.1219
     23 H1          1.0039    1.9031    0.0027 H         1 <0>         0.0732
     24 H2         -0.5459    1.8868   -0.8726 H         1 <0>         0.0831
     25 H3         -0.5289    1.8773    0.9072 H         1 <0>         0.0732
     26 H4         -1.0205   -0.3814    0.0098 H         1 <0>         0.1332
     27 H5          0.5123   -0.3556   -0.8948 H         1 <0>         0.1309
     28 H6          0.3461   -2.7779    2.0042 H         1 <0>         0.4200
     29 H7          0.9694   -2.7948   -0.6738 H         1 <0>         0.0709
     30 H8          2.5274   -2.4970    0.1340 H         1 <0>         0.0863
     31 H9          2.2199   -4.5535    1.4850 H         1 <0>         0.0836
     32 H10         0.6620   -4.8512    0.6773 H         1 <0>         0.0836
     33 H11         1.8224   -4.9893   -1.5098 H         1 <0>         0.0867
     34 H12         3.3803   -4.6916   -0.7020 H         1 <0>         0.0717
     35 H13         2.3468   -6.8737    0.6135 H         1 <0>         0.4207
     36 H14         4.7491   -6.2762   -2.4797 H         1 <0>         0.1613
     37 H15         5.3227   -9.0442   -1.3415 H         1 <0>         0.1453
     38 H16         6.3726   -5.8254   -3.0092 H         1 <0>         0.1289
     39 H17         8.6629   -5.2872   -3.7272 H         1 <0>         0.1288
     40 H18        10.0174   -9.0770   -2.3117 H         1 <0>         0.1298
     41 H19         7.7365   -9.6292   -1.5748 H         1 <0>         0.1322
     42 H20        11.4062   -6.3203   -2.6899 H         1 <0>         0.0762
     43 H21        11.4005   -7.7304   -3.7761 H         1 <0>         0.0707
     44 H22        10.8352   -6.1494   -4.3671 H         1 <0>         0.0703
@<TRIPOS>BOND
     1    1    2 1
     2    1   23 1
     3    1   24 1
     4    1   25 1
     5    2    3 1
     6    2   26 1
     7    2   27 1
     8    3    4 2
     9    3    5 2
    10    3    6 1
    11    6    7 1
    12    6   28 1
    13    7    8 1
    14    7   29 1
    15    7   30 1
    16    8    9 1
    17    8   31 1
    18    8   32 1
    19    9   10 1
    20    9   33 1
    21    9   34 1
    22   10   11 1
    23   10   35 1
    24   11   12 2
    25   11   13 2
    26   11   14 1
    27   14   15 2
    28   14   36 1
    29   15   16 1
    30   15   37 1
    31   16   21 ar
    32   16   17 ar
    33   17   18 ar
    34   17   38 1
    35   18   19 ar
    36   18   39 1
    37   19   20 ar
    38   19   22 1
    39   20   21 ar
    40   20   40 1
    41   21   41 1
    42   22   42 1
    43   22   43 1
    44   22   44 1
@<TRIPOS>MOLECULE
ZINC52968895
   51    51     0     0     0
SMALL
USER_CHARGES

@<TRIPOS>ATOM
      1 C1          2.2434   -1.8275   -5.5230 C.3       1 <0>        -0.1505
      2 C2          1.8728   -3.1189   -4.7910 C.3       1 <0>         0.0780
      3 C3          2.7135   -3.2433   -3.5188 C.3       1 <0>        -0.1728
      4 O1          0.4866   -3.0893   -4.4450 O.3       1 <0>        -0.3469
      5 C4         -0.1514   -4.2686   -4.3829 C.2       1 <0>         0.4662
      6 O2          0.4473   -5.2922   -4.6148 O.2       1 <0>        -0.4988
      7 C5         -1.6142   -4.3160   -4.0241 C.3       1 <0>        -0.1283
      8 C6         -2.0925   -5.7693   -4.0240 C.3       1 <0>         0.1290
      9 N1         -3.5146   -5.8154   -3.6752 N.am      1 <0>        -0.7257
     10 C7         -4.1552   -6.9995   -3.6129 C.2       1 <0>         0.5553
     11 O3         -3.5530   -8.0293   -3.8462 O.2       1 <0>        -0.5180
     12 C8         -5.5904   -7.0460   -3.2609 C.ar      1 <0>        -0.0774
     13 C9         -6.2863   -5.8650   -2.9982 C.ar      1 <0>        -0.1098
     14 C10        -7.6255   -5.9153   -2.6707 C.ar      1 <0>        -0.0239
     15 C11        -8.2787   -7.1330   -2.6021 C.ar      1 <0>        -0.6551
     16 C12        -7.5946   -8.3075   -2.8609 C.ar      1 <0>        -0.0231
     17 C13        -6.2568   -8.2707   -3.1955 C.ar      1 <0>        -0.0812
     18 S1         -9.9891   -7.1884   -2.1826 S.o2      1 <0>         2.6927
     19 O4        -10.2875   -8.5426   -1.8719 O.2       1 <0>        -0.9475
     20 O5        -10.2166   -6.1282   -1.2642 O.2       1 <0>        -0.9560
     21 N2        -10.8417   -6.8184   -3.5532 N.pl3     1 <0>        -1.1066
     22 C14       -10.8318   -7.7389   -4.6928 C.3       1 <0>         0.1737
     23 C15       -11.5393   -9.0388   -4.3046 C.3       1 <0>        -0.1829
     24 C16       -11.5600   -7.0953   -5.8746 C.3       1 <0>        -0.1504
     25 C17        -9.3860   -8.0440   -5.0896 C.3       1 <0>        -0.1937
     26 H1          3.3007   -1.8501   -5.7870 H         1 <0>         0.0800
     27 H2          1.6445   -1.7389   -6.4294 H         1 <0>         0.0648
     28 H3          2.0491   -0.9735   -4.8742 H         1 <0>         0.0687
     29 H4          2.0671   -3.9729   -5.4398 H         1 <0>         0.0852
     30 H5          2.5192   -2.3892   -2.8699 H         1 <0>         0.0671
     31 H6          2.4494   -4.1633   -2.9973 H         1 <0>         0.0613
     32 H7          3.7708   -3.2659   -3.7827 H         1 <0>         0.0766
     33 H8         -1.7594   -3.8856   -3.0333 H         1 <0>         0.1156
     34 H9         -2.1864   -3.7452   -4.7555 H         1 <0>         0.1154
     35 H10        -1.9473   -6.1997   -5.0149 H         1 <0>         0.0839
     36 H11        -1.5204   -6.3401   -3.2926 H         1 <0>         0.0839
     37 H12        -3.9952   -4.9936   -3.4891 H         1 <0>         0.4024
     38 H13        -5.7773   -4.9138   -3.0507 H         1 <0>         0.1364
     39 H14        -8.1651   -5.0022   -2.4672 H         1 <0>         0.1450
     40 H15        -8.1103   -9.2548   -2.8053 H         1 <0>         0.1536
     41 H16        -5.7251   -9.1878   -3.4021 H         1 <0>         0.1487
     42 H17       -11.3475   -5.9921   -3.6015 H         1 <0>         0.4197
     43 H18       -12.5277   -8.8095   -3.9064 H         1 <0>         0.0646
     44 H19       -11.6404   -9.6742   -5.1844 H         1 <0>         0.0691
     45 H20       -10.9537   -9.5586   -3.5463 H         1 <0>         0.0886
     46 H21       -11.0560   -6.1692   -6.1512 H         1 <0>         0.0635
     47 H22       -11.5527   -7.7802   -6.7225 H         1 <0>         0.0738
     48 H23       -12.5900   -6.8779   -5.5919 H         1 <0>         0.0655
     49 H24        -8.9437   -8.7206   -4.3584 H         1 <0>         0.0697
     50 H25        -9.3704   -8.5121   -6.0738 H         1 <0>         0.0816
     51 H26        -8.8140   -7.1167   -5.1191 H         1 <0>         0.0689
@<TRIPOS>BOND
     1    1    2 1
     2    1   26 1
     3    1   27 1
     4    1   28 1
     5    2    3 1
     6    2    4 1
     7    2   29 1
     8    3   30 1
     9    3   31 1
    10    3   32 1
    11    4    5 1
    12    5    6 2
    13    5    7 1
    14    7    8 1
    15    7   33 1
    16    7   34 1
    17    8    9 1
    18    8   35 1
    19    8   36 1
    20    9   10 am
    21    9   37 1
    22   10   11 2
    23   10   12 1
    24   12   17 ar
    25   12   13 ar
    26   13   14 ar
    27   13   38 1
    28   14   15 ar
    29   14   39 1
    30   15   16 ar
    31   15   18 1
    32   16   17 ar
    33   16   40 1
    34   17   41 1
    35   18   19 2
    36   18   20 2
    37   18   21 1
    38   21   22 1
    39   21   42 1
    40   22   23 1
    41   22   24 1
    42   22   25 1
    43   23   43 1
    44   23   44 1
    45   23   45 1
    46   24   46 1
    47   24   47 1
    48   24   48 1
    49   25   49 1
    50   25   50 1
    51   25   51 1
@<TRIPOS>MOLECULE
ZINC55158343
   51    52     0     0     0
SMALL
USER_CHARGES

@<TRIPOS>ATOM
      1 C1         -0.0187    1.5258    0.0104 C.3       1 <0>        -0.1475
      2 C2          0.0021   -0.0041    0.0020 C.3       1 <0>        -0.0351
      3 C3         -1.4117   -0.5257    0.0127 C.2       1 <0>         0.0668
      4 N1         -2.1830   -0.8068   -1.0077 N.2       1 <0>        -0.4925
      5 C4         -3.4090   -1.2597   -0.8367 C.2       1 <0>         0.0825
      6 C5         -3.8326   -1.4202    0.4431 C.2       1 <0>        -0.2346
      7 S1         -2.3799   -0.8952    1.3390 S.3       1 <0>         0.0977
      8 C6         -4.2999   -1.5839   -2.0081 C.3       1 <0>        -0.0671
      9 C7         -4.4054   -0.3793   -2.9075 C.2       1 <0>         0.5137
     10 O1         -3.8153    0.6420   -2.6250 O.2       1 <0>        -0.5081
     11 N2         -5.1555   -0.4368   -4.0257 N.am      1 <0>        -0.7341
     12 C8         -5.2581    0.7342   -4.9000 C.3       1 <0>         0.1461
     13 C9         -6.1489    0.4100   -6.0715 C.ar      1 <0>        -0.0937
     14 C10        -5.5919    0.0747   -7.2916 C.ar      1 <0>        -0.0964
     15 C11        -6.4089   -0.2226   -8.3660 C.ar      1 <0>        -0.1081
     16 C12        -7.7833   -0.1852   -8.2205 C.ar      1 <0>        -0.1073
     17 C13        -8.3402    0.1491   -7.0005 C.ar      1 <0>        -0.1044
     18 C14        -7.5229    0.4424   -5.9246 C.ar      1 <0>        -0.0768
     19 C15        -8.1301    0.8017   -4.5930 C.3       1 <0>        -0.5933
     20 S2         -8.3829    2.5960   -4.5082 S.o2      1 <0>         2.6033
     21 O2         -7.1301    3.2657   -4.4722 O.2       1 <0>        -0.9392
     22 O3         -9.3900    2.9924   -5.4290 O.2       1 <0>        -0.9505
     23 N3         -9.0473    2.8621   -3.0148 N.pl3     1 <0>        -1.1149
     24 C16        -8.2687    2.5811   -1.8061 C.3       1 <0>         0.1450
     25 C17        -7.5875    3.8651   -1.3283 C.3       1 <0>        -0.1744
     26 C18        -9.1995    2.0592   -0.7097 C.3       1 <0>        -0.1614
     27 H1          1.0039    1.9031    0.0027 H         1 <0>         0.0697
     28 H2         -0.5459    1.8868   -0.8726 H         1 <0>         0.0650
     29 H3         -0.5289    1.8773    0.9072 H         1 <0>         0.0575
     30 H4          0.5123   -0.3556   -0.8948 H         1 <0>         0.0964
     31 H5          0.5293   -0.3651    0.8851 H         1 <0>         0.0895
     32 H6         -4.7834   -1.7717    0.8160 H         1 <0>         0.1948
     33 H7         -3.8761   -2.4184   -2.5668 H         1 <0>         0.1101
     34 H8         -5.2916   -1.8551   -1.6463 H         1 <0>         0.1090
     35 H9         -5.6275   -1.2536   -4.2517 H         1 <0>         0.4008
     36 H10        -5.6818    1.5688   -4.3414 H         1 <0>         0.0909
     37 H11        -4.2663    1.0055   -5.2619 H         1 <0>         0.0833
     38 H12        -4.5183    0.0455   -7.4053 H         1 <0>         0.1324
     39 H13        -5.9737   -0.4838   -9.3193 H         1 <0>         0.1316
     40 H14        -8.4217   -0.4168   -9.0602 H         1 <0>         0.1325
     41 H15        -9.4138    0.1787   -6.8869 H         1 <0>         0.1333
     42 H16        -9.0882    0.2941   -4.4817 H         1 <0>         0.1459
     43 H17        -7.4592    0.4911   -3.7921 H         1 <0>         0.1395
     44 H18        -9.9520    3.2040   -2.9404 H         1 <0>         0.4189
     45 H19        -7.5115    1.8292   -2.0283 H         1 <0>         0.0788
     46 H20        -6.9244    4.2369   -2.1094 H         1 <0>         0.0732
     47 H21        -8.3447    4.6171   -1.1062 H         1 <0>         0.0624
     48 H22        -7.0082    3.6561   -0.4290 H         1 <0>         0.0681
     49 H23        -9.6847    1.1445   -1.0501 H         1 <0>         0.0621
     50 H24        -8.6202    1.8502    0.1896 H         1 <0>         0.0727
     51 H25        -9.9566    2.8112   -0.4875 H         1 <0>         0.0659
@<TRIPOS>BOND
     1    1    2 1
     2    1   27 1
     3    1   28 1
     4    1   29 1
     5    2    3 1
     6    2   30 1
     7    2   31 1
     8    3    7 1
     9    3    4 2
    10    4    5 1
    11    5    6 2
    12    5    8 1
    13    6    7 1
    14    6   32 1
    15    8    9 1
    16    8   33 1
    17    8   34 1
    18    9   10 2
    19    9   11 am
    20   11   12 1
    21   11   35 1
    22   12   13 1
    23   12   36 1
    24   12   37 1
    25   13   18 ar
    26   13   14 ar
    27   14   15 ar
    28   14   38 1
    29   15   16 ar
    30   15   39 1
    31   16   17 ar
    32   16   40 1
    33   17   18 ar
    34   17   41 1
    35   18   19 1
    36   19   20 1
    37   19   42 1
    38   19   43 1
    39   20   21 2
    40   20   22 2
    41   20   23 1
    42   23   24 1
    43   23   44 1
    44   24   25 1
    45   24   26 1
    46   24   45 1
    47   25   46 1
    48   25   47 1
    49   25   48 1
    50   26   49 1
    51   26   50 1
    52   26   51 1
@<TRIPOS>MOLECULE
ZINC04113561
   57    58     0     0     0
SMALL
USER_CHARGES
1,2,2-trimethylpropyl 4-methyl-2-oxo-6-(4-propoxyphenyl)-3,6-dihydro-1H-pyrimidine-5-carboxylate
@<TRIPOS>ATOM
      1 C1          3.0822    2.4989    8.0512 C.3       1 <0>        -0.1510
      2 C2          4.0676    2.6814    6.8951 C.3       1 <0>        -0.1237
      3 C3          3.3835    2.3087    5.5783 C.3       1 <0>         0.0585
      4 O1          4.3038    2.4791    4.4985 O.3       1 <0>        -0.3153
      5 C4          3.8512    2.1888    3.2504 C.ar      1 <0>         0.1393
      6 C5          4.6915    2.3318    2.1558 C.ar      1 <0>        -0.1532
      7 C6          4.2291    2.0355    0.8882 C.ar      1 <0>        -0.0421
      8 C7          2.9301    1.5969    0.7098 C.ar      1 <0>        -0.1455
      9 C8          2.0889    1.4589    1.7985 C.ar      1 <0>        -0.0543
     10 C9          2.5482    1.7485    3.0688 C.ar      1 <0>        -0.2121
     11 C10         2.4283    1.2745   -0.6741 C.3       1 <0>         0.2417
     12 H1          3.1765    1.6187   -1.3882 H         1 <0>         0.0908
     13 C11         2.3261   -0.2325   -0.7946 C.2       1 <0>        -0.2788
     14 C12         1.1203   -0.7583   -1.0999 C.2       1 <0>         0.2515
     15 N1          0.0309    0.0421   -1.2932 N.am      1 <0>        -0.6470
     16 C13         0.0646    1.3774   -1.1997 C.2       1 <0>         0.7042
     17 O2         -0.9572    2.0064   -1.3945 O.2       1 <0>        -0.5622
     18 N2          1.1956    2.0471   -0.9020 N.am      1 <0>        -0.7099
     19 C14         0.9744   -2.2527   -1.2289 C.3       1 <0>        -0.1232
     20 C15         3.4555   -1.0605   -0.5946 C.2       1 <0>         0.5365
     21 O3          3.3311   -2.2709   -0.5997 O.2       1 <0>        -0.5183
     22 O4          4.6708   -0.5079   -0.3981 O.3       1 <0>        -0.3329
     23 C16         5.7823   -1.4013   -0.3049 C.3       1 <0>         0.1003
     24 H2          5.5820   -2.2935   -0.8982 H         1 <0>         0.0808
     25 C17         5.9962   -1.7984    1.1571 C.3       1 <0>        -0.1732
     26 C18         7.0394   -0.7083   -0.8343 C.3       1 <0>        -0.0628
     27 C19         7.3758    0.4886    0.0573 C.3       1 <0>        -0.1464
     28 C20         8.2082   -1.6956   -0.8251 C.3       1 <0>        -0.1444
     29 C21         6.7913   -0.2250   -2.2646 C.3       1 <0>        -0.1428
     30 H3          2.7582    1.4590    8.0917 H         1 <0>         0.0577
     31 H4          3.5696    2.7644    8.9893 H         1 <0>         0.0659
     32 H5          2.2169    3.1433    7.8962 H         1 <0>         0.0578
     33 H6          4.9329    2.0370    7.0501 H         1 <0>         0.0739
     34 H7          4.3916    3.7213    6.8546 H         1 <0>         0.0741
     35 H8          2.5181    2.9531    5.4233 H         1 <0>         0.0619
     36 H9          3.0594    1.2687    5.6188 H         1 <0>         0.0616
     37 H10         5.7062    2.6747    2.2946 H         1 <0>         0.1310
     38 H11         4.8828    2.1470    0.0357 H         1 <0>         0.1334
     39 H12         1.0732    1.1207    1.6560 H         1 <0>         0.1135
     40 H13         1.8921    1.6363    3.9193 H         1 <0>         0.1253
     41 H14        -0.8148   -0.3803   -1.5108 H         1 <0>         0.4298
     42 H15         1.1976    3.0151   -0.8395 H         1 <0>         0.4332
     43 H16        -0.0586   -2.4968   -1.4768 H         1 <0>         0.0697
     44 H17         1.6328   -2.6153   -2.0182 H         1 <0>         0.1039
     45 H18         1.2433   -2.7268   -0.2850 H         1 <0>         0.1085
     46 H19         6.1964   -0.9062    1.7504 H         1 <0>         0.0692
     47 H20         5.1006   -2.2921    1.5343 H         1 <0>         0.0590
     48 H21         6.8439   -2.4799    1.2282 H         1 <0>         0.0728
     49 H22         7.6375    0.1362    1.0551 H         1 <0>         0.0582
     50 H23         8.2187    1.0332   -0.3683 H         1 <0>         0.0551
     51 H24         6.5110    1.1491    0.1205 H         1 <0>         0.0664
     52 H25         7.9685   -2.5483   -1.4604 H         1 <0>         0.0569
     53 H26         9.1038   -1.2019   -1.2023 H         1 <0>         0.0635
     54 H27         8.3849   -2.0400    0.1938 H         1 <0>         0.0609
     55 H28         5.9586    0.4784   -2.2712 H         1 <0>         0.0616
     56 H29         7.6869    0.2687   -2.6418 H         1 <0>         0.0583
     57 H30         6.5516   -1.0777   -2.8999 H         1 <0>         0.0524
@<TRIPOS>BOND
     1    1    2 1
     2    1   30 1
     3    1   31 1
     4    1   32 1
     5    2    3 1
     6    2   33 1
     7    2   34 1
     8    3    4 1
     9    3   35 1
    10    3   36 1
    11    4    5 1
    12    5   10 ar
    13    5    6 ar
    14    6    7 ar
    15    6   37 1
    16    7    8 ar
    17    7   38 1
    18    8    9 ar
    19    8   11 1
    20    9   10 ar
    21    9   39 1
    22   10   40 1
    23   11   12 1
    24   11   18 1
    25   11   13 1
    26   13   14 2
    27   13   20 1
    28   14   15 1
    29   14   19 1
    30   15   16 am
    31   15   41 1
    32   16   17 2
    33   16   18 am
    34   18   42 1
    35   19   43 1
    36   19   44 1
    37   19   45 1
    38   20   21 2
    39   20   22 1
    40   22   23 1
    41   23   24 1
    42   23   25 1
    43   23   26 1
    44   25   46 1
    45   25   47 1
    46   25   48 1
    47   26   27 1
    48   26   28 1
    49   26   29 1
    50   27   49 1
    51   27   50 1
    52   27   51 1
    53   28   52 1
    54   28   53 1
    55   28   54 1
    56   29   55 1
    57   29   56 1
    58   29   57 1
@<TRIPOS>MOLECULE
ZINC20080387
   49    50     0     0     0
SMALL
USER_CHARGES
allyl (4R)-5-cyano-6-ethylsulfanyl-4-(4-hydroxy-3-methoxy-phenyl)-2-methyl-1,4-dihydropyridine-3-carboxylate
@<TRIPOS>ATOM
      1 C1         -3.1323   -1.7965    1.2537 C.3       1 <0>        -0.1423
      2 C2         -2.0052   -0.8574    0.8195 C.3       1 <0>        -0.1382
      3 S1         -2.6854    0.7856    0.4816 S.3       1 <0>        -0.0469
      4 C3         -1.2140    1.6362    0.0167 C.2       1 <0>         0.1705
      5 C4         -1.2763    2.9498   -0.3247 C.2       1 <0>        -0.1063
      6 C5         -0.0461    3.7052   -0.7413 C.3       1 <0>         0.0946
      7 H1         -0.0463    4.6824   -0.2362 H         1 <0>         0.0961
      8 C6          1.1970    2.9625   -0.3432 C.2       1 <0>        -0.2566
      9 C7          1.1648    1.6636   -0.0001 C.2       1 <0>         0.2488
     10 N1         -0.0111    0.9658    0.0074 N.pl3     1 <0>        -0.6457
     11 C8          2.4444    0.9652    0.3818 C.3       1 <0>        -0.1179
     12 C9          2.4331    3.6478   -0.3286 C.2       1 <0>         0.5244
     13 O1          3.4502    3.0613   -0.0082 O.2       1 <0>        -0.5233
     14 O2          2.4855    4.9524   -0.6700 O.3       1 <0>        -0.3419
     15 C10         3.7680    5.5817   -0.6330 C.3       1 <0>         0.0951
     16 C11         3.6310    7.0256   -1.0421 C.2       1 <0>        -0.1610
     17 C12         4.2380    7.9615   -0.3552 C.2       1 <0>        -0.1725
     18 C13        -0.0587    3.8847   -2.2375 C.ar      1 <0>        -0.0785
     19 C14        -0.0458    2.7773   -3.0652 C.ar      1 <0>        -0.0935
     20 C15        -0.0572    2.9367   -4.4383 C.ar      1 <0>        -0.1325
     21 C16        -0.0821    4.2084   -4.9880 C.ar      1 <0>         0.1369
     22 C17        -0.0955    5.3230   -4.1549 C.ar      1 <0>         0.0334
     23 C18        -0.0888    5.1561   -2.7794 C.ar      1 <0>        -0.1442
     24 O3         -0.1199    6.5732   -4.6896 O.3       1 <0>        -0.3269
     25 C19        -0.1325    7.6702   -3.7740 C.3       1 <0>         0.0299
     26 O4         -0.0938    4.3670   -6.3386 O.3       1 <0>        -0.5077
     27 C20        -2.5383    3.6257   -0.2926 C.1       1 <0>         0.2594
     28 N2         -3.5395    4.1619   -0.2671 N.1       1 <0>        -0.4088
     29 H2         -2.7189   -2.7950    1.4591 H         1 <0>         0.0823
     30 H3         -3.8804   -1.8674    0.4504 H         1 <0>         0.0712
     31 H4         -3.6079   -1.4022    2.1638 H         1 <0>         0.0709
     32 H5         -1.2571   -0.7865    1.6228 H         1 <0>         0.0986
     33 H6         -1.5296   -1.2517   -0.0906 H         1 <0>         0.0951
     34 H7          0.0056   -0.1341    0.0060 H         1 <0>         0.4458
     35 H8          2.2291   -0.0845    0.6303 H         1 <0>         0.0620
     36 H9          2.8884    1.4651    1.2553 H         1 <0>         0.1066
     37 H10         3.1497    1.0052   -0.4614 H         1 <0>         0.1051
     38 H11         4.1741    5.5268    0.3878 H         1 <0>         0.0726
     39 H12         4.4491    5.0671   -1.3267 H         1 <0>         0.0768
     40 H13         3.0213    7.2937   -1.9175 H         1 <0>         0.1193
     41 H14         4.1380    9.0154   -0.6539 H         1 <0>         0.1105
     42 H15         4.8477    7.6934    0.5202 H         1 <0>         0.1027
     43 H16        -0.0264    1.7856   -2.6380 H         1 <0>         0.1199
     44 H17        -0.0471    2.0700   -5.0826 H         1 <0>         0.1332
     45 H18        -0.1030    6.0194   -2.1306 H         1 <0>         0.1302
     46 H19        -0.1520    8.6160   -4.3353 H         1 <0>         0.1019
     47 H20         0.7704    7.6346   -3.1467 H         1 <0>         0.0571
     48 H21        -1.0256    7.6044   -3.1353 H         1 <0>         0.0560
     49 H22        -0.1136    5.3771   -6.7736 H         1 <0>         0.4380
@<TRIPOS>BOND
     1    1    2 1
     2    1   29 1
     3    1   30 1
     4    1   31 1
     5    2    3 1
     6    2   32 1
     7    2   33 1
     8    3    4 1
     9    4   10 1
    10    4    5 2
    11    5    6 1
    12    5   27 1
    13    6    7 1
    14    6    8 1
    15    6   18 1
    16    8    9 2
    17    8   12 1
    18    9   10 1
    19    9   11 1
    20   10   34 1
    21   11   35 1
    22   11   36 1
    23   11   37 1
    24   12   13 2
    25   12   14 1
    26   14   15 1
    27   15   16 1
    28   15   38 1
    29   15   39 1
    30   16   17 2
    31   16   40 1
    32   17   41 1
    33   17   42 1
    34   18   23 ar
    35   18   19 ar
    36   19   20 ar
    37   19   43 1
    38   20   21 ar
    39   20   44 1
    40   21   22 ar
    41   21   26 1
    42   22   23 ar
    43   22   24 1
    44   23   45 1
    45   24   25 1
    46   25   46 1
    47   25   47 1
    48   25   48 1
    49   26   49 1
    50   27   28 3
@<TRIPOS>MOLECULE
ZINC42792714
   54    56     0     0     0
SMALL
USER_CHARGES

@<TRIPOS>ATOM
      1 C1         -0.1258    1.5932   -0.0802 C.3       1 <0>        -0.1524
      2 C2         -0.0226    0.0685   -0.0065 C.3       1 <0>        -0.1022
      3 C3          0.7811   -0.3289    1.2332 C.3       1 <0>        -0.1436
      4 C4         -1.4263   -0.5340    0.0809 C.3       1 <0>         0.1391
      5 H1         -1.9508   -0.1105    0.9374 H         1 <0>         0.0985
      6 C5         -2.1994   -0.2138   -1.2000 C.3       1 <0>         0.1045
      7 N1         -3.4987   -0.8899   -1.1681 N.am      1 <0>        -0.7229
      8 C6         -4.3559   -0.7513   -2.1988 C.2       1 <0>         0.5212
      9 O1         -4.0517   -0.0669   -3.1527 O.2       1 <0>        -0.5371
     10 C7         -5.6924   -1.4468   -2.1660 C.3       1 <0>        -0.1589
     11 C8         -6.4656   -1.1266   -3.4469 C.3       1 <0>         0.1117
     12 N2         -7.7648   -1.8027   -3.4150 N.am      1 <0>        -0.5486
     13 C9         -7.8826   -3.0585   -3.9196 C.2       1 <0>         0.3743
     14 N3         -8.9981   -3.7229   -3.9283 N.2       1 <0>        -0.5206
     15 C10       -10.1427   -3.1976   -3.4240 C.ar      1 <0>         0.1485
     16 C11       -11.3426   -3.9118   -3.4326 C.ar      1 <0>        -0.1093
     17 C12       -12.4803   -3.3396   -2.9096 C.ar      1 <0>        -0.0730
     18 C13       -12.4505   -2.0591   -2.3726 C.ar      1 <0>        -0.1365
     19 C14       -11.2788   -1.3348   -2.3527 C.ar      1 <0>        -0.0423
     20 C15       -10.1160   -1.8957   -2.8770 C.ar      1 <0>        -0.1962
     21 C16        -8.8356   -1.1726   -2.8781 C.2       1 <0>         0.5463
     22 O2         -8.7433   -0.0494   -2.4180 O.2       1 <0>        -0.5057
     23 N4         -1.3250   -1.9868    0.2398 N.pl3     1 <0>        -0.7412
     24 C17        -1.9538   -2.6171    1.3161 C.ar      1 <0>         0.2133
     25 C18        -2.5562   -1.8586    2.3118 C.ar      1 <0>        -0.2036
     26 C19        -3.1775   -2.4851    3.3742 C.ar      1 <0>        -0.0710
     27 C20        -3.2000   -3.8658    3.4478 C.ar      1 <0>        -0.1770
     28 C21        -2.6013   -4.6239    2.4583 C.ar      1 <0>        -0.0709
     29 C22        -1.9833   -4.0040    1.3901 C.ar      1 <0>        -0.1944
     30 H2          0.8742    2.0225   -0.1425 H         1 <0>         0.0621
     31 H3         -0.6984    1.8764   -0.9635 H         1 <0>         0.0605
     32 H4         -0.6267    1.9671    0.8127 H         1 <0>         0.0580
     33 H5          0.4783   -0.3054   -0.8995 H         1 <0>         0.0760
     34 H6          0.3243    0.1122    2.1192 H         1 <0>         0.0540
     35 H7          0.7869   -1.4146    1.3298 H         1 <0>         0.0597
     36 H8          1.8046    0.0326    1.1340 H         1 <0>         0.0561
     37 H9         -2.3519    0.8630   -1.2727 H         1 <0>         0.0814
     38 H10        -1.6311   -0.5594   -2.0635 H         1 <0>         0.0719
     39 H11        -3.7420   -1.4373   -0.4052 H         1 <0>         0.4031
     40 H12        -5.5400   -2.5236   -2.0933 H         1 <0>         0.1009
     41 H13        -6.2608   -1.1012   -1.3025 H         1 <0>         0.1017
     42 H14        -6.6180   -0.0497   -3.5196 H         1 <0>         0.1094
     43 H15        -5.8972   -1.4722   -4.3104 H         1 <0>         0.1064
     44 H16        -7.0034   -3.5282   -4.3351 H         1 <0>         0.2014
     45 H17       -11.3781   -4.9081   -3.8478 H         1 <0>         0.1406
     46 H18       -13.4076   -3.8932   -2.9173 H         1 <0>         0.1357
     47 H19       -13.3537   -1.6273   -1.9674 H         1 <0>         0.1346
     48 H20       -11.2615   -0.3396   -1.9335 H         1 <0>         0.1381
     49 H21        -0.8213   -2.5111   -0.4023 H         1 <0>         0.4009
     50 H22        -2.5384   -0.7803    2.2553 H         1 <0>         0.1207
     51 H23        -3.6460   -1.8959    4.1487 H         1 <0>         0.1198
     52 H24        -3.6859   -4.3531    4.2801 H         1 <0>         0.1178
     53 H25        -2.6207   -5.7020    2.5188 H         1 <0>         0.1203
     54 H26        -1.5198   -4.5967    0.6153 H         1 <0>         0.1187
@<TRIPOS>BOND
     1    1    2 1
     2    1   30 1
     3    1   31 1
     4    1   32 1
     5    2    3 1
     6    2    4 1
     7    2   33 1
     8    3   34 1
     9    3   35 1
    10    3   36 1
    11    4    5 1
    12    4    6 1
    13    4   23 1
    14    6    7 1
    15    6   37 1
    16    6   38 1
    17    7    8 am
    18    7   39 1
    19    8    9 2
    20    8   10 1
    21   10   11 1
    22   10   40 1
    23   10   41 1
    24   11   12 1
    25   11   42 1
    26   11   43 1
    27   12   21 am
    28   12   13 1
    29   13   14 2
    30   13   44 1
    31   14   15 1
    32   15   20 ar
    33   15   16 ar
    34   16   17 ar
    35   16   45 1
    36   17   18 ar
    37   17   46 1
    38   18   19 ar
    39   18   47 1
    40   19   20 ar
    41   19   48 1
    42   20   21 1
    43   21   22 2
    44   23   24 1
    45   23   49 1
    46   24   29 ar
    47   24   25 ar
    48   25   26 ar
    49   25   50 1
    50   26   27 ar
    51   26   51 1
    52   27   28 ar
    53   27   52 1
    54   28   29 ar
    55   28   53 1
    56   29   54 1
@<TRIPOS>MOLECULE
ZINC56197330
   54    55     0     0     0
SMALL
USER_CHARGES

@<TRIPOS>ATOM
      1 C1         -0.0602    1.4352    2.5767 C.3       1 <0>        -0.1555
      2 C2         -0.1175    0.0733    1.8818 C.3       1 <0>        -0.1171
      3 C3          0.9193   -0.8622    2.5070 C.3       1 <0>        -0.0481
      4 H1          1.9028   -0.3941    2.4656 H         1 <0>         0.0688
      5 C4          0.5457   -1.1358    3.9652 C.3       1 <0>        -0.1452
      6 C5          0.9486   -2.1613    1.7437 C.ar      1 <0>        -0.1084
      7 C6         -0.1604   -2.9847    1.7375 C.ar      1 <0>        -0.0959
      8 C7         -0.1343   -4.1767    1.0374 C.ar      1 <0>        -0.1350
      9 C8          1.0014   -4.5484    0.3411 C.ar      1 <0>        -0.1042
     10 C9          2.1132   -3.7294    0.3430 C.ar      1 <0>        -0.1322
     11 C10         2.0885   -2.5290    1.0413 C.ar      1 <0>         0.1491
     12 N1          3.2116   -1.6944    1.0408 N.am      1 <0>        -0.6714
     13 C11         4.4384   -2.2155    0.8412 C.2       1 <0>         0.5117
     14 O1          4.5626   -3.3960    0.5919 O.2       1 <0>        -0.4891
     15 C12         5.6558   -1.3315    0.9276 C.3       1 <0>         0.0713
     16 H2          5.5823   -0.5382    0.1837 H         1 <0>         0.0800
     17 C13         5.7394   -0.7140    2.3250 C.3       1 <0>        -0.1560
     18 N2          6.8611   -2.1317    0.6729 N.3       1 <0>        -0.6606
     19 C14         7.1872   -2.1510   -0.7593 C.3       1 <0>         0.1271
     20 H3          6.2700   -2.0648   -1.3420 H         1 <0>         0.0911
     21 C15         8.1122   -0.9774   -1.0877 C.3       1 <0>        -0.1817
     22 C16         7.8786   -3.4461   -1.0996 C.ar      1 <0>        -0.0600
     23 C17         8.8059   -3.9847   -0.2270 C.ar      1 <0>        -0.0451
     24 C18         9.4401   -5.1724   -0.5391 C.ar      1 <0>        -0.1166
     25 C19         9.1467   -5.8222   -1.7237 C.ar      1 <0>        -0.0584
     26 C20         8.2190   -5.2843   -2.5956 C.ar      1 <0>        -0.0466
     27 C21         7.5815   -4.0983   -2.2814 C.ar      1 <0>        -0.0496
     28 N3          7.9052   -5.9796   -3.8640 N.pl3     1 <0>         0.0339
     29 O2          8.4606   -7.0182   -4.1374 O.2       1 <0>        -0.1586
     30 O3          7.0937   -5.5091   -4.6267 O.3       1 <0>        -0.1598
     31 H4          0.9350    1.8632    2.4559 H         1 <0>         0.0526
     32 H5         -0.7988    2.1017    2.1313 H         1 <0>         0.0560
     33 H6         -0.2760    1.3111    3.6379 H         1 <0>         0.0585
     34 H7         -1.1127   -0.3546    2.0026 H         1 <0>         0.0668
     35 H8          0.0983    0.1975    0.8206 H         1 <0>         0.0621
     36 H9         -0.4378   -1.6038    4.0067 H         1 <0>         0.0593
     37 H10         1.2843   -1.8023    4.4106 H         1 <0>         0.0552
     38 H11         0.5245   -0.1962    4.5173 H         1 <0>         0.0616
     39 H12        -1.0487   -2.6973    2.2803 H         1 <0>         0.1240
     40 H13        -1.0024   -4.8191    1.0347 H         1 <0>         0.1219
     41 H14         1.0188   -5.4803   -0.2045 H         1 <0>         0.1237
     42 H15         2.9998   -4.0203   -0.2008 H         1 <0>         0.1505
     43 H16         3.1072   -0.7407    1.1843 H         1 <0>         0.4076
     44 H17         4.8891   -0.0499    2.4803 H         1 <0>         0.0714
     45 H18         5.7234   -1.5060    3.0737 H         1 <0>         0.0739
     46 H19         6.6653   -0.1462    2.4165 H         1 <0>         0.0737
     47 H20         7.6410   -1.7939    1.2168 H         1 <0>         0.3541
     48 H21         9.0640   -1.1100   -0.5732 H         1 <0>         0.0660
     49 H22         8.2829   -0.9393   -2.1635 H         1 <0>         0.0704
     50 H23         7.6487   -0.0468   -0.7602 H         1 <0>         0.0648
     51 H24         9.0351   -3.4771    0.6983 H         1 <0>         0.1401
     52 H25        10.1650   -5.5928    0.1422 H         1 <0>         0.1473
     53 H26         9.6427   -6.7499   -1.9679 H         1 <0>         0.1522
     54 H27         6.8538   -3.6799   -2.9609 H         1 <0>         0.1487
@<TRIPOS>BOND
     1    1    2 1
     2    1   31 1
     3    1   32 1
     4    1   33 1
     5    2    3 1
     6    2   34 1
     7    2   35 1
     8    3    4 1
     9    3    5 1
    10    3    6 1
    11    5   36 1
    12    5   37 1
    13    5   38 1
    14    6   11 ar
    15    6    7 ar
    16    7    8 ar
    17    7   39 1
    18    8    9 ar
    19    8   40 1
    20    9   10 ar
    21    9   41 1
    22   10   11 ar
    23   10   42 1
    24   11   12 1
    25   12   13 am
    26   12   43 1
    27   13   14 2
    28   13   15 1
    29   15   16 1
    30   15   17 1
    31   15   18 1
    32   17   44 1
    33   17   45 1
    34   17   46 1
    35   18   19 1
    36   18   47 1
    37   19   20 1
    38   19   21 1
    39   19   22 1
    40   21   48 1
    41   21   49 1
    42   21   50 1
    43   22   27 ar
    44   22   23 ar
    45   23   24 ar
    46   23   51 1
    47   24   25 ar
    48   24   52 1
    49   25   26 ar
    50   25   53 1
    51   26   27 ar
    52   26   28 1
    53   27   54 1
    54   28   29 2
    55   28   30 1
@<TRIPOS>MOLECULE
ZINC53582872
   51    53     0     0     0
SMALL
USER_CHARGES

@<TRIPOS>ATOM
      1 C1          1.5244    1.0610   -0.2751 C.3       1 <0>        -0.1157
      2 C2          0.7352   -0.2151   -0.1343 C.ar      1 <0>        -0.0668
      3 C3         -0.0113   -0.6867   -1.1988 C.ar      1 <0>        -0.1330
      4 C4         -0.7364   -1.8572   -1.0737 C.ar      1 <0>        -0.0951
      5 C5         -0.7174   -2.5595    0.1157 C.ar      1 <0>        -0.1263
      6 C6          0.0310   -2.0886    1.1863 C.ar      1 <0>         0.1478
      7 C7          0.7626   -0.9152    1.0557 C.ar      1 <0>        -0.1450
      8 N1          0.0521   -2.7974    2.3926 N.am      1 <0>        -0.6708
      9 C8         -0.0314   -4.1425    2.3854 C.2       1 <0>         0.5147
     10 O1         -0.0283   -4.7447    1.3326 O.2       1 <0>        -0.4905
     11 C9         -0.1286   -4.8984    3.6855 C.3       1 <0>         0.0436
     12 O2         -0.2055   -6.2998    3.4171 O.3       1 <0>        -0.2891
     13 C10        -0.2986   -7.1293    4.4896 C.ar      1 <0>         0.1279
     14 C11        -0.3212   -6.6047    5.7737 C.ar      1 <0>        -0.2075
     15 C12        -0.4163   -7.4499    6.8623 C.ar      1 <0>        -0.0705
     16 C13        -0.4884   -8.8176    6.6729 C.ar      1 <0>        -0.1174
     17 C14        -0.4655   -9.3429    5.3941 C.ar      1 <0>        -0.0701
     18 C15        -0.3768   -8.5016    4.3020 C.ar      1 <0>        -0.1422
     19 C16        -0.5916   -9.7373    7.8622 C.3       1 <0>        -0.0908
     20 C17        -2.0653   -9.9645    8.2049 C.3       1 <0>         0.1342
     21 N2         -2.1656  -10.8586    9.3611 N.pl3     1 <0>        -0.7152
     22 C18        -3.4085  -11.2110    9.8576 C.ar      1 <0>         0.4494
     23 C19        -3.5003  -12.0646   10.9708 C.ar      1 <0>        -0.1579
     24 C20        -4.7679  -12.4064   11.4549 C.ar      1 <0>         0.0194
     25 C21        -5.8789  -11.8866   10.8133 C.ar      1 <0>        -0.2362
     26 C22        -5.7080  -11.0528    9.7234 C.ar      1 <0>         0.1846
     27 N3         -4.5042  -10.7383    9.2851 N.ar      1 <0>        -0.5377
     28 C23        -2.3184  -12.5754   11.5976 C.1       1 <0>         0.2566
     29 N4         -1.3808  -12.9805   12.0948 N.1       1 <0>        -0.4176
     30 H1          2.5240    0.8311   -0.6440 H         1 <0>         0.0726
     31 H2          1.0210    1.7238   -0.9789 H         1 <0>         0.0692
     32 H3          1.5992    1.5510    0.6956 H         1 <0>         0.0669
     33 H4         -0.0281   -0.1393   -2.1296 H         1 <0>         0.1247
     34 H5         -1.3186   -2.2227   -1.9067 H         1 <0>         0.1277
     35 H6         -1.2843   -3.4736    0.2129 H         1 <0>         0.1338
     36 H7          1.3490   -0.5486    1.8852 H         1 <0>         0.1259
     37 H8          0.1268   -2.3206    3.2340 H         1 <0>         0.4127
     38 H9          0.7532   -4.6925    4.2923 H         1 <0>         0.0972
     39 H10        -1.0220   -4.5820    4.2238 H         1 <0>         0.0990
     40 H11        -0.2642   -5.5365    5.9222 H         1 <0>         0.1285
     41 H12        -0.4340   -7.0420    7.8621 H         1 <0>         0.1267
     42 H13        -0.5216  -10.4116    5.2487 H         1 <0>         0.1318
     43 H14        -0.3634   -8.9122    3.3031 H         1 <0>         0.1347
     44 H15        -0.1224  -10.6921    7.6249 H         1 <0>         0.0794
     45 H16        -0.0855   -9.2859    8.7155 H         1 <0>         0.0784
     46 H17        -2.5345   -9.0097    8.4422 H         1 <0>         0.0726
     47 H18        -2.5714  -10.4159    7.3515 H         1 <0>         0.0736
     48 H19        -1.3609  -11.2036    9.7787 H         1 <0>         0.4090
     49 H20        -4.8768  -13.0599   12.3078 H         1 <0>         0.1432
     50 H21        -6.8718  -12.1306   11.1612 H         1 <0>         0.1440
     51 H22        -6.5762  -10.6486    9.2241 H         1 <0>         0.1655
@<TRIPOS>BOND
     1    1    2 1
     2    1   30 1
     3    1   31 1
     4    1   32 1
     5    2    7 ar
     6    2    3 ar
     7    3    4 ar
     8    3   33 1
     9    4    5 ar
    10    4   34 1
    11    5    6 ar
    12    5   35 1
    13    6    7 ar
    14    6    8 1
    15    7   36 1
    16    8    9 am
    17    8   37 1
    18    9   10 2
    19    9   11 1
    20   11   12 1
    21   11   38 1
    22   11   39 1
    23   12   13 1
    24   13   18 ar
    25   13   14 ar
    26   14   15 ar
    27   14   40 1
    28   15   16 ar
    29   15   41 1
    30   16   17 ar
    31   16   19 1
    32   17   18 ar
    33   17   42 1
    34   18   43 1
    35   19   20 1
    36   19   44 1
    37   19   45 1
    38   20   21 1
    39   20   46 1
    40   20   47 1
    41   21   22 1
    42   21   48 1
    43   22   27 ar
    44   22   23 ar
    45   23   24 ar
    46   23   28 1
    47   24   25 ar
    48   24   49 1
    49   25   26 ar
    50   25   50 1
    51   26   27 ar
    52   26   51 1
    53   28   29 3
@<TRIPOS>MOLECULE
ZINC04739474
   51    52     0     0     0
SMALL
USER_CHARGES
N-[(3,4-diethoxyphenyl)methyleneamino]-2-(p-tolylamino)acetamide
@<TRIPOS>ATOM
      1 C1         11.2434   -5.0334   -0.1344 C.3       1 <0>        -0.1524
      2 C2          9.9513   -4.2143   -0.1172 C.3       1 <0>         0.0510
      3 O1         10.2703   -2.8213   -0.1122 O.3       1 <0>        -0.3019
      4 C3          9.2275   -1.9494   -0.0971 C.ar      1 <0>         0.1247
      5 C4          7.9255   -2.4281   -0.0868 C.ar      1 <0>        -0.1806
      6 C5          6.8640   -1.5482   -0.0660 C.ar      1 <0>        -0.0678
      7 C6          7.0986   -0.1708   -0.0666 C.ar      1 <0>        -0.0616
      8 C7          8.4101    0.3109   -0.0766 C.ar      1 <0>        -0.1432
      9 C8          9.4691   -0.5774   -0.0915 C.ar      1 <0>         0.0981
     10 O2         10.7469   -0.1119   -0.1012 O.3       1 <0>        -0.3028
     11 C9         10.9207    1.3065   -0.0952 C.3       1 <0>         0.0521
     12 C10        12.4145    1.6372   -0.1077 C.3       1 <0>        -0.1527
     13 C11         5.9652    0.7718   -0.0508 C.2       1 <0>         0.1226
     14 N1          4.7476    0.3226   -0.0415 N.2       1 <0>        -0.2313
     15 N2          3.6705    1.2184   -0.0264 N.am      1 <0>        -0.5820
     16 C12         2.4061    0.7519   -0.0169 C.2       1 <0>         0.5279
     17 O3          2.2006   -0.4437   -0.0213 O.2       1 <0>        -0.4958
     18 C13         1.2475    1.7155   -0.0006 C.3       1 <0>         0.1152
     19 N3         -0.0111    0.9658    0.0074 N.pl3     1 <0>        -0.7388
     20 C14        -1.2300    1.6477    0.0168 C.ar      1 <0>         0.2111
     21 C15        -1.2507    3.0366    0.0303 C.ar      1 <0>        -0.1967
     22 C16        -2.4577    3.7076    0.0348 C.ar      1 <0>        -0.0722
     23 C17        -3.6449    2.9985    0.0366 C.ar      1 <0>        -0.1434
     24 C18        -3.6279    1.6157    0.0285 C.ar      1 <0>        -0.0708
     25 C19        -2.4244    0.9384    0.0186 C.ar      1 <0>        -0.1858
     26 C20        -4.9601    3.7341    0.0469 C.3       1 <0>        -0.1080
     27 H1         11.8168   -4.7888   -1.0286 H         1 <0>         0.0671
     28 H2         11.8340   -4.7990    0.7513 H         1 <0>         0.0671
     29 H3         11.0001   -6.0958   -0.1382 H         1 <0>         0.0796
     30 H4          9.3780   -4.4589    0.7770 H         1 <0>         0.0639
     31 H5          9.3607   -4.4486   -1.0028 H         1 <0>         0.0639
     32 H6          7.7428   -3.4926   -0.0904 H         1 <0>         0.1403
     33 H7          5.8514   -1.9236   -0.0536 H         1 <0>         0.1404
     34 H8          8.5961    1.3748   -0.0730 H         1 <0>         0.1407
     35 H9         10.4464    1.7344   -0.9784 H         1 <0>         0.0620
     36 H10        10.4635    1.7248    0.8015 H         1 <0>         0.0620
     37 H11        12.5471    2.7191   -0.1031 H         1 <0>         0.0788
     38 H12        12.8888    1.2093    0.7755 H         1 <0>         0.0671
     39 H13        12.8718    1.2189   -1.0044 H         1 <0>         0.0671
     40 H14         6.1481    1.8362   -0.0468 H         1 <0>         0.1219
     41 H15         3.8348    2.1744   -0.0229 H         1 <0>         0.3889
     42 H16         1.2883    2.3477   -0.8877 H         1 <0>         0.0950
     43 H17         1.3053    2.3381    0.8922 H         1 <0>         0.0951
     44 H18         0.0021   -0.0041    0.0020 H         1 <0>         0.4121
     45 H19        -0.3238    3.5910    0.0334 H         1 <0>         0.1190
     46 H20        -2.4745    4.7875    0.0411 H         1 <0>         0.1207
     47 H21        -4.5569    1.0649    0.0303 H         1 <0>         0.1220
     48 H22        -2.4119   -0.1415    0.0120 H         1 <0>         0.1216
     49 H23        -5.2725    3.9056    1.0770 H         1 <0>         0.0646
     50 H24        -4.8450    4.6912   -0.4620 H         1 <0>         0.0619
     51 H25        -5.7140    3.1378   -0.4670 H         1 <0>         0.0623
@<TRIPOS>BOND
     1    1    2 1
     2    1   27 1
     3    1   28 1
     4    1   29 1
     5    2    3 1
     6    2   30 1
     7    2   31 1
     8    3    4 1
     9    4    9 ar
    10    4    5 ar
    11    5    6 ar
    12    5   32 1
    13    6    7 ar
    14    6   33 1
    15    7    8 ar
    16    7   13 1
    17    8    9 ar
    18    8   34 1
    19    9   10 1
    20   10   11 1
    21   11   12 1
    22   11   35 1
    23   11   36 1
    24   12   37 1
    25   12   38 1
    26   12   39 1
    27   13   14 2
    28   13   40 1
    29   14   15 1
    30   15   16 am
    31   15   41 1
    32   16   17 2
    33   16   18 1
    34   18   19 1
    35   18   42 1
    36   18   43 1
    37   19   20 1
    38   19   44 1
    39   20   25 ar
    40   20   21 ar
    41   21   22 ar
    42   21   45 1
    43   22   23 ar
    44   22   46 1
    45   23   24 ar
    46   23   26 1
    47   24   25 ar
    48   24   47 1
    49   25   48 1
    50   26   49 1
    51   26   50 1
    52   26   51 1
@<TRIPOS>MOLECULE
ZINC30649760
   49    50     0     0     0
SMALL
USER_CHARGES
(2S)-N-(2-methoxyphenyl)-3-methyl-2-[[5-(propylamino)-1,3,4-thiadiazol-2-yl]sulfanyl]butanamide
@<TRIPOS>ATOM
      1 C1          2.9249   -3.2680    7.9534 C.3       1 <0>        -0.1517
      2 C2          3.6918   -3.1980    6.6313 C.3       1 <0>        -0.1356
      3 C3          3.0355   -2.1632    5.7152 C.3       1 <0>         0.1320
      4 N1          3.7698   -2.0962    4.4493 N.pl3     1 <0>        -0.6828
      5 C4          3.3571   -1.2203    3.4520 C.2       1 <0>         0.3573
      6 N2          2.3437   -0.3767    3.4477 N.2       1 <0>        -0.3765
      7 N3          2.1141    0.4122    2.3443 N.2       1 <0>        -0.2690
      8 C5          2.9021    0.3127    1.2911 C.2       1 <0>         0.0340
      9 S1          4.0577   -0.9368    1.8335 S.3       1 <0>        -0.0173
     10 S2          2.8370    1.1846   -0.2387 S.3       1 <0>         0.1265
     11 C6          1.3210    2.1732   -0.1161 C.3       1 <0>        -0.1150
     12 H1          1.1847    2.8434    0.7454 H         1 <0>         0.1253
     13 C7          1.2023    3.0793   -1.3432 C.3       1 <0>        -0.0738
     14 C8         -0.0576    3.9389   -1.2226 C.3       1 <0>        -0.1614
     15 C9          2.4319    3.9857   -1.4288 C.3       1 <0>        -0.1547
     16 C10         0.1270    1.2561   -0.0514 C.2       1 <0>         0.5214
     17 O1          0.2203    0.1107   -0.4396 O.2       1 <0>        -0.5041
     18 N4         -1.0461    1.7101    0.4325 N.am      1 <0>        -0.6631
     19 C11        -2.1862    0.8970    0.3828 C.ar      1 <0>         0.1318
     20 C12        -2.2388   -0.1740   -0.4974 C.ar      1 <0>        -0.1083
     21 C13        -3.3627   -0.9770   -0.5415 C.ar      1 <0>        -0.1331
     22 C14        -4.4401   -0.7103    0.2831 C.ar      1 <0>        -0.1031
     23 C15        -4.3970    0.3583    1.1591 C.ar      1 <0>        -0.1874
     24 C16        -3.2722    1.1654    1.2129 C.ar      1 <0>         0.0947
     25 O2         -3.2285    2.2171    2.0736 O.3       1 <0>        -0.3214
     26 C17        -4.3784    2.4320    2.8943 C.3       1 <0>         0.0273
     27 H2          3.3968   -4.0120    8.6120 H         1 <0>         0.0638
     28 H3          1.8826   -3.5602    7.7577 H         1 <0>         0.0597
     29 H4          2.9440   -2.2821    8.4410 H         1 <0>         0.0598
     30 H5          4.7341   -2.9058    6.8270 H         1 <0>         0.0724
     31 H6          3.6728   -4.1838    6.1437 H         1 <0>         0.0723
     32 H7          1.9932   -2.4554    5.5195 H         1 <0>         0.0704
     33 H8          3.0545   -1.1773    6.2028 H         1 <0>         0.0708
     34 H9          4.6477   -2.7390    4.2880 H         1 <0>         0.4447
     35 H10         1.1387    2.4610   -2.2507 H         1 <0>         0.0895
     36 H11        -0.1429    4.5903   -2.1049 H         1 <0>         0.0739
     37 H12         0.0059    4.5572   -0.3150 H         1 <0>         0.0649
     38 H13        -0.9416    3.2872   -1.1612 H         1 <0>         0.0662
     39 H14         2.3465    4.6371   -2.3110 H         1 <0>         0.0699
     40 H15         3.3377    3.3676   -1.5157 H         1 <0>         0.0675
     41 H16         2.4955    4.6040   -0.5212 H         1 <0>         0.0657
     42 H17        -1.1085    2.7189    0.8665 H         1 <0>         0.4393
     43 H18        -1.4003   -0.3823   -1.1453 H         1 <0>         0.1597
     44 H19        -3.4010   -1.8128   -1.2245 H         1 <0>         0.1265
     45 H20        -5.3178   -1.3383    0.2425 H         1 <0>         0.1248
     46 H21        -5.2406    0.5643    1.8013 H         1 <0>         0.1307
     47 H22        -4.2108    3.3080    3.5382 H         1 <0>         0.1024
     48 H23        -4.5529    1.5446    3.5205 H         1 <0>         0.0564
     49 H24        -5.2566    2.6088    2.2559 H         1 <0>         0.0567
@<TRIPOS>BOND
     1    1    2 1
     2    1   27 1
     3    1   28 1
     4    1   29 1
     5    2    3 1
     6    2   30 1
     7    2   31 1
     8    3    4 1
     9    3   32 1
    10    3   33 1
    11    4    5 1
    12    4   34 1
    13    5    9 1
    14    5    6 2
    15    6    7 1
    16    7    8 2
    17    8    9 1
    18    8   10 1
    19   10   11 1
    20   11   12 1
    21   11   13 1
    22   11   16 1
    23   13   14 1
    24   13   15 1
    25   13   35 1
    26   14   36 1
    27   14   37 1
    28   14   38 1
    29   15   39 1
    30   15   40 1
    31   15   41 1
    32   16   17 2
    33   16   18 am
    34   18   19 1
    35   18   42 1
    36   19   24 ar
    37   19   20 ar
    38   20   21 ar
    39   20   43 1
    40   21   22 ar
    41   21   44 1
    42   22   23 ar
    43   22   45 1
    44   23   24 ar
    45   23   46 1
    46   24   25 1
    47   25   26 1
    48   26   47 1
    49   26   48 1
    50   26   49 1
@<TRIPOS>MOLECULE
ZINC51612643
   54    56     0     0     0
SMALL
USER_CHARGES

@<TRIPOS>ATOM
      1 C1          0.0263    1.4512    0.0065 C.ar      1 <0>        -0.1132
      2 C2          1.2157    2.1556    0.0104 C.ar      1 <0>        -0.1231
      3 C3          2.4204    1.4779   -0.0043 C.ar      1 <0>        -0.0989
      4 C4          2.4357    0.0958   -0.0225 C.ar      1 <0>        -0.0936
      5 C5          1.2464   -0.6087   -0.0255 C.ar      1 <0>        -0.0990
      6 C6          0.0416    0.0691   -0.0122 C.ar      1 <0>        -0.1232
      7 C7          3.7491   -0.6430   -0.0395 C.3       1 <0>         0.1041
      8 O1          4.1718   -0.8941    1.3022 O.3       1 <0>        -0.3816
      9 C8          5.4140   -1.5940    1.3990 C.3       1 <0>         0.0620
     10 C9          5.7661   -1.8067    2.8726 C.3       1 <0>        -0.1152
     11 C10         7.0960   -2.5560    2.9762 C.3       1 <0>        -0.1288
     12 C11         7.4481   -2.7687    4.4498 C.3       1 <0>         0.1375
     13 N1          8.7216   -3.4862    4.5490 N.am      1 <0>        -0.7410
     14 C12         9.2335   -3.7862    5.7591 C.2       1 <0>         0.7030
     15 O2          8.6385   -3.4615    6.7685 O.2       1 <0>        -0.5689
     16 N2         10.4051   -4.4463    5.8503 N.am      1 <0>        -0.6777
     17 C13        10.9953   -4.6544    7.1020 C.ar      1 <0>         0.2083
     18 C14        10.7085   -3.7986    8.1576 C.ar      1 <0>        -0.1371
     19 C15        11.2922   -4.0069    9.3916 C.ar      1 <0>        -0.0844
     20 C16        12.1620   -5.0660    9.5768 C.ar      1 <0>        -0.1463
     21 C17        12.4500   -5.9195    8.5279 C.ar      1 <0>        -0.0774
     22 C18        11.8646   -5.7201    7.2927 C.ar      1 <0>        -0.1533
     23 C19        12.1742   -6.6545    6.1516 C.3       1 <0>         0.1765
     24 N3         13.2609   -6.0955    5.3437 N.pl3     1 <0>        -0.3721
     25 C20        14.4179   -6.7157    5.0312 C.2       1 <0>         0.0565
     26 C21        15.1499   -5.8661    4.2740 C.2       1 <0>        -0.2730
     27 C22        14.4150   -4.6862    4.1184 C.2       1 <0>         0.0492
     28 N4         13.2800   -4.8249    4.7542 N.2       1 <0>        -0.3013
     29 H1         -0.9149    1.9806    0.0225 H         1 <0>         0.1236
     30 H2          1.2037    3.2355    0.0246 H         1 <0>         0.1244
     31 H3          3.3496    2.0283   -0.0020 H         1 <0>         0.1227
     32 H4          1.2584   -1.6885   -0.0400 H         1 <0>         0.1226
     33 H5         -0.8876   -0.4813   -0.0149 H         1 <0>         0.1244
     34 H6          3.6265   -1.5900   -0.5651 H         1 <0>         0.0582
     35 H7          4.4993   -0.0388   -0.5497 H         1 <0>         0.0583
     36 H8          5.3259   -2.5607    0.9032 H         1 <0>         0.0500
     37 H9          6.1987   -1.0095    0.9186 H         1 <0>         0.0503
     38 H10         5.8542   -0.8399    3.3683 H         1 <0>         0.0766
     39 H11         4.9814   -2.3912    3.3530 H         1 <0>         0.0763
     40 H12         7.0079   -3.5227    2.4805 H         1 <0>         0.0722
     41 H13         7.8807   -1.9715    2.4958 H         1 <0>         0.0730
     42 H14         7.5362   -1.8020    4.9456 H         1 <0>         0.0716
     43 H15         6.6634   -3.3532    4.9302 H         1 <0>         0.0713
     44 H16         9.1962   -3.7453    3.7437 H         1 <0>         0.3984
     45 H17        10.8391   -4.7771    5.0484 H         1 <0>         0.4117
     46 H18        10.0298   -2.9709    8.0134 H         1 <0>         0.1498
     47 H19        11.0695   -3.3417   10.2128 H         1 <0>         0.1273
     48 H20        12.6176   -5.2266   10.5428 H         1 <0>         0.1250
     49 H21        13.1302   -6.7452    8.6755 H         1 <0>         0.1249
     50 H22        12.4774   -7.6237    6.5477 H         1 <0>         0.1100
     51 H23        11.2863   -6.7772    5.5313 H         1 <0>         0.0870
     52 H24        14.7079   -7.7116    5.3319 H         1 <0>         0.1735
     53 H25        16.1288   -6.0639    3.8629 H         1 <0>         0.1473
     54 H26        14.7283   -3.8134    3.5648 H         1 <0>         0.1819
@<TRIPOS>BOND
     1    1    6 ar
     2    1    2 ar
     3    1   29 1
     4    2    3 ar
     5    2   30 1
     6    3    4 ar
     7    3   31 1
     8    4    5 ar
     9    4    7 1
    10    5    6 ar
    11    5   32 1
    12    6   33 1
    13    7    8 1
    14    7   34 1
    15    7   35 1
    16    8    9 1
    17    9   10 1
    18    9   36 1
    19    9   37 1
    20   10   11 1
    21   10   38 1
    22   10   39 1
    23   11   12 1
    24   11   40 1
    25   11   41 1
    26   12   13 1
    27   12   42 1
    28   12   43 1
    29   13   14 am
    30   13   44 1
    31   14   15 2
    32   14   16 am
    33   16   17 1
    34   16   45 1
    35   17   22 ar
    36   17   18 ar
    37   18   19 ar
    38   18   46 1
    39   19   20 ar
    40   19   47 1
    41   20   21 ar
    42   20   48 1
    43   21   22 ar
    44   21   49 1
    45   22   23 1
    46   23   24 1
    47   23   50 1
    48   23   51 1
    49   24   28 1
    50   24   25 1
    51   25   26 2
    52   25   52 1
    53   26   27 1
    54   26   53 1
    55   27   28 2
    56   27   54 1
@<TRIPOS>MOLECULE
ZINC47590160
   52    53     0     0     0
SMALL
USER_CHARGES

@<TRIPOS>ATOM
      1 C1         -0.0479    1.4969   -0.0395 C.3       1 <0>        -0.1122
      2 C2         -0.0228   -0.0099   -0.0389 C.ar      1 <0>        -0.1226
      3 C3         -0.0209   -0.7006   -1.2366 C.ar      1 <0>        -0.0810
      4 C4          0.0018   -2.0819   -1.2387 C.ar      1 <0>        -0.1465
      5 C5          0.0230   -2.7760   -0.0377 C.ar      1 <0>         0.1216
      6 C6          0.0215   -2.0805    1.1627 C.ar      1 <0>        -0.2045
      7 C7          0.0041   -0.6992    1.1594 C.ar      1 <0>        -0.0808
      8 O1          0.0449   -4.1348   -0.0371 O.3       1 <0>        -0.3133
      9 C8          0.0660   -4.7827    1.2364 C.3       1 <0>         0.0461
     10 C9          0.0887   -6.2995    1.0366 C.3       1 <0>         0.1418
     11 N1          1.3414   -6.6873    0.3835 N.am      1 <0>        -0.7388
     12 C10         1.5831   -7.9837    0.1054 C.2       1 <0>         0.7028
     13 O2          0.7615   -8.8314    0.3965 O.2       1 <0>        -0.5655
     14 N2          2.7356   -8.3405   -0.4954 N.am      1 <0>        -0.6863
     15 C11         3.0299   -9.6938   -0.6968 C.ar      1 <0>         0.1583
     16 C12         4.3406  -10.1427   -0.6006 C.ar      1 <0>        -0.1399
     17 C13         4.6277  -11.4788   -0.7994 C.ar      1 <0>        -0.1040
     18 C14         3.6117  -12.3694   -1.0947 C.ar      1 <0>        -0.1139
     19 C15         2.3058  -11.9255   -1.1917 C.ar      1 <0>        -0.0738
     20 C16         2.0113  -10.5914   -0.9877 C.ar      1 <0>        -0.0949
     21 C17         1.2019  -12.8993   -1.5145 C.3       1 <0>         0.1044
     22 O3          0.6755  -13.4418   -0.3018 O.3       1 <0>        -0.3706
     23 C18        -0.3829  -14.3819   -0.4969 C.3       1 <0>         0.0622
     24 C19        -0.8666  -14.8944    0.8611 C.3       1 <0>         0.0625
     25 O4         -1.4490  -13.8167    1.5970 O.3       1 <0>        -0.3817
     26 C20        -1.9355  -14.1903    2.8877 C.3       1 <0>         0.0310
     27 H1          0.9734    1.8773   -0.0529 H         1 <0>         0.0688
     28 H2         -0.5791    1.8510   -0.9230 H         1 <0>         0.0660
     29 H3         -0.5563    1.8522    0.8568 H         1 <0>         0.0653
     30 H4         -0.0374   -0.1599   -2.1714 H         1 <0>         0.1295
     31 H5          0.0025   -2.6210   -2.1746 H         1 <0>         0.1305
     32 H6          0.0380   -2.6186    2.0990 H         1 <0>         0.1276
     33 H7          0.0074   -0.1573    2.0936 H         1 <0>         0.1249
     34 H8          0.9558   -4.4753    1.7857 H         1 <0>         0.0712
     35 H9         -0.8238   -4.5039    1.8007 H         1 <0>         0.0836
     36 H10         0.0152   -6.7946    2.0048 H         1 <0>         0.0928
     37 H11        -0.7538   -6.5963    0.4118 H         1 <0>         0.0821
     38 H12         1.9969   -6.0111    0.1513 H         1 <0>         0.4007
     39 H13         3.3610   -7.6594   -0.7881 H         1 <0>         0.4071
     40 H14         5.1346   -9.4476   -0.3707 H         1 <0>         0.1253
     41 H15         5.6468  -11.8285   -0.7247 H         1 <0>         0.1283
     42 H16         3.8388  -13.4137   -1.2501 H         1 <0>         0.1237
     43 H17         0.9905  -10.2461   -1.0592 H         1 <0>         0.1422
     44 H18         0.4090  -12.3832   -2.0559 H         1 <0>         0.0584
     45 H19         1.5978  -13.7058   -2.1316 H         1 <0>         0.0584
     46 H20        -1.2086  -13.8966   -1.0172 H         1 <0>         0.0587
     47 H21        -0.0199  -15.2192   -1.0929 H         1 <0>         0.0649
     48 H22        -1.6114  -15.6758    0.7103 H         1 <0>         0.0642
     49 H23        -0.0221  -15.3001    1.4181 H         1 <0>         0.0577
     50 H24        -2.7026  -14.9571    2.7789 H         1 <0>         0.0399
     51 H25        -1.1132  -14.5814    3.4867 H         1 <0>         0.0412
     52 H26        -2.3619  -13.3173    3.3819 H         1 <0>         0.0864
@<TRIPOS>BOND
     1    1    2 1
     2    1   27 1
     3    1   28 1
     4    1   29 1
     5    2    7 ar
     6    2    3 ar
     7    3    4 ar
     8    3   30 1
     9    4    5 ar
    10    4   31 1
    11    5    6 ar
    12    5    8 1
    13    6    7 ar
    14    6   32 1
    15    7   33 1
    16    8    9 1
    17    9   10 1
    18    9   34 1
    19    9   35 1
    20   10   11 1
    21   10   36 1
    22   10   37 1
    23   11   12 am
    24   11   38 1
    25   12   13 2
    26   12   14 am
    27   14   15 1
    28   14   39 1
    29   15   20 ar
    30   15   16 ar
    31   16   17 ar
    32   16   40 1
    33   17   18 ar
    34   17   41 1
    35   18   19 ar
    36   18   42 1
    37   19   20 ar
    38   19   21 1
    39   20   43 1
    40   21   22 1
    41   21   44 1
    42   21   45 1
    43   22   23 1
    44   23   24 1
    45   23   46 1
    46   23   47 1
    47   24   25 1
    48   24   48 1
    49   24   49 1
    50   25   26 1
    51   26   50 1
    52   26   51 1
    53   26   52 1
@<TRIPOS>MOLECULE
ZINC66081459
   50    52     0     0     0
SMALL
USER_CHARGES

@<TRIPOS>ATOM
      1 C1          0.3692   -0.2623    2.3224 C.3       1 <0>        -0.1509
      2 C2          0.4601   -1.7573    2.0099 C.3       1 <0>        -0.1241
      3 C3          1.0382   -1.9508    0.6066 C.3       1 <0>         0.0578
      4 O1          1.1231   -3.3471    0.3147 O.3       1 <0>        -0.3158
      5 C4          1.6199   -3.6942   -0.9026 C.ar      1 <0>         0.0995
      6 C5          2.0220   -2.7104   -1.7937 C.ar      1 <0>        -0.1694
      7 C6          2.5267   -3.0630   -3.0302 C.ar      1 <0>        -0.1068
      8 C7          2.6316   -4.4009   -3.3806 C.ar      1 <0>         0.0916
      9 C8          2.2303   -5.3848   -2.4891 C.ar      1 <0>        -0.1639
     10 C9          1.7297   -5.0322   -1.2509 C.ar      1 <0>        -0.1118
     11 O2          3.1276   -4.7480   -4.5982 O.3       1 <0>        -0.3133
     12 C10         3.2073   -6.1442   -4.8922 C.3       1 <0>         0.0490
     13 C11         3.7853   -6.3376   -6.2956 C.3       1 <0>         0.1340
     14 N1          3.8670   -7.7690   -6.5970 N.pl3     1 <0>        -0.3598
     15 C12         3.3251   -8.3648   -7.6699 C.2       1 <0>         0.1100
     16 C13         3.6179   -9.7111   -7.6000 C.2       1 <0>        -0.2839
     17 C14         4.3990   -9.9013   -6.3741 C.2       1 <0>         0.1795
     18 N2          4.5266   -8.7201   -5.8136 N.2       1 <0>        -0.2790
     19 C15         4.9454  -11.1828   -5.8660 C.ar      1 <0>        -0.0276
     20 C16         5.5722  -12.0710   -6.7383 C.ar      1 <0>        -0.0509
     21 C17         6.0793  -13.2619   -6.2597 C.ar      1 <0>        -0.1255
     22 C18         5.9664  -13.5749   -4.9171 C.ar      1 <0>        -0.1045
     23 C19         5.3449  -12.6975   -4.0468 C.ar      1 <0>        -0.1294
     24 C20         4.8392  -11.5011   -4.5131 C.ar      1 <0>        -0.0875
     25 C21         3.2235  -10.7513   -8.5654 C.2       1 <0>         0.5956
     26 O3          3.4603  -11.9207   -8.3299 O.2       1 <0>        -0.5313
     27 N3          2.6002  -10.4071   -9.7097 N.am      1 <0>        -0.8551
     28 H1          1.3644    0.1799    2.2753 H         1 <0>         0.0580
     29 H2         -0.2788    0.2227    1.5924 H         1 <0>         0.0579
     30 H3         -0.0426   -0.1245    3.3221 H         1 <0>         0.0657
     31 H4          1.1082   -2.2423    2.7399 H         1 <0>         0.0740
     32 H5         -0.5351   -2.1995    2.0570 H         1 <0>         0.0739
     33 H6          0.3901   -1.4657   -0.1234 H         1 <0>         0.0621
     34 H7          2.0334   -1.5086    0.5594 H         1 <0>         0.0623
     35 H8          1.9403   -1.6686   -1.5209 H         1 <0>         0.1359
     36 H9          2.8391   -2.2969   -3.7244 H         1 <0>         0.1354
     37 H10         2.3117   -6.4265   -2.7620 H         1 <0>         0.1341
     38 H11         1.4207   -5.7984   -0.5553 H         1 <0>         0.1352
     39 H12         3.8533   -6.6328   -4.1627 H         1 <0>         0.0803
     40 H13         2.2105   -6.5827   -4.8461 H         1 <0>         0.0688
     41 H14         3.1393   -5.8491   -7.0251 H         1 <0>         0.1140
     42 H15         4.7821   -5.8991   -6.3417 H         1 <0>         0.1046
     43 H16         2.7598   -7.8769   -8.4502 H         1 <0>         0.1878
     44 H17         5.6606  -11.8277   -7.7869 H         1 <0>         0.1249
     45 H18         6.5648  -13.9510   -6.9348 H         1 <0>         0.1253
     46 H19         6.3647  -14.5081   -4.5469 H         1 <0>         0.1234
     47 H20         5.2593  -12.9472   -2.9995 H         1 <0>         0.1249
     48 H21         4.3585  -10.8147   -3.8319 H         1 <0>         0.1221
     49 H22         2.4113   -9.4744   -9.8976 H         1 <0>         0.3966
     50 H23         2.3404  -11.0922  -10.3455 H         1 <0>         0.4063
@<TRIPOS>BOND
     1    1    2 1
     2    1   28 1
     3    1   29 1
     4    1   30 1
     5    2    3 1
     6    2   31 1
     7    2   32 1
     8    3    4 1
     9    3   33 1
    10    3   34 1
    11    4    5 1
    12    5   10 ar
    13    5    6 ar
    14    6    7 ar
    15    6   35 1
    16    7    8 ar
    17    7   36 1
    18    8    9 ar
    19    8   11 1
    20    9   10 ar
    21    9   37 1
    22   10   38 1
    23   11   12 1
    24   12   13 1
    25   12   39 1
    26   12   40 1
    27   13   14 1
    28   13   41 1
    29   13   42 1
    30   14   18 1
    31   14   15 1
    32   15   16 2
    33   15   43 1
    34   16   17 1
    35   16   25 1
    36   17   18 2
    37   17   19 1
    38   19   24 ar
    39   19   20 ar
    40   20   21 ar
    41   20   44 1
    42   21   22 ar
    43   21   45 1
    44   22   23 ar
    45   22   46 1
    46   23   24 ar
    47   23   47 1
    48   24   48 1
    49   25   26 2
    50   25   27 am
    51   27   49 1
    52   27   50 1
@<TRIPOS>MOLECULE
ZINC02053759
   49    50     0     0     0
SMALL
USER_CHARGES
propyl 4-[(4-ethoxybenzoyl)thiocarbamoylamino]benzoate
@<TRIPOS>ATOM
      1 C1          2.5301  -14.5444    2.6891 C.3       1 <0>        -0.1512
      2 C2          2.4589  -13.0165    2.6498 C.3       1 <0>        -0.1248
      3 C3          3.1967  -12.5033    1.4116 C.3       1 <0>         0.0668
      4 O1          3.1292  -11.0533    1.3743 O.3       1 <0>        -0.3520
      5 C4          3.7345  -10.4391    0.3388 C.2       1 <0>         0.5109
      6 O2          4.3033  -11.0972   -0.5097 O.2       1 <0>        -0.5058
      7 C5          3.7068   -8.9686    0.2355 C.ar      1 <0>        -0.1220
      8 C6          4.3344   -8.3297   -0.8382 C.ar      1 <0>        -0.0451
      9 C7          4.3062   -6.9569   -0.9318 C.ar      1 <0>        -0.1332
     10 C8          3.6535   -6.2048    0.0405 C.ar      1 <0>         0.1608
     11 C9          3.0322   -6.8372    1.1134 C.ar      1 <0>        -0.0887
     12 C10         3.0524   -8.2099    1.2107 C.ar      1 <0>        -0.0498
     13 N1          3.6269   -4.8153   -0.0574 N.pl3     1 <0>        -0.6255
     14 C11         2.4924   -4.1419    0.2181 C.2       1 <0>         0.5072
     15 S1          1.0477   -4.9984    0.5500 S.2       1 <0>        -0.4694
     16 N2          2.4952   -2.7942    0.2324 N.am      1 <0>        -0.6386
     17 C12         1.3607   -2.1208    0.5080 C.2       1 <0>         0.5389
     18 O3          0.3349   -2.7290    0.7436 O.2       1 <0>        -0.4019
     19 C13         1.3637   -0.6457    0.5236 C.ar      1 <0>        -0.1807
     20 C14         0.1882    0.0545    0.8092 C.ar      1 <0>        -0.0093
     21 C15         0.1955    1.4313    0.8232 C.ar      1 <0>        -0.1573
     22 C16         1.3697    2.1249    0.5539 C.ar      1 <0>         0.1666
     23 C17         2.5409    1.4323    0.2695 C.ar      1 <0>        -0.2166
     24 C18         2.5423    0.0555    0.2534 C.ar      1 <0>        -0.0455
     25 O4          1.3726    3.4818    0.5687 O.3       1 <0>        -0.3086
     26 C19         2.6132    4.1311    0.2832 C.3       1 <0>         0.0513
     27 C20         2.4214    5.6477    0.3458 C.3       1 <0>        -0.1548
     28 H1          3.5729  -14.8585    2.7313 H         1 <0>         0.0584
     29 H2          2.0044  -14.9100    3.5712 H         1 <0>         0.0664
     30 H3          2.0635  -14.9530    1.7927 H         1 <0>         0.0587
     31 H4          2.9255  -12.6079    3.5461 H         1 <0>         0.0749
     32 H5          1.4160  -12.7023    2.6075 H         1 <0>         0.0756
     33 H6          2.7301  -12.9119    0.5152 H         1 <0>         0.0721
     34 H7          4.2396  -12.8175    1.4538 H         1 <0>         0.0717
     35 H8          4.8405   -8.9127   -1.5934 H         1 <0>         0.1446
     36 H9          4.7908   -6.4627   -1.7609 H         1 <0>         0.1368
     37 H10         2.5304   -6.2502    1.8685 H         1 <0>         0.1490
     38 H11         2.5663   -8.7002    2.0412 H         1 <0>         0.1458
     39 H12         4.4249   -4.3325   -0.3239 H         1 <0>         0.4099
     40 H13         3.3137   -2.3089    0.0444 H         1 <0>         0.4089
     41 H14        -0.7244   -0.4836    1.0189 H         1 <0>         0.1493
     42 H15        -0.7134    1.9732    1.0394 H         1 <0>         0.1437
     43 H16         3.4510    1.9749    0.0604 H         1 <0>         0.1371
     44 H17         3.4527   -0.4818    0.0327 H         1 <0>         0.1247
     45 H18         3.3592    3.8286    1.0181 H         1 <0>         0.0661
     46 H19         2.9502    3.8483   -0.7141 H         1 <0>         0.0660
     47 H20         2.0844    5.9304    1.3431 H         1 <0>         0.0686
     48 H21         3.3677    6.1429    0.1281 H         1 <0>         0.0815
     49 H22         1.6754    5.9502   -0.3891 H         1 <0>         0.0685
@<TRIPOS>BOND
     1    1    2 1
     2    1   28 1
     3    1   29 1
     4    1   30 1
     5    2    3 1
     6    2   31 1
     7    2   32 1
     8    3    4 1
     9    3   33 1
    10    3   34 1
    11    4    5 1
    12    5    6 2
    13    5    7 1
    14    7   12 ar
    15    7    8 ar
    16    8    9 ar
    17    8   35 1
    18    9   10 ar
    19    9   36 1
    20   10   11 ar
    21   10   13 1
    22   11   12 ar
    23   11   37 1
    24   12   38 1
    25   13   14 1
    26   13   39 1
    27   14   15 2
    28   14   16 1
    29   16   17 am
    30   16   40 1
    31   17   18 2
    32   17   19 1
    33   19   24 ar
    34   19   20 ar
    35   20   21 ar
    36   20   41 1
    37   21   22 ar
    38   21   42 1
    39   22   23 ar
    40   22   25 1
    41   23   24 ar
    42   23   43 1
    43   24   44 1
    44   25   26 1
    45   26   27 1
    46   26   45 1
    47   26   46 1
    48   27   47 1
    49   27   48 1
    50   27   49 1
@<TRIPOS>MOLECULE
ZINC41797105
   56    57     0     0     0
SMALL
USER_CHARGES

@<TRIPOS>ATOM
      1 C1          2.8490    0.8959   -1.1274 C.3       1 <0>        -0.1506
      2 C2          2.2683   -0.5009   -0.8979 C.3       1 <0>        -0.1243
      3 C3          2.4253   -0.8828    0.5754 C.3       1 <0>         0.0596
      4 O1          1.8829   -2.1873    0.7897 O.3       1 <0>        -0.3161
      5 C4          1.9431   -2.6805    2.0553 C.ar      1 <0>         0.1151
      6 C5          2.5064   -1.9234    3.0697 C.ar      1 <0>        -0.1931
      7 C6          2.5664   -2.4261    4.3561 C.ar      1 <0>        -0.0863
      8 C7          2.0653   -3.6845    4.6352 C.ar      1 <0>        -0.1390
      9 C8          1.5019   -4.4464    3.6297 C.ar      1 <0>        -0.0810
     10 C9          1.4331   -3.9467    2.3367 C.ar      1 <0>         0.1043
     11 N1          0.8583   -4.7137    1.3179 N.am      1 <0>        -0.6313
     12 C10         1.0009   -6.0539    1.3212 C.2       1 <0>         0.5078
     13 O2          1.5578   -6.6027    2.2498 O.2       1 <0>        -0.5040
     14 C11         0.4738   -6.8637    0.1826 C.2       1 <0>         0.5111
     15 O3         -0.0829   -6.3150   -0.7457 O.2       1 <0>        -0.5117
     16 N2          0.6165   -8.2039    0.1859 N.am      1 <0>        -0.6994
     17 C12         0.0994   -8.9983   -0.9311 C.3       1 <0>         0.1176
     18 C13         0.3896  -10.4796   -0.6809 C.3       1 <0>        -0.1303
     19 C14        -0.1504  -11.3092   -1.8474 C.3       1 <0>        -0.1159
     20 C15         0.1398  -12.7905   -1.5972 C.3       1 <0>         0.0601
     21 O4         -0.3646  -13.5654   -2.6868 O.3       1 <0>        -0.3154
     22 C16        -0.1877  -14.9112   -2.6207 C.ar      1 <0>         0.1239
     23 C17         0.4530  -15.4749   -1.5269 C.ar      1 <0>        -0.2052
     24 C18         0.6312  -16.8433   -1.4619 C.ar      1 <0>        -0.0810
     25 C19         0.1721  -17.6508   -2.4860 C.ar      1 <0>        -0.1245
     26 C20        -0.4664  -17.0914   -3.5774 C.ar      1 <0>        -0.0809
     27 C21        -0.6525  -15.7242   -3.6442 C.ar      1 <0>        -0.1482
     28 C22         0.3683  -19.1432   -2.4127 C.3       1 <0>        -0.1115
     29 H1          3.9063    0.8978   -0.8622 H         1 <0>         0.0579
     30 H2          2.7371    1.1680   -2.1769 H         1 <0>         0.0661
     31 H3          2.3174    1.6169   -0.5064 H         1 <0>         0.0582
     32 H4          1.2110   -0.5028   -1.1630 H         1 <0>         0.0747
     33 H5          2.7999   -1.2219   -1.5188 H         1 <0>         0.0741
     34 H6          3.4826   -0.8808    0.8405 H         1 <0>         0.0639
     35 H7          1.8937   -0.1617    1.1963 H         1 <0>         0.0644
     36 H8          2.8990   -0.9404    2.8553 H         1 <0>         0.1338
     37 H9          3.0063   -1.8345    5.1453 H         1 <0>         0.1290
     38 H10         2.1149   -4.0729    5.6418 H         1 <0>         0.1308
     39 H11         1.1113   -5.4288    3.8507 H         1 <0>         0.1471
     40 H12         0.3571   -4.2811    0.6090 H         1 <0>         0.4260
     41 H13         1.0615   -8.6424    0.9279 H         1 <0>         0.4145
     42 H14        -0.9769   -8.8483   -1.0161 H         1 <0>         0.0785
     43 H15         0.5842   -8.6842   -1.8554 H         1 <0>         0.0782
     44 H16         1.4659  -10.6296   -0.5958 H         1 <0>         0.0771
     45 H17        -0.0952  -10.7937    0.2435 H         1 <0>         0.0772
     46 H18        -1.2267  -11.1592   -1.9325 H         1 <0>         0.0804
     47 H19         0.3344  -10.9951   -2.7718 H         1 <0>         0.0803
     48 H20         1.2160  -12.9405   -1.5121 H         1 <0>         0.0636
     49 H21        -0.3450  -13.1046   -0.6728 H         1 <0>         0.0636
     50 H22         0.8125  -14.8445   -0.7271 H         1 <0>         0.1271
     51 H23         1.1300  -17.2826   -0.6106 H         1 <0>         0.1245
     52 H24        -0.8238  -17.7243   -4.3762 H         1 <0>         0.1294
     53 H25        -1.1552  -15.2881   -4.4948 H         1 <0>         0.1309
     54 H26        -0.4880  -19.5982   -1.9148 H         1 <0>         0.0686
     55 H27         0.4595  -19.5476   -3.4208 H         1 <0>         0.0658
     56 H28         1.2752  -19.3632   -1.8495 H         1 <0>         0.0648
@<TRIPOS>BOND
     1    1    2 1
     2    1   29 1
     3    1   30 1
     4    1   31 1
     5    2    3 1
     6    2   32 1
     7    2   33 1
     8    3    4 1
     9    3   34 1
    10    3   35 1
    11    4    5 1
    12    5   10 ar
    13    5    6 ar
    14    6    7 ar
    15    6   36 1
    16    7    8 ar
    17    7   37 1
    18    8    9 ar
    19    8   38 1
    20    9   10 ar
    21    9   39 1
    22   10   11 1
    23   11   12 am
    24   11   40 1
    25   12   13 2
    26   12   14 1
    27   14   15 2
    28   14   16 am
    29   16   17 1
    30   16   41 1
    31   17   18 1
    32   17   42 1
    33   17   43 1
    34   18   19 1
    35   18   44 1
    36   18   45 1
    37   19   20 1
    38   19   46 1
    39   19   47 1
    40   20   21 1
    41   20   48 1
    42   20   49 1
    43   21   22 1
    44   22   27 ar
    45   22   23 ar
    46   23   24 ar
    47   23   50 1
    48   24   25 ar
    49   24   51 1
    50   25   26 ar
    51   25   28 1
    52   26   27 ar
    53   26   52 1
    54   27   53 1
    55   28   54 1
    56   28   55 1
    57   28   56 1
@<TRIPOS>MOLECULE
ZINC52478019
   50    52     0     0     0
SMALL
USER_CHARGES

@<TRIPOS>ATOM
      1 C1         -0.0173    1.4248    0.0099 C.3       1 <0>         0.0219
      2 O1          0.0021   -0.0041    0.0020 O.3       1 <0>        -0.2982
      3 C2          0.6062   -0.6075   -1.0565 C.ar      1 <0>         0.0960
      4 C3          1.1705    0.1579   -2.0581 C.ar      1 <0>        -0.1091
      5 C4          1.7907   -0.4657   -3.1447 C.ar      1 <0>        -0.1245
      6 C5          1.8368   -1.8610   -3.2124 C.ar      1 <0>        -0.0511
      7 C6          1.2719   -2.6183   -2.2098 C.ar      1 <0>        -0.1909
      8 C7          0.6610   -1.9988   -1.1277 C.ar      1 <0>         0.1395
      9 O2          0.1106   -2.7498   -0.1393 O.3       1 <0>        -0.2716
     10 C8          0.2024   -4.1694   -0.2755 C.3       1 <0>         0.0341
     11 C9         -0.4581   -4.8312    0.9063 C.2       1 <0>         0.5188
     12 O3         -0.9582   -4.1539    1.7793 O.2       1 <0>        -0.5124
     13 N1         -0.4931   -6.1757    0.9932 N.am      1 <0>        -0.8500
     14 C10         2.3944    0.3467   -4.2173 C.2       1 <0>         0.5148
     15 O4          2.3531    1.5595   -4.1572 O.2       1 <0>        -0.4982
     16 O5          2.9918   -0.2561   -5.2639 O.3       1 <0>        -0.3341
     17 C11         3.5553    0.5924   -6.2661 C.3       1 <0>         0.1774
     18 C12         4.7363   -0.0957   -6.9009 C.ar      1 <0>        -0.0872
     19 C13         4.6808   -1.4488   -7.1783 C.ar      1 <0>        -0.0892
     20 C14         5.7641   -2.0800   -7.7605 C.ar      1 <0>        -0.1213
     21 C15         6.9027   -1.3580   -8.0657 C.ar      1 <0>        -0.1122
     22 C16         6.9579   -0.0047   -7.7891 C.ar      1 <0>        -0.1187
     23 C17         5.8730    0.6273   -7.2108 C.ar      1 <0>        -0.1032
     24 C18         2.5177    0.8834   -7.3195 C.ar      1 <0>        -0.1067
     25 C19         1.5930   -0.0844   -7.6647 C.ar      1 <0>        -0.0977
     26 C20         0.6411    0.1825   -8.6310 C.ar      1 <0>        -0.1207
     27 C21         0.6138    1.4173   -9.2518 C.ar      1 <0>        -0.1135
     28 C22         1.5379    2.3854   -8.9059 C.ar      1 <0>        -0.1189
     29 C23         2.4870    2.1200   -7.9366 C.ar      1 <0>        -0.0991
     30 H1          1.0053    1.8021    0.0021 H         1 <0>         0.0582
     31 H2         -0.5445    1.7859   -0.8732 H         1 <0>         0.0582
     32 H3         -0.5275    1.7763    0.9067 H         1 <0>         0.1060
     33 H4          1.1324    1.2358   -2.0022 H         1 <0>         0.1526
     34 H5          2.3150   -2.3454   -4.0509 H         1 <0>         0.1455
     35 H6          1.3083   -3.6964   -2.2634 H         1 <0>         0.1459
     36 H7         -0.2986   -4.4795   -1.1925 H         1 <0>         0.0988
     37 H8          1.2512   -4.4633   -0.3172 H         1 <0>         0.0989
     38 H9         -0.0931   -6.7174    0.2950 H         1 <0>         0.4036
     39 H10        -0.9182   -6.6017    1.7539 H         1 <0>         0.4108
     40 H11         3.8816    1.5269   -5.8096 H         1 <0>         0.1009
     41 H12         3.7912   -2.0129   -6.9398 H         1 <0>         0.1261
     42 H13         5.7210   -3.1372   -7.9766 H         1 <0>         0.1251
     43 H14         7.7493   -1.8512   -8.5200 H         1 <0>         0.1242
     44 H15         7.8476    0.5593   -8.0273 H         1 <0>         0.1262
     45 H16         5.9147    1.6854   -6.9981 H         1 <0>         0.1239
     46 H17         1.6143   -1.0492   -7.1798 H         1 <0>         0.1249
     47 H18        -0.0809   -0.5738   -8.9012 H         1 <0>         0.1243
     48 H19        -0.1294    1.6256  -10.0072 H         1 <0>         0.1237
     49 H20         1.5167    3.3501   -9.3911 H         1 <0>         0.1253
     50 H21         3.2067    2.8776   -7.6637 H         1 <0>         0.1229
@<TRIPOS>BOND
     1    1    2 1
     2    1   30 1
     3    1   31 1
     4    1   32 1
     5    2    3 1
     6    3    8 ar
     7    3    4 ar
     8    4    5 ar
     9    4   33 1
    10    5    6 ar
    11    5   14 1
    12    6    7 ar
    13    6   34 1
    14    7    8 ar
    15    7   35 1
    16    8    9 1
    17    9   10 1
    18   10   11 1
    19   10   36 1
    20   10   37 1
    21   11   12 2
    22   11   13 am
    23   13   38 1
    24   13   39 1
    25   14   15 2
    26   14   16 1
    27   16   17 1
    28   17   18 1
    29   17   24 1
    30   17   40 1
    31   18   23 ar
    32   18   19 ar
    33   19   20 ar
    34   19   41 1
    35   20   21 ar
    36   20   42 1
    37   21   22 ar
    38   21   43 1
    39   22   23 ar
    40   22   44 1
    41   23   45 1
    42   24   29 ar
    43   24   25 ar
    44   25   26 ar
    45   25   46 1
    46   26   27 ar
    47   26   47 1
    48   27   28 ar
    49   27   48 1
    50   28   29 ar
    51   28   49 1
    52   29   50 1
@<TRIPOS>MOLECULE
ZINC60459519
   51    53     0     0     0
SMALL
USER_CHARGES

@<TRIPOS>ATOM
      1 C1         -0.0187    1.5258    0.0104 C.3       1 <0>        -0.1520
      2 C2          0.0021   -0.0041    0.0020 C.3       1 <0>         0.0567
      3 O1          0.6709   -0.4649   -1.1737 O.3       1 <0>        -0.3827
      4 C3          0.7457   -1.8880   -1.2798 C.3       1 <0>         0.1116
      5 C4          1.4669   -2.2599   -2.5497 C.ar      1 <0>        -0.1590
      6 C5          1.9386   -1.2717   -3.3916 C.ar      1 <0>        -0.0484
      7 C6          2.5999   -1.6120   -4.5572 C.ar      1 <0>        -0.1739
      8 C7          2.7918   -2.9421   -4.8840 C.ar      1 <0>        -0.0716
      9 C8          2.3232   -3.9350   -4.0466 C.ar      1 <0>        -0.1984
     10 C9          1.6629   -3.5966   -2.8720 C.ar      1 <0>         0.2202
     11 N1          1.1922   -4.5983   -2.0201 N.pl3     1 <0>        -0.7402
     12 C10         1.3999   -6.0077   -2.3616 C.3       1 <0>         0.1156
     13 C11         0.8019   -6.8784   -1.2868 C.2       1 <0>         0.5086
     14 O2          0.2560   -6.3716   -0.3297 O.2       1 <0>        -0.4925
     15 N2          0.8737   -8.2204   -1.3891 N.am      1 <0>        -0.6156
     16 C12         0.3237   -9.0213   -0.4005 C.2       1 <0>         0.0380
     17 C13         0.3080  -10.4032   -0.3357 C.2       1 <0>        -0.1995
     18 C14        -0.3424  -11.0116    0.8242 C.2       1 <0>        -0.0876
     19 C15        -0.8532  -10.1234    1.6952 C.2       1 <0>        -0.2458
     20 S1         -0.4694   -8.5380    0.9959 S.3       1 <0>         0.3391
     21 C16        -1.5133  -10.8013    2.8653 C.3       1 <0>        -0.0313
     22 C17        -1.7268  -12.2595    2.4021 C.3       1 <0>        -0.1153
     23 C18        -0.6139  -12.4207    1.3468 C.3       1 <0>        -0.0618
     24 C19         0.9171  -11.2227   -1.3854 C.2       1 <0>         0.5289
     25 O3          2.0857  -11.5494   -1.3007 O.2       1 <0>        -0.4915
     26 O4          0.1823  -11.6152   -2.4462 O.3       1 <0>        -0.3465
     27 C20         0.8408  -12.4129   -3.4322 C.3       1 <0>         0.0288
     28 H1          1.0039    1.9031    0.0027 H         1 <0>         0.0635
     29 H2         -0.5459    1.8868   -0.8726 H         1 <0>         0.0635
     30 H3         -0.5289    1.8773    0.9072 H         1 <0>         0.0719
     31 H4          0.5293   -0.3651    0.8851 H         1 <0>         0.0493
     32 H5         -1.0205   -0.3814    0.0098 H         1 <0>         0.0493
     33 H6          1.2883   -2.2882   -0.4233 H         1 <0>         0.0565
     34 H7         -0.2614   -2.3044   -1.2986 H         1 <0>         0.0566
     35 H8          1.7905   -0.2321   -3.1394 H         1 <0>         0.1328
     36 H9          2.9672   -0.8374   -5.2141 H         1 <0>         0.1208
     37 H10         3.3085   -3.2045   -5.7954 H         1 <0>         0.1222
     38 H11         2.4731   -4.9735   -4.3026 H         1 <0>         0.1211
     39 H12         0.7278   -4.3608   -1.2022 H         1 <0>         0.4111
     40 H13         0.9185   -6.2252   -3.3151 H         1 <0>         0.1022
     41 H14         2.4682   -6.2090   -2.4398 H         1 <0>         0.1020
     42 H15         1.3103   -8.6258   -2.1546 H         1 <0>         0.4219
     43 H16        -0.8619  -10.7715    3.7388 H         1 <0>         0.0867
     44 H17        -2.4703  -10.3292    3.0876 H         1 <0>         0.0818
     45 H18        -1.5847  -12.9560    3.2284 H         1 <0>         0.0862
     46 H19        -2.7117  -12.3857    1.9525 H         1 <0>         0.0789
     47 H20        -0.9532  -13.0652    0.5358 H         1 <0>         0.0746
     48 H21         0.2848  -12.8324    1.8062 H         1 <0>         0.0837
     49 H22         1.6810  -11.8565   -3.8477 H         1 <0>         0.0614
     50 H23         1.2052  -13.3315   -2.9723 H         1 <0>         0.0630
     51 H24         0.1386  -12.6590   -4.2287 H         1 <0>         0.1053
@<TRIPOS>BOND
     1    1    2 1
     2    1   28 1
     3    1   29 1
     4    1   30 1
     5    2    3 1
     6    2   31 1
     7    2   32 1
     8    3    4 1
     9    4    5 1
    10    4   33 1
    11    4   34 1
    12    5   10 ar
    13    5    6 ar
    14    6    7 ar
    15    6   35 1
    16    7    8 ar
    17    7   36 1
    18    8    9 ar
    19    8   37 1
    20    9   10 ar
    21    9   38 1
    22   10   11 1
    23   11   12 1
    24   11   39 1
    25   12   13 1
    26   12   40 1
    27   12   41 1
    28   13   14 2
    29   13   15 am
    30   15   16 1
    31   15   42 1
    32   16   20 1
    33   16   17 2
    34   17   18 1
    35   17   24 1
    36   18   23 1
    37   18   19 2
    38   19   20 1
    39   19   21 1
    40   21   22 1
    41   21   43 1
    42   21   44 1
    43   22   23 1
    44   22   45 1
    45   22   46 1
    46   23   47 1
    47   23   48 1
    48   24   25 2
    49   24   26 1
    50   26   27 1
    51   27   49 1
    52   27   50 1
    53   27   51 1
@<TRIPOS>MOLECULE
ZINC66642497
   47    48     0     0     0
SMALL
USER_CHARGES

@<TRIPOS>ATOM
      1 C1         -0.0167    1.3784    0.0096 C.ar      1 <0>        -0.1572
      2 C2          1.1698    2.0883    0.0021 C.ar      1 <0>        -0.0813
      3 C3          2.3773    1.4175   -0.0134 C.ar      1 <0>        -0.1516
      4 C4          2.3989    0.0304   -0.0210 C.ar      1 <0>         0.1290
      5 C5          1.2070   -0.6796   -0.0130 C.ar      1 <0>        -0.2078
      6 C6          0.0021   -0.0041    0.0020 C.ar      1 <0>        -0.0803
      7 O1          3.5855   -0.6319   -0.0368 O.3       1 <0>        -0.3169
      8 C7          3.5315   -2.0598   -0.0438 C.3       1 <0>         0.0756
      9 C8          4.9536   -2.6239   -0.0615 C.3       1 <0>        -0.1312
     10 C9          4.8966   -4.1298   -0.0689 C.2       1 <0>         0.5223
     11 O2          3.8241   -4.6962   -0.0609 O.2       1 <0>        -0.5373
     12 N1          6.0374   -4.8473   -0.0845 N.am      1 <0>        -0.5222
     13 N2          5.9844   -6.2473   -0.0914 N.am      1 <0>        -0.5254
     14 C10         7.1253   -6.9647   -0.1070 C.2       1 <0>         0.5153
     15 O3          8.1977   -6.3984   -0.1150 O.2       1 <0>        -0.5349
     16 C11         7.0683   -8.4706   -0.1144 C.3       1 <0>        -0.1261
     17 C12         8.4904   -9.0347   -0.1320 C.3       1 <0>        -0.0624
     18 C13         8.4334  -10.5406   -0.1395 C.ar      1 <0>        -0.1025
     19 C14         8.4140  -11.2365    1.0552 C.ar      1 <0>        -0.0772
     20 C15         8.3622  -12.6169    1.0511 C.ar      1 <0>        -0.1202
     21 C16         8.3293  -13.3051   -0.1531 C.ar      1 <0>         0.1025
     22 C17         8.3484  -12.6046   -1.3504 C.ar      1 <0>        -0.1873
     23 C18         8.3950  -11.2239   -1.3409 C.ar      1 <0>        -0.0726
     24 O4          8.2788  -14.6631   -0.1598 O.3       1 <0>        -0.3107
     25 C19         8.2472  -15.3048   -1.4362 C.3       1 <0>         0.6042
     26 F1          9.3984  -14.9679   -2.1562 F         1 <0>        -0.1643
     27 F2          8.1967  -16.6918   -1.2598 F         1 <0>        -0.1298
     28 F3          7.1154  -14.8831   -2.1423 F         1 <0>        -0.1646
     29 H1         -0.9596    1.9047    0.0260 H         1 <0>         0.1245
     30 H2          1.1525    3.1682    0.0080 H         1 <0>         0.1302
     31 H3          3.3038    1.9724   -0.0200 H         1 <0>         0.1311
     32 H4          1.2211   -1.7595   -0.0193 H         1 <0>         0.1297
     33 H5         -0.9260   -0.5563    0.0082 H         1 <0>         0.1255
     34 H6          3.0134   -2.4083    0.8497 H         1 <0>         0.0741
     35 H7          2.9951   -2.3988   -0.9302 H         1 <0>         0.0740
     36 H8          5.4716   -2.2755   -0.9550 H         1 <0>         0.1143
     37 H9          5.4899   -2.2850    0.8248 H         1 <0>         0.1143
     38 H10         6.8951   -4.3944   -0.0909 H         1 <0>         0.4349
     39 H11         5.1267   -6.7002   -0.0850 H         1 <0>         0.4335
     40 H12         6.5503   -8.8191    0.7791 H         1 <0>         0.1043
     41 H13         6.5320   -8.8096   -1.0007 H         1 <0>         0.1037
     42 H14         9.0084   -8.6863   -1.0255 H         1 <0>         0.0857
     43 H15         9.0267   -8.6958    0.7543 H         1 <0>         0.0865
     44 H16         8.4396  -10.7003    1.9924 H         1 <0>         0.1391
     45 H17         8.3477  -13.1600    1.9845 H         1 <0>         0.1404
     46 H18         8.3229  -13.1380   -2.2891 H         1 <0>         0.1346
     47 H19         8.4055  -10.6779   -2.2727 H         1 <0>         0.1345
@<TRIPOS>BOND
     1    1    6 ar
     2    1    2 ar
     3    1   29 1
     4    2    3 ar
     5    2   30 1
     6    3    4 ar
     7    3   31 1
     8    4    5 ar
     9    4    7 1
    10    5    6 ar
    11    5   32 1
    12    6   33 1
    13    7    8 1
    14    8    9 1
    15    8   34 1
    16    8   35 1
    17    9   10 1
    18    9   36 1
    19    9   37 1
    20   10   11 2
    21   10   12 am
    22   12   13 1
    23   12   38 1
    24   13   14 am
    25   13   39 1
    26   14   15 2
    27   14   16 1
    28   16   17 1
    29   16   40 1
    30   16   41 1
    31   17   18 1
    32   17   42 1
    33   17   43 1
    34   18   23 ar
    35   18   19 ar
    36   19   20 ar
    37   19   44 1
    38   20   21 ar
    39   20   45 1
    40   21   22 ar
    41   21   24 1
    42   22   23 ar
    43   22   46 1
    44   23   47 1
    45   24   25 1
    46   25   26 1
    47   25   27 1
    48   25   28 1
@<TRIPOS>MOLECULE
ZINC03255547
   57    59     0     0     0
SMALL
USER_CHARGES
ethyl 2-[2-[3-(4-hydroxy-3-methoxy-phenyl)prop-2-enoyloxy]acetyl]amino-4,5,6,7-tetrahydrobenzothiophene-3-carboxylate
@<TRIPOS>ATOM
      1 C1          8.5310   -1.8550    2.4443 C.3       1 <0>        -0.1533
      2 C2          8.3419   -1.2973    1.0321 C.3       1 <0>         0.0577
      3 O1          7.8948    0.0818    1.1122 O.3       1 <0>        -0.3499
      4 C3          7.6796    0.7245   -0.0540 C.2       1 <0>         0.5312
      5 O2          7.8610    0.1470   -1.1092 O.2       1 <0>        -0.4937
      6 C4          7.2276    2.1173   -0.0499 C.2       1 <0>        -0.2027
      7 C5          8.1767    3.2181   -0.0592 C.2       1 <0>        -0.0626
      8 C6          7.6271    4.4516   -0.0466 C.2       1 <0>        -0.2039
      9 S1          5.8795    4.1687   -0.0311 S.3       1 <0>         0.2476
     10 C7          5.8761    2.4362   -0.0410 C.2       1 <0>         0.0774
     11 N1          4.7884    1.5769   -0.0352 N.am      1 <0>        -0.6176
     12 C8          3.5362    2.0751   -0.0206 C.2       1 <0>         0.5124
     13 O3          3.3610    3.2751   -0.0124 O.2       1 <0>        -0.4703
     14 C9          2.3537    1.1409   -0.0143 C.3       1 <0>         0.0570
     15 O4          1.1448    1.9028    0.0013 O.3       1 <0>        -0.3254
     16 C10        -0.0144    1.2123    0.0087 C.2       1 <0>         0.5089
     17 O5          0.0021   -0.0041    0.0020 O.2       1 <0>        -0.5102
     18 C11        -1.2517    1.9044    0.0183 C.2       1 <0>        -0.2072
     19 C12        -2.4124    1.2131    0.0201 C.2       1 <0>         0.0184
     20 C13        -3.6949    1.9305    0.0301 C.ar      1 <0>        -0.0602
     21 C14        -3.7163    3.3301    0.0378 C.ar      1 <0>        -0.1104
     22 C15        -4.9198    3.9999    0.0466 C.ar      1 <0>        -0.1105
     23 C16        -6.1136    3.2904    0.0475 C.ar      1 <0>         0.0978
     24 C17        -6.1007    1.8960    0.0399 C.ar      1 <0>         0.0993
     25 C18        -4.8989    1.2162    0.0260 C.ar      1 <0>        -0.1647
     26 O6         -7.2723    1.2054    0.0412 O.3       1 <0>        -0.3056
     27 C19        -7.1846   -0.2209    0.0330 C.3       1 <0>         0.0221
     28 O7         -7.2971    3.9565    0.0554 O.3       1 <0>        -0.4846
     29 C20         8.3506    5.7628   -0.0449 C.3       1 <0>        -0.0364
     30 C21         9.8201    5.5040    0.3179 C.3       1 <0>        -0.1151
     31 C22        10.3402    4.3401   -0.5307 C.3       1 <0>        -0.1190
     32 C23         9.6890    3.0329   -0.0754 C.3       1 <0>        -0.0635
     33 H1          7.5840   -1.8107    2.9822 H         1 <0>         0.0669
     34 H2          8.8666   -2.8903    2.3842 H         1 <0>         0.0822
     35 H3          9.2770   -1.2612    2.9725 H         1 <0>         0.0683
     36 H4          7.5959   -1.8910    0.5039 H         1 <0>         0.0707
     37 H5          9.2889   -1.3416    0.4942 H         1 <0>         0.0724
     38 H6          4.9285    0.6171   -0.0417 H         1 <0>         0.4215
     39 H7          2.3956    0.5077    0.8719 H         1 <0>         0.1105
     40 H8          2.3786    0.5173   -0.9079 H         1 <0>         0.1104
     41 H9         -1.2664    2.9843    0.0243 H         1 <0>         0.1475
     42 H10        -2.3978    0.1332    0.0141 H         1 <0>         0.1420
     43 H11        -2.7895    3.8845    0.0364 H         1 <0>         0.1395
     44 H12        -4.9351    5.0798    0.0526 H         1 <0>         0.1441
     45 H13        -4.8877    0.1363    0.0156 H         1 <0>         0.1404
     46 H14        -6.6533   -0.5472   -0.8610 H         1 <0>         0.0576
     47 H15        -6.6456   -0.5569    0.9189 H         1 <0>         0.0581
     48 H16        -8.1880   -0.6466    0.0351 H         1 <0>         0.1047
     49 H17        -7.6432    4.1540   -0.8257 H         1 <0>         0.3922
     50 H18         8.2911    6.2163   -1.0344 H         1 <0>         0.0848
     51 H19         7.9018    6.4290    0.6918 H         1 <0>         0.0836
     52 H20        10.4099    6.3975    0.1131 H         1 <0>         0.0756
     53 H21         9.8962    5.2505    1.3753 H         1 <0>         0.0696
     54 H22        10.0984    4.5194   -1.5783 H         1 <0>         0.0683
     55 H23        11.4215    4.2636   -0.4166 H         1 <0>         0.0718
     56 H24         9.9519    2.2332   -0.7678 H         1 <0>         0.0736
     57 H25        10.0390    2.7796    0.9253 H         1 <0>         0.0808
@<TRIPOS>BOND
     1    1    2 1
     2    1   33 1
     3    1   34 1
     4    1   35 1
     5    2    3 1
     6    2   36 1
     7    2   37 1
     8    3    4 1
     9    4    5 2
    10    4    6 1
    11    6   10 2
    12    6    7 1
    13    7   32 1
    14    7    8 2
    15    8    9 1
    16    8   29 1
    17    9   10 1
    18   10   11 1
    19   11   12 am
    20   11   38 1
    21   12   13 2
    22   12   14 1
    23   14   15 1
    24   14   39 1
    25   14   40 1
    26   15   16 1
    27   16   17 2
    28   16   18 1
    29   18   19 2
    30   18   41 1
    31   19   20 1
    32   19   42 1
    33   20   25 ar
    34   20   21 ar
    35   21   22 ar
    36   21   43 1
    37   22   23 ar
    38   22   44 1
    39   23   24 ar
    40   23   28 1
    41   24   25 ar
    42   24   26 1
    43   25   45 1
    44   26   27 1
    45   27   46 1
    46   27   47 1
    47   27   48 1
    48   28   49 1
    49   29   30 1
    50   29   50 1
    51   29   51 1
    52   30   31 1
    53   30   52 1
    54   30   53 1
    55   31   32 1
    56   31   54 1
    57   31   55 1
    58   32   56 1
    59   32   57 1
@<TRIPOS>MOLECULE
ZINC10294597
   65    66     0     0     0
SMALL
USER_CHARGES
isopentyl 2-[3-oxo-1-[(4-sec-butoxybenzoyl)thiocarbamoyl]piperazin-2-yl]acetate
@<TRIPOS>ATOM
      1 C1         13.0410    3.9882    6.2271 C.3       1 <0>        -0.1560
      2 C2         12.7043    5.4181    6.6549 C.3       1 <0>        -0.1217
      3 C3         11.1992    5.5349    6.9039 C.3       1 <0>         0.0762
      4 H1         10.8912    4.7807    7.6281 H         1 <0>         0.0780
      5 C4         10.8794    6.9276    7.4507 C.3       1 <0>        -0.1789
      6 O1         10.4962    5.3320    5.6765 O.3       1 <0>        -0.3007
      7 C5          9.2647    4.7676    5.7579 C.ar      1 <0>         0.1662
      8 C6          8.6910    4.5323    7.0020 C.ar      1 <0>        -0.2197
      9 C7          7.4398    3.9642    7.0889 C.ar      1 <0>        -0.0410
     10 C8          6.7511    3.6139    5.9242 C.ar      1 <0>        -0.1741
     11 C9          7.3338    3.8474    4.6753 C.ar      1 <0>        -0.0120
     12 C10         8.5830    4.4211    4.5971 C.ar      1 <0>        -0.1594
     13 C11         5.4126    2.9999    6.0127 C.2       1 <0>         0.5431
     14 O2          4.8150    2.6963    4.9987 O.2       1 <0>        -0.4121
     15 N1          4.8525    2.7756    7.2178 N.am      1 <0>        -0.6109
     16 C12         3.6297    2.2146    7.2987 C.2       1 <0>         0.5521
     17 S1          2.8378    1.6795    5.8783 S.2       1 <0>        -0.5197
     18 N2          3.0303    2.0750    8.4977 N.pl3     1 <0>        -0.5738
     19 C13         1.6730    1.5158    8.6154 C.3       1 <0>         0.0837
     20 C14         1.7610    0.2345    9.4555 C.3       1 <0>         0.0934
     21 N3          2.5616    0.4562   10.6519 N.am      1 <0>        -0.7086
     22 C15         3.4658    1.4271   10.7887 C.2       1 <0>         0.5239
     23 O3          4.1273    1.4626   11.8046 O.2       1 <0>        -0.5282
     24 C16         3.7026    2.4804    9.7411 C.3       1 <0>         0.1273
     25 H2          4.7728    2.5821    9.5610 H         1 <0>         0.1222
     26 C17         3.1340    3.8183   10.2183 C.3       1 <0>        -0.1256
     27 C18         3.5104    4.9015    9.2406 C.2       1 <0>         0.4690
     28 O4          4.0828    4.6176    8.2152 O.2       1 <0>        -0.5094
     29 O5          3.2098    6.1819    9.5091 O.3       1 <0>        -0.3485
     30 C19         3.6026    7.1721    8.5224 C.3       1 <0>         0.0670
     31 C20         3.1792    8.5629    8.9990 C.3       1 <0>        -0.1157
     32 C21         3.5931    9.6062    7.9593 C.3       1 <0>        -0.0930
     33 C22         2.8171    9.3693    6.6621 C.3       1 <0>        -0.1552
     34 C23         3.2825   11.0069    8.4907 C.3       1 <0>        -0.1474
     35 H3         12.7483    3.2947    7.0154 H         1 <0>         0.0530
     36 H4         12.5014    3.7463    5.3115 H         1 <0>         0.0612
     37 H5         14.1132    3.9050    6.0497 H         1 <0>         0.0599
     38 H6         12.9970    6.1116    5.8666 H         1 <0>         0.0762
     39 H7         13.2440    5.6600    7.5705 H         1 <0>         0.0836
     40 H8          9.8071    7.0108    7.6282 H         1 <0>         0.0619
     41 H9         11.4157    7.0823    8.3870 H         1 <0>         0.0748
     42 H10        11.1874    7.6818    6.7266 H         1 <0>         0.0700
     43 H11         9.2257    4.7992    7.9016 H         1 <0>         0.1365
     44 H12         6.9930    3.7855    8.0558 H         1 <0>         0.1190
     45 H13         6.8048    3.5785    3.7730 H         1 <0>         0.1470
     46 H14         9.0340    4.6018    3.6326 H         1 <0>         0.1413
     47 H15         5.3294    3.0179    8.0270 H         1 <0>         0.4056
     48 H16         1.0196    2.2365    9.1070 H         1 <0>         0.0911
     49 H17         1.2842    1.2823    7.6242 H         1 <0>         0.1489
     50 H18         2.2169   -0.5567    8.8603 H         1 <0>         0.0835
     51 H19         0.7560   -0.0702    9.7477 H         1 <0>         0.1043
     52 H20         2.4275   -0.1442   11.4018 H         1 <0>         0.4101
     53 H21         2.0481    3.7490   10.2835 H         1 <0>         0.1246
     54 H22         3.5424    4.0571   11.2003 H         1 <0>         0.1372
     55 H23         4.6845    7.1462    8.3925 H         1 <0>         0.0724
     56 H24         3.1172    6.9503    7.5719 H         1 <0>         0.0763
     57 H25         2.0973    8.5887    9.1288 H         1 <0>         0.0762
     58 H26         3.6646    8.7846    9.9494 H         1 <0>         0.0757
     59 H27         4.6620    9.5204    7.7641 H         1 <0>         0.0730
     60 H28         1.7482    9.4551    6.8573 H         1 <0>         0.0580
     61 H29         3.1120   10.1126    5.9214 H         1 <0>         0.0596
     62 H30         3.0384    8.3714    6.2835 H         1 <0>         0.0555
     63 H31         3.8353   11.1758    9.4149 H         1 <0>         0.0566
     64 H32         3.5774   11.7502    7.7500 H         1 <0>         0.0594
     65 H33         2.2136   11.0927    8.6859 H         1 <0>         0.0573
@<TRIPOS>BOND
     1    1    2 1
     2    1   35 1
     3    1   36 1
     4    1   37 1
     5    2    3 1
     6    2   38 1
     7    2   39 1
     8    3    4 1
     9    3    5 1
    10    3    6 1
    11    5   40 1
    12    5   41 1
    13    5   42 1
    14    6    7 1
    15    7   12 ar
    16    7    8 ar
    17    8    9 ar
    18    8   43 1
    19    9   10 ar
    20    9   44 1
    21   10   11 ar
    22   10   13 1
    23   11   12 ar
    24   11   45 1
    25   12   46 1
    26   13   14 2
    27   13   15 am
    28   15   16 1
    29   15   47 1
    30   16   17 2
    31   16   18 1
    32   18   24 1
    33   18   19 1
    34   19   20 1
    35   19   48 1
    36   19   49 1
    37   20   21 1
    38   20   50 1
    39   20   51 1
    40   21   22 am
    41   21   52 1
    42   22   23 2
    43   22   24 1
    44   24   25 1
    45   24   26 1
    46   26   27 1
    47   26   53 1
    48   26   54 1
    49   27   28 2
    50   27   29 1
    51   29   30 1
    52   30   31 1
    53   30   55 1
    54   30   56 1
    55   31   32 1
    56   31   57 1
    57   31   58 1
    58   32   33 1
    59   32   34 1
    60   32   59 1
    61   33   60 1
    62   33   61 1
    63   33   62 1
    64   34   63 1
    65   34   64 1
    66   34   65 1
@<TRIPOS>MOLECULE
ZINC18252596
   62    63     0     0     0
SMALL
USER_CHARGES
methyl 2,4-dimethyl-5-[(2R)-2-[(2S)-3-methyl-2-[(3-methylbenzoyl)amino]butanoyl]oxypropanoyl]-1H-pyrrole-3-carboxylate
@<TRIPOS>ATOM
      1 C1         -5.1756   -4.0492    3.1891 C.3       1 <0>        -0.1173
      2 C2         -4.9926   -2.6822    2.5818 C.ar      1 <0>        -0.0924
      3 C3         -6.0869   -1.9938    2.0884 C.ar      1 <0>        -0.0916
      4 C4         -5.9275   -0.7386    1.5290 C.ar      1 <0>        -0.1220
      5 C5         -4.6745   -0.1651    1.4593 C.ar      1 <0>        -0.0910
      6 C6         -3.5667   -0.8540    1.9551 C.ar      1 <0>        -0.1330
      7 C7         -3.7338   -2.1222    2.5139 C.ar      1 <0>        -0.0581
      8 C8         -2.2210   -0.2457    1.8832 C.2       1 <0>         0.5676
      9 O1         -1.2579   -0.8481    2.3159 O.2       1 <0>        -0.5271
     10 N1         -2.0622    0.9766    1.3380 N.am      1 <0>        -0.7144
     11 C9         -0.7288    1.5792    1.2668 C.3       1 <0>         0.1609
     12 H1         -0.1536    1.2938    2.1476 H         1 <0>         0.1312
     13 C10        -0.0127    1.0858    0.0080 C.3       1 <0>        -0.1008
     14 C11         1.4227    1.6154   -0.0028 C.3       1 <0>        -0.1578
     15 C12        -0.7527    1.5927   -1.2315 C.3       1 <0>        -0.1528
     16 C13        -0.8579    3.0798    1.2157 C.2       1 <0>         0.4673
     17 O2         -1.9515    3.5932    1.2367 O.2       1 <0>        -0.5022
     18 O3          0.2420    3.8461    1.1470 O.3       1 <0>        -0.3159
     19 C14         0.0422    5.2835    1.1009 C.3       1 <0>         0.0519
     20 H2         -0.7946    5.5197    1.5948 H         1 <0>         0.0926
     21 C15        -0.0808    5.7349   -0.3559 C.3       1 <0>        -0.1685
     22 C16         1.2169    5.9749    1.7435 C.2       1 <0>         0.4225
     23 O4          2.2733    5.3891    1.8663 O.2       1 <0>        -0.4161
     24 C17         1.0887    7.3073    2.2041 C.2       1 <0>        -0.0993
     25 C18         2.0776    8.0541    2.8073 C.2       1 <0>         0.0036
     26 C19         1.5160    9.3156    3.0992 C.2       1 <0>        -0.2175
     27 C20         0.2030    9.2898    2.6620 C.2       1 <0>         0.1382
     28 N2         -0.0466    8.0877    2.1224 N.pl3     1 <0>        -0.5167
     29 H3         -0.8924    7.8097    1.7375 H         1 <0>         0.4256
     30 C21        -0.7811   10.4260    2.7692 C.3       1 <0>        -0.1051
     31 C22         2.1994   10.4478    3.7475 C.2       1 <0>         0.5460
     32 O5          2.7878   11.2694    3.0726 O.2       1 <0>        -0.4927
     33 O6          2.1722   10.5726    5.0890 O.3       1 <0>        -0.3513
     34 C23         2.8671   11.7129    5.6592 C.3       1 <0>         0.0326
     35 C24         3.4878    7.6095    3.0983 C.3       1 <0>        -0.1047
     36 H4         -5.0738   -4.8080    2.4132 H         1 <0>         0.0743
     37 H5         -4.4183   -4.2103    3.9564 H         1 <0>         0.0704
     38 H6         -6.1670   -4.1181    3.6369 H         1 <0>         0.0698
     39 H7         -7.0697   -2.4385    2.1399 H         1 <0>         0.1288
     40 H8         -6.7857   -0.2066    1.1457 H         1 <0>         0.1308
     41 H9         -4.5513    0.8145    1.0217 H         1 <0>         0.1253
     42 H10        -2.8799   -2.6624    2.8953 H         1 <0>         0.1376
     43 H11        -2.8308    1.4572    0.9928 H         1 <0>         0.4097
     44 H12         0.0021   -0.0041    0.0020 H         1 <0>         0.0957
     45 H13         1.4079    2.7053    0.0031 H         1 <0>         0.0783
     46 H14         1.9499    1.2543    0.8802 H         1 <0>         0.0629
     47 H15         1.9329    1.2639   -0.8996 H         1 <0>         0.0638
     48 H16        -0.2425    1.2411   -2.1283 H         1 <0>         0.0683
     49 H17        -1.7753    1.2154   -1.2238 H         1 <0>         0.0578
     50 H18        -0.7675    2.6825   -1.2255 H         1 <0>         0.0509
     51 H19        -0.2308    6.8139   -0.3905 H         1 <0>         0.0796
     52 H20         0.8314    5.4774   -0.8942 H         1 <0>         0.0819
     53 H21        -0.9304    5.2348   -0.8207 H         1 <0>         0.0797
     54 H22        -0.7188   11.0462    1.8750 H         1 <0>         0.0921
     55 H23        -1.7902   10.0250    2.8636 H         1 <0>         0.0828
     56 H24        -0.5461   11.0287    3.6465 H         1 <0>         0.0905
     57 H25         3.9225   11.6666    5.3907 H         1 <0>         0.0654
     58 H26         2.4334   12.6342    5.2704 H         1 <0>         0.0649
     59 H27         2.7671   11.6939    6.7444 H         1 <0>         0.1043
     60 H28         4.1270    7.8491    2.2485 H         1 <0>         0.0824
     61 H29         3.8553    8.1245    3.9859 H         1 <0>         0.0689
     62 H30         3.5012    6.5333    3.2710 H         1 <0>         0.0915
@<TRIPOS>BOND
     1    1    2 1
     2    1   36 1
     3    1   37 1
     4    1   38 1
     5    2    7 ar
     6    2    3 ar
     7    3    4 ar
     8    3   39 1
     9    4    5 ar
    10    4   40 1
    11    5    6 ar
    12    5   41 1
    13    6    7 ar
    14    6    8 1
    15    7   42 1
    16    8    9 2
    17    8   10 am
    18   10   11 1
    19   10   43 1
    20   11   12 1
    21   11   13 1
    22   11   16 1
    23   13   14 1
    24   13   15 1
    25   13   44 1
    26   14   45 1
    27   14   46 1
    28   14   47 1
    29   15   48 1
    30   15   49 1
    31   15   50 1
    32   16   17 2
    33   16   18 1
    34   18   19 1
    35   19   20 1
    36   19   21 1
    37   19   22 1
    38   21   51 1
    39   21   52 1
    40   21   53 1
    41   22   23 2
    42   22   24 1
    43   24   28 1
    44   24   25 2
    45   25   26 1
    46   25   35 1
    47   26   27 2
    48   26   31 1
    49   27   28 1
    50   27   30 1
    51   28   29 1
    52   30   54 1
    53   30   55 1
    54   30   56 1
    55   31   32 2
    56   31   33 1
    57   33   34 1
    58   34   57 1
    59   34   58 1
    60   34   59 1
    61   35   60 1
    62   35   61 1
    63   35   62 1
@<TRIPOS>MOLECULE
ZINC35363050
   64    67     0     0     0
SMALL
USER_CHARGES

@<TRIPOS>ATOM
      1 C1         -0.0187    1.5258    0.0104 C.3       1 <0>        -0.1526
      2 C2          0.0021   -0.0041    0.0020 C.3       1 <0>         0.0575
      3 O1          0.6709   -0.4649   -1.1737 O.3       1 <0>        -0.3445
      4 C3          0.7759   -1.7987   -1.3348 C.2       1 <0>         0.5471
      5 O2          0.3121   -2.5500   -0.4997 O.2       1 <0>        -0.4929
      6 C4          1.4526   -2.3460   -2.5229 C.2       1 <0>        -0.2173
      7 C5          2.8256   -2.6522   -2.6382 C.2       1 <0>         0.0040
      8 C6          3.0202   -3.1372   -3.9134 C.2       1 <0>        -0.0999
      9 N1          1.8032   -3.1298   -4.5640 N.pl3     1 <0>        -0.5168
     10 H1          1.6527   -3.4214   -5.4769 H         1 <0>         0.4265
     11 C7          0.8601   -2.6619   -3.7333 C.2       1 <0>         0.1386
     12 C8         -0.6016   -2.5031   -4.0638 C.3       1 <0>        -0.1054
     13 C9          4.2529   -3.5677   -4.4603 C.2       1 <0>         0.4228
     14 O3          5.2627   -3.5271   -3.7874 O.2       1 <0>        -0.4192
     15 C10         4.3118   -4.0763   -5.8776 C.3       1 <0>         0.0167
     16 O4          5.6547   -4.4476   -6.1950 O.3       1 <0>        -0.3218
     17 C11         5.8796   -4.9241   -7.4296 C.2       1 <0>         0.4630
     18 O5          4.9665   -5.0228   -8.2147 O.2       1 <0>        -0.5022
     19 C12         7.2710   -5.3362   -7.8363 C.3       1 <0>         0.1274
     20 N2          7.2528   -5.8179   -9.2197 N.am      1 <0>        -0.7255
     21 C13         8.3925   -6.2423   -9.8005 C.2       1 <0>         0.5292
     22 O6          9.4332   -6.2254   -9.1779 O.2       1 <0>        -0.5293
     23 C14         8.3739   -6.7378  -11.2236 C.3       1 <0>        -0.0660
     24 C15         7.4336   -7.9399  -11.3328 C.3       1 <0>        -0.1016
     25 C16         7.4146   -8.4430  -12.7775 C.3       1 <0>        -0.0839
     26 C17         8.8272   -8.8613  -13.1905 C.3       1 <0>        -0.1108
     27 C18         9.7675   -7.6593  -13.0813 C.3       1 <0>        -0.0869
     28 C19         9.7864   -7.1561  -11.6366 C.3       1 <0>        -0.0878
     29 C20         9.2762   -6.5420  -14.0040 C.3       1 <0>        -0.1108
     30 C21         7.8636   -6.1237  -13.5911 C.3       1 <0>        -0.0839
     31 C22         6.9233   -7.3257  -13.7002 C.3       1 <0>        -0.1105
     32 C23         7.8826   -5.6206  -12.1463 C.3       1 <0>        -0.1016
     33 C24         3.8768   -2.4810   -1.5720 C.3       1 <0>        -0.1048
     34 H2          1.0039    1.9031    0.0027 H         1 <0>         0.0676
     35 H3         -0.5459    1.8868   -0.8726 H         1 <0>         0.0668
     36 H4         -0.5289    1.8773    0.9072 H         1 <0>         0.0810
     37 H5          0.5293   -0.3651    0.8851 H         1 <0>         0.0695
     38 H6         -1.0205   -0.3814    0.0098 H         1 <0>         0.0691
     39 H7         -0.7741   -1.5107   -4.4805 H         1 <0>         0.0930
     40 H8         -0.8934   -3.2590   -4.7928 H         1 <0>         0.0825
     41 H9         -1.1944   -2.6246   -3.1572 H         1 <0>         0.0902
     42 H10         3.6610   -4.9447   -5.9794 H         1 <0>         0.1029
     43 H11         3.9809   -3.2924   -6.5590 H         1 <0>         0.1030
     44 H12         7.9408   -4.4798   -7.7585 H         1 <0>         0.1177
     45 H13         7.6210   -6.1321   -7.1790 H         1 <0>         0.1177
     46 H14         6.4205   -5.8314   -9.7177 H         1 <0>         0.4118
     47 H15         7.7836   -8.7358  -10.6754 H         1 <0>         0.0694
     48 H16         6.4272   -7.6418  -11.0386 H         1 <0>         0.0668
     49 H17         6.7448   -9.2993  -12.8553 H         1 <0>         0.0753
     50 H18         9.1772   -9.6572  -12.5332 H         1 <0>         0.0638
     51 H19         8.8137   -9.2197  -14.2198 H         1 <0>         0.0652
     52 H20        10.7738   -7.9573  -13.3755 H         1 <0>         0.0756
     53 H21        10.4563   -6.2998  -11.5588 H         1 <0>         0.0708
     54 H22        10.1364   -7.9521  -10.9792 H         1 <0>         0.0708
     55 H23         9.9461   -5.6857  -13.9263 H         1 <0>         0.0638
     56 H24         9.2627   -6.9004  -15.0333 H         1 <0>         0.0651
     57 H25         7.5136   -5.3278  -14.2484 H         1 <0>         0.0753
     58 H26         6.9098   -7.6842  -14.7295 H         1 <0>         0.0661
     59 H27         5.9170   -7.0277  -13.4060 H         1 <0>         0.0635
     60 H28         6.8762   -5.3226  -11.8521 H         1 <0>         0.0668
     61 H29         8.5525   -4.7642  -12.0685 H         1 <0>         0.0694
     62 H30         3.9456   -3.3934   -0.9798 H         1 <0>         0.0823
     63 H31         4.8398   -2.2784   -2.0406 H         1 <0>         0.0916
     64 H32         3.6052   -1.6472   -0.9246 H         1 <0>         0.0689
@<TRIPOS>BOND
     1    1    2 1
     2    1   34 1
     3    1   35 1
     4    1   36 1
     5    2    3 1
     6    2   37 1
     7    2   38 1
     8    3    4 1
     9    4    5 2
    10    4    6 1
    11    6   11 2
    12    6    7 1
    13    7    8 2
    14    7   33 1
    15    8    9 1
    16    8   13 1
    17    9   10 1
    18    9   11 1
    19   11   12 1
    20   12   39 1
    21   12   40 1
    22   12   41 1
    23   13   14 2
    24   13   15 1
    25   15   16 1
    26   15   42 1
    27   15   43 1
    28   16   17 1
    29   17   18 2
    30   17   19 1
    31   19   20 1
    32   19   44 1
    33   19   45 1
    34   20   21 am
    35   20   46 1
    36   21   22 2
    37   21   23 1
    38   23   28 1
    39   23   32 1
    40   23   24 1
    41   24   25 1
    42   24   47 1
    43   24   48 1
    44   25   31 1
    45   25   26 1
    46   25   49 1
    47   26   27 1
    48   26   50 1
    49   26   51 1
    50   27   28 1
    51   27   29 1
    52   27   52 1
    53   28   53 1
    54   28   54 1
    55   29   30 1
    56   29   55 1
    57   29   56 1
    58   30   31 1
    59   30   32 1
    60   30   57 1
    61   31   58 1
    62   31   59 1
    63   32   60 1
    64   32   61 1
    65   33   62 1
    66   33   63 1
    67   33   64 1
@<TRIPOS>MOLECULE
ZINC38484807
   55    58     0     0     0
SMALL
USER_CHARGES

@<TRIPOS>ATOM
      1 C1         -0.0167    1.3781    0.0096 C.ar      1 <0>        -0.1197
      2 C2          1.1709    2.0855    0.0021 C.ar      1 <0>        -0.1177
      3 C3          2.3773    1.4107   -0.0130 C.ar      1 <0>        -0.1131
      4 C4          2.3960    0.0285   -0.0201 C.ar      1 <0>        -0.0843
      5 C5          1.2084   -0.6789   -0.0117 C.ar      1 <0>        -0.1132
      6 C6          0.0021   -0.0041    0.0020 C.ar      1 <0>        -0.1179
      7 C7          3.7112   -0.7071   -0.0376 C.3       1 <0>        -0.0939
      8 C8          4.1714   -0.9633    1.3989 C.3       1 <0>         0.1320
      9 N1          5.4498   -1.6784    1.3820 N.pl3     1 <0>        -0.6970
     10 C9          6.0650   -2.0215    2.5699 C.ar      1 <0>         0.5191
     11 C10         7.2971   -2.7040    2.5736 C.ar      1 <0>        -0.3342
     12 C11         8.1687   -3.1847    1.5726 C.2       1 <0>         0.1103
     13 N2          9.1890   -3.7511    2.1512 N.2       1 <0>        -0.2502
     14 N3          9.0452   -3.6742    3.5423 N.pl3     1 <0>        -0.3790
     15 C12         7.8768   -3.0276    3.8156 C.ar      1 <0>         0.3734
     16 N4          7.2403   -2.6772    4.9323 N.ar      1 <0>        -0.5776
     17 C13         6.0912   -2.0406    4.8782 C.ar      1 <0>         0.3922
     18 N5          5.5118   -1.7111    3.7370 N.ar      1 <0>        -0.6048
     19 C14         9.9878   -4.1995    4.5331 C.3       1 <0>         0.1347
     20 C15        11.0156   -3.1209    4.8812 C.3       1 <0>         0.1071
     21 N6         11.9582   -3.6461    5.8720 N.am      1 <0>        -0.7248
     22 C16        12.9579   -2.8670    6.3304 C.2       1 <0>         0.5187
     23 O1         13.0772   -1.7311    5.9225 O.2       1 <0>        -0.5072
     24 C17        13.9276   -3.4073    7.3496 C.3       1 <0>         0.0411
     25 O2         14.8875   -2.3999    7.6747 O.3       1 <0>        -0.2859
     26 C18        15.8409   -2.7273    8.5865 C.ar      1 <0>         0.1337
     27 C19        15.8553   -3.9940    9.1519 C.ar      1 <0>        -0.1994
     28 C20        16.8251   -4.3248   10.0784 C.ar      1 <0>        -0.0682
     29 C21        17.7814   -3.3936   10.4429 C.ar      1 <0>        -0.0722
     30 C22        17.7684   -2.1295    9.8803 C.ar      1 <0>        -0.0679
     31 C23        16.8042   -1.7971    8.9485 C.ar      1 <0>        -0.1340
     32 Cl1        18.9987   -3.8115   11.6078 Cl        1 <0>        -0.0676
     33 H1         -0.9591    1.9053    0.0259 H         1 <0>         0.1224
     34 H2          1.1563    3.1654    0.0076 H         1 <0>         0.1231
     35 H3          3.3051    1.9634   -0.0196 H         1 <0>         0.1222
     36 H4          1.2231   -1.7588   -0.0176 H         1 <0>         0.1220
     37 H5         -0.9258   -0.5567    0.0082 H         1 <0>         0.1230
     38 H6          3.5884   -1.6586   -0.5549 H         1 <0>         0.0804
     39 H7          4.4573   -0.1052   -0.5563 H         1 <0>         0.0805
     40 H8          4.2941   -0.0118    1.9163 H         1 <0>         0.0749
     41 H9          3.4252   -1.5652    1.9176 H         1 <0>         0.0748
     42 H10         5.8643   -1.9110    0.5363 H         1 <0>         0.4129
     43 H11         8.0152   -3.0979    0.5071 H         1 <0>         0.1953
     44 H12         5.6031   -1.7725    5.8036 H         1 <0>         0.2041
     45 H13         9.4453   -4.4884    5.4333 H         1 <0>         0.1062
     46 H14        10.4995   -5.0698    4.1222 H         1 <0>         0.1050
     47 H15        11.5581   -2.8319    3.9810 H         1 <0>         0.0796
     48 H16        10.5039   -2.2506    5.2921 H         1 <0>         0.0782
     49 H17        11.8629   -4.5546    6.1982 H         1 <0>         0.4046
     50 H18        13.3851   -3.6963    8.2498 H         1 <0>         0.0983
     51 H19        14.4393   -4.2776    6.9387 H         1 <0>         0.0980
     52 H20        15.1086   -4.7209    8.8682 H         1 <0>         0.1375
     53 H21        16.8366   -5.3108   10.5189 H         1 <0>         0.1380
     54 H22        18.5155   -1.4039   10.1663 H         1 <0>         0.1428
     55 H23        16.7973   -0.8119    8.5060 H         1 <0>         0.1437
@<TRIPOS>BOND
     1    1    6 ar
     2    1    2 ar
     3    1   33 1
     4    2    3 ar
     5    2   34 1
     6    3    4 ar
     7    3   35 1
     8    4    5 ar
     9    4    7 1
    10    5    6 ar
    11    5   36 1
    12    6   37 1
    13    7    8 1
    14    7   38 1
    15    7   39 1
    16    8    9 1
    17    8   40 1
    18    8   41 1
    19    9   10 1
    20    9   42 1
    21   10   18 ar
    22   10   11 ar
    23   11   15 ar
    24   11   12 1
    25   12   13 2
    26   12   43 1
    27   13   14 1
    28   14   15 1
    29   14   19 1
    30   15   16 ar
    31   16   17 ar
    32   17   18 ar
    33   17   44 1
    34   19   20 1
    35   19   45 1
    36   19   46 1
    37   20   21 1
    38   20   47 1
    39   20   48 1
    40   21   22 am
    41   21   49 1
    42   22   23 2
    43   22   24 1
    44   24   25 1
    45   24   50 1
    46   24   51 1
    47   25   26 1
    48   26   31 ar
    49   26   27 ar
    50   27   28 ar
    51   27   52 1
    52   28   29 ar
    53   28   53 1
    54   29   30 ar
    55   29   32 1
    56   30   31 ar
    57   30   54 1
    58   31   55 1
@<TRIPOS>MOLECULE
ZINC03131674
   47    48     0     0     0
SMALL
USER_CHARGES
1-[[4-(2-cyanoethyl-methyl-amino)phenyl]methyleneamino]-3-(4-methoxyphenyl)-thiourea
@<TRIPOS>ATOM
      1 C1          2.6011    8.1328   -1.4712 C.3       1 <0>         0.0850
      2 N1          1.3265    7.4107   -1.4839 N.pl3     1 <0>        -0.6238
      3 C2          0.0994    8.0977   -1.8944 C.3       1 <0>         0.1247
      4 C3         -0.5646    8.7309   -0.6701 C.3       1 <0>        -0.0473
      5 C4         -1.7975    9.4212   -1.0826 C.1       1 <0>         0.2011
      6 N2         -2.7490    9.9539   -1.4009 N.1       1 <0>        -0.4232
      7 C5          1.2812    6.0689   -1.1050 C.ar      1 <0>         0.2395
      8 C6          2.4472    5.4183   -0.7155 C.ar      1 <0>        -0.1995
      9 C7          2.4066    4.0932   -0.3416 C.ar      1 <0>        -0.0285
     10 C8          1.1916    3.4025   -0.3535 C.ar      1 <0>        -0.1315
     11 C9          0.0228    4.0582   -0.7501 C.ar      1 <0>        -0.0215
     12 C10         0.0703    5.3848   -1.1181 C.ar      1 <0>        -0.2060
     13 C11         1.1440    1.9843    0.0455 C.2       1 <0>         0.1709
     14 N3          0.0148    1.3443    0.0338 N.2       1 <0>        -0.3053
     15 N4         -0.0304   -0.0036    0.4130 N.pl3     1 <0>        -0.5346
     16 C12        -1.2030   -0.6681    0.4010 C.2       1 <0>         0.5870
     17 S1         -1.2582   -2.3153    0.8643 S.2       1 <0>        -0.6022
     18 N5         -2.3320   -0.0358    0.0241 N.pl3     1 <0>        -0.6062
     19 C13        -3.5341   -0.7480   -0.0739 C.ar      1 <0>         0.0744
     20 C14        -4.3573   -0.5727   -1.1784 C.ar      1 <0>        -0.0761
     21 C15        -5.5395   -1.2795   -1.2771 C.ar      1 <0>        -0.2065
     22 C16        -5.9104   -2.1559   -0.2679 C.ar      1 <0>         0.1379
     23 C17        -5.0913   -2.3273    0.8385 C.ar      1 <0>        -0.1454
     24 C18        -3.9060   -1.6255    0.9359 C.ar      1 <0>        -0.0278
     25 O1         -7.0771   -2.8477   -0.3633 O.3       1 <0>        -0.3149
     26 C19        -7.8714   -2.6223   -1.5297 C.3       1 <0>         0.0257
     27 H1          3.0859    8.0312   -2.4422 H         1 <0>         0.0557
     28 H2          2.4191    9.1875   -1.2646 H         1 <0>         0.0726
     29 H3          3.2466    7.7171   -0.6975 H         1 <0>         0.0747
     30 H4          0.3432    8.8752   -2.6184 H         1 <0>         0.0894
     31 H5         -0.5843    7.3802   -2.3481 H         1 <0>         0.0889
     32 H6         -0.8083    7.9534    0.0539 H         1 <0>         0.1127
     33 H7          0.1191    9.4484   -0.2163 H         1 <0>         0.1121
     34 H8          3.3857    5.9527   -0.7066 H         1 <0>         0.1318
     35 H9          3.3125    3.5885   -0.0400 H         1 <0>         0.1309
     36 H10        -0.9171    3.5264   -0.7648 H         1 <0>         0.1299
     37 H11        -0.8330    5.8932   -1.4211 H         1 <0>         0.1286
     38 H12         2.0487    1.4776    0.3474 H         1 <0>         0.1259
     39 H13         0.7821   -0.4587    0.6842 H         1 <0>         0.4178
     40 H14        -2.3121    0.9124   -0.1792 H         1 <0>         0.4172
     41 H15        -4.0710    0.1133   -1.9619 H         1 <0>         0.1269
     42 H16        -6.1777   -1.1465   -2.1382 H         1 <0>         0.1332
     43 H17        -5.3809   -3.0096    1.6240 H         1 <0>         0.1375
     44 H18        -3.2683   -1.7594    1.7972 H         1 <0>         0.1544
     45 H19        -8.1498   -1.5698   -1.5818 H         1 <0>         0.0561
     46 H20        -7.2982   -2.8909   -2.4170 H         1 <0>         0.0566
     47 H21        -8.7720   -3.2343   -1.4798 H         1 <0>         0.1012
@<TRIPOS>BOND
     1    1    2 1
     2    1   27 1
     3    1   28 1
     4    1   29 1
     5    2    3 1
     6    2    7 1
     7    3    4 1
     8    3   30 1
     9    3   31 1
    10    4    5 1
    11    4   32 1
    12    4   33 1
    13    5    6 3
    14    7   12 ar
    15    7    8 ar
    16    8    9 ar
    17    8   34 1
    18    9   10 ar
    19    9   35 1
    20   10   11 ar
    21   10   13 1
    22   11   12 ar
    23   11   36 1
    24   12   37 1
    25   13   14 2
    26   13   38 1
    27   14   15 1
    28   15   16 1
    29   15   39 1
    30   16   17 2
    31   16   18 1
    32   18   19 1
    33   18   40 1
    34   19   24 ar
    35   19   20 ar
    36   20   21 ar
    37   20   41 1
    38   21   22 ar
    39   21   42 1
    40   22   23 ar
    41   22   25 1
    42   23   24 ar
    43   23   43 1
    44   24   44 1
    45   25   26 1
    46   26   45 1
    47   26   46 1
    48   26   47 1
@<TRIPOS>MOLECULE
ZINC17914254
   48    49     0     0     0
SMALL
USER_CHARGES
N-[2-[(3,4-difluorophenyl)amino]-2-oxo-ethyl]-4-(4-ethoxyphenyl)-4-oxo-butanamide
@<TRIPOS>ATOM
      1 C1         14.2092    4.0587   -0.0577 C.3       1 <0>        -0.1542
      2 C2         12.7169    3.7216   -0.0518 C.3       1 <0>         0.0512
      3 O1         12.5490    2.3026   -0.0683 O.3       1 <0>        -0.3105
      4 C3         11.2763    1.8329   -0.0656 C.ar      1 <0>         0.1673
      5 C4         11.0436    0.4618   -0.0810 C.ar      1 <0>        -0.1673
      6 C5          9.7591   -0.0181   -0.0779 C.ar      1 <0>        -0.0174
      7 C6          8.6807    0.8750   -0.0591 C.ar      1 <0>        -0.2161
      8 C7          8.9204    2.2547   -0.0494 C.ar      1 <0>        -0.0271
      9 C8         10.2087    2.7241   -0.0469 C.ar      1 <0>        -0.2247
     10 C9          7.3029    0.3665   -0.0556 C.2       1 <0>         0.4009
     11 O2          7.0976   -0.8288   -0.0690 O.2       1 <0>        -0.4562
     12 C10         6.1442    1.3299   -0.0354 C.3       1 <0>        -0.1407
     13 C11         4.8298    0.5468   -0.0358 C.3       1 <0>        -0.1330
     14 C12         3.6711    1.5102   -0.0156 C.2       1 <0>         0.5206
     15 O3          3.8765    2.7055   -0.0022 O.2       1 <0>        -0.5393
     16 N1          2.4067    1.0436   -0.0124 N.am      1 <0>        -0.7223
     17 C13         1.2804    1.9801    0.0073 C.3       1 <0>         0.1028
     18 C14        -0.0143    1.2089    0.0069 C.2       1 <0>         0.5113
     19 O4          0.0022   -0.0038   -0.0083 O.2       1 <0>        -0.5103
     20 N2         -1.1906    1.8667    0.0178 N.am      1 <0>        -0.6661
     21 C15        -2.3919    1.1547   -0.0860 C.ar      1 <0>         0.1613
     22 C16        -3.4686    1.7042   -0.7696 C.ar      1 <0>        -0.1220
     23 C17        -4.6513    0.9988   -0.8765 C.ar      1 <0>        -0.1041
     24 C18        -4.7687   -0.2511   -0.2931 C.ar      1 <0>         0.0557
     25 C19        -3.6972   -0.8000    0.3951 C.ar      1 <0>         0.0898
     26 C20        -2.5096   -0.0986    0.4991 C.ar      1 <0>        -0.1311
     27 F1         -3.8132   -2.0200    0.9636 F         1 <0>        -0.1221
     28 F2         -5.9282   -0.9369   -0.3946 F         1 <0>        -0.1259
     29 H1         14.3373    5.1411   -0.0451 H         1 <0>         0.0812
     30 H2         14.6828    3.6266    0.8239 H         1 <0>         0.0678
     31 H3         14.6709    3.6486   -0.9559 H         1 <0>         0.0678
     32 H4         12.2433    4.1537   -0.9334 H         1 <0>         0.0661
     33 H5         12.2553    4.1317    0.8464 H         1 <0>         0.0662
     34 H6         11.8760   -0.2261   -0.0958 H         1 <0>         0.1384
     35 H7          9.5795   -1.0830   -0.0895 H         1 <0>         0.1416
     36 H8          8.0921    2.9476   -0.0395 H         1 <0>         0.1373
     37 H9         10.3948    3.7879   -0.0346 H         1 <0>         0.1354
     38 H10         6.1835    1.9156   -0.8450 H         1 <0>         0.0968
     39 H11         6.1997    1.9462    0.8619 H         1 <0>         0.1081
     40 H12         4.7870   -0.0916    0.8467 H         1 <0>         0.1052
     41 H13         4.7743   -0.0694   -0.9331 H         1 <0>         0.1047
     42 H14         2.2425    0.0877   -0.0231 H         1 <0>         0.4154
     43 H15         1.3232    2.6185   -0.8752 H         1 <0>         0.1073
     44 H16         1.3359    2.5964    0.9046 H         1 <0>         0.1068
     45 H17        -1.2050    2.8333    0.0977 H         1 <0>         0.4209
     46 H18        -3.3798    2.6812   -1.2212 H         1 <0>         0.1468
     47 H19        -5.4870    1.4248   -1.4118 H         1 <0>         0.1537
     48 H20        -1.6749   -0.5254    1.0352 H         1 <0>         0.1620
@<TRIPOS>BOND
     1    1    2 1
     2    1   29 1
     3    1   30 1
     4    1   31 1
     5    2    3 1
     6    2   32 1
     7    2   33 1
     8    3    4 1
     9    4    9 ar
    10    4    5 ar
    11    5    6 ar
    12    5   34 1
    13    6    7 ar
    14    6   35 1
    15    7    8 ar
    16    7   10 1
    17    8    9 ar
    18    8   36 1
    19    9   37 1
    20   10   11 2
    21   10   12 1
    22   12   13 1
    23   12   38 1
    24   12   39 1
    25   13   14 1
    26   13   40 1
    27   13   41 1
    28   14   15 2
    29   14   16 am
    30   16   17 1
    31   16   42 1
    32   17   18 1
    33   17   43 1
    34   17   44 1
    35   18   19 2
    36   18   20 am
    37   20   21 1
    38   20   45 1
    39   21   26 ar
    40   21   22 ar
    41   22   23 ar
    42   22   46 1
    43   23   24 ar
    44   23   47 1
    45   24   25 ar
    46   24   28 1
    47   25   26 ar
    48   25   27 1
    49   26   48 1
@<TRIPOS>MOLECULE
ZINC44295388
   49    50     0     0     0
SMALL
USER_CHARGES

@<TRIPOS>ATOM
      1 C1          0.0024    1.4214   -0.0214 C.3       1 <0>         0.0307
      2 O1          0.0197   -0.0075   -0.0241 O.3       1 <0>        -0.3838
      3 C2          0.6827   -0.5829    1.1035 C.3       1 <0>         0.0624
      4 C3          0.6404   -2.1086    0.9962 C.3       1 <0>         0.0592
      5 O2          1.3971   -2.5272   -0.1415 O.3       1 <0>        -0.2919
      6 C4          1.4616   -3.8641   -0.3821 C.ar      1 <0>         0.1219
      7 C5          0.8062   -4.7517    0.4552 C.ar      1 <0>        -0.2013
      8 C6          0.8732   -6.1157    0.2074 C.ar      1 <0>         0.1639
      9 C7          1.5969   -6.5894   -0.8786 C.ar      1 <0>        -0.1139
     10 C8          2.2513   -5.7041   -1.7140 C.ar      1 <0>        -0.1533
     11 C9          2.1814   -4.3415   -1.4730 C.ar      1 <0>         0.0869
     12 O3          2.8213   -3.4706   -2.2999 O.3       1 <0>        -0.3056
     13 C10         3.5412   -4.0304   -3.4000 C.3       1 <0>         0.0258
     14 N1          0.2105   -7.0150    1.0536 N.am      1 <0>        -0.6837
     15 C11        -0.3429   -8.1344    0.5467 C.2       1 <0>         0.7043
     16 O4         -0.1956   -8.4067   -0.6291 O.2       1 <0>        -0.5685
     17 N2         -1.0596   -8.9521    1.3431 N.am      1 <0>        -0.7426
     18 C12        -1.6611  -10.1689    0.7921 C.3       1 <0>         0.1421
     19 C13        -2.4143  -10.9113    1.8978 C.3       1 <0>        -0.0924
     20 C14        -3.0331  -12.1630    1.3310 C.ar      1 <0>        -0.0552
     21 C15        -4.3090  -12.1236    0.7996 C.ar      1 <0>        -0.1236
     22 C16        -4.8779  -13.2709    0.2794 C.ar      1 <0>        -0.0869
     23 C17        -4.1719  -14.4591    0.2902 C.ar      1 <0>        -0.1542
     24 C18        -2.8944  -14.4998    0.8220 C.ar      1 <0>         0.1013
     25 C19        -2.3231  -13.3483    1.3374 C.ar      1 <0>        -0.1484
     26 F1         -2.2035  -15.6607    0.8335 F         1 <0>        -0.1382
     27 H1          1.0256    1.7971   -0.0237 H         1 <0>         0.0433
     28 H2         -0.5184    1.7801   -0.9092 H         1 <0>         0.0880
     29 H3         -0.5132    1.7768    0.8707 H         1 <0>         0.0414
     30 H4          1.7200   -0.2488    1.1245 H         1 <0>         0.0625
     31 H5          0.1812   -0.2690    2.0190 H         1 <0>         0.0716
     32 H6          1.0667   -2.5482    1.8979 H         1 <0>         0.0773
     33 H7         -0.3932   -2.4365    0.8858 H         1 <0>         0.0710
     34 H8          0.2439   -4.3828    1.3003 H         1 <0>         0.1367
     35 H9          1.6488   -7.6509   -1.0706 H         1 <0>         0.1457
     36 H10         2.8144   -6.0746   -2.5578 H         1 <0>         0.1391
     37 H11         4.0027   -3.2294   -3.9775 H         1 <0>         0.1002
     38 H12         4.3149   -4.7002   -3.0248 H         1 <0>         0.0545
     39 H13         2.8550   -4.5886   -4.0369 H         1 <0>         0.0552
     40 H14         0.1502   -6.8317    2.0043 H         1 <0>         0.4063
     41 H15        -1.1771   -8.7348    2.2812 H         1 <0>         0.3985
     42 H16        -2.3555   -9.9023   -0.0046 H         1 <0>         0.0729
     43 H17        -0.8778  -10.8121    0.3912 H         1 <0>         0.0721
     44 H18        -1.7199  -11.1779    2.6946 H         1 <0>         0.0840
     45 H19        -3.1977  -10.2681    2.2988 H         1 <0>         0.0857
     46 H20        -4.8617  -11.1958    0.7914 H         1 <0>         0.1310
     47 H21        -5.8746  -13.2390   -0.1354 H         1 <0>         0.1352
     48 H22        -4.6168  -15.3556   -0.1157 H         1 <0>         0.1364
     49 H23        -1.3248  -13.3779    1.7484 H         1 <0>         0.1361
@<TRIPOS>BOND
     1    1    2 1
     2    1   27 1
     3    1   28 1
     4    1   29 1
     5    2    3 1
     6    3    4 1
     7    3   30 1
     8    3   31 1
     9    4    5 1
    10    4   32 1
    11    4   33 1
    12    5    6 1
    13    6   11 ar
    14    6    7 ar
    15    7    8 ar
    16    7   34 1
    17    8    9 ar
    18    8   14 1
    19    9   10 ar
    20    9   35 1
    21   10   11 ar
    22   10   36 1
    23   11   12 1
    24   12   13 1
    25   13   37 1
    26   13   38 1
    27   13   39 1
    28   14   15 am
    29   14   40 1
    30   15   16 2
    31   15   17 am
    32   17   18 1
    33   17   41 1
    34   18   19 1
    35   18   42 1
    36   18   43 1
    37   19   20 1
    38   19   44 1
    39   19   45 1
    40   20   25 ar
    41   20   21 ar
    42   21   22 ar
    43   21   46 1
    44   22   23 ar
    45   22   47 1
    46   23   24 ar
    47   23   48 1
    48   24   25 ar
    49   24   26 1
    50   25   49 1
@<TRIPOS>MOLECULE
ZINC60244888
   52    53     0     0     0
SMALL
USER_CHARGES

@<TRIPOS>ATOM
      1 C1         -0.0187    1.5258    0.0104 C.3       1 <0>        -0.1497
      2 C2          0.0021   -0.0041    0.0020 C.3       1 <0>         0.0623
      3 O1          0.6709   -0.4649   -1.1737 O.3       1 <0>        -0.3112
      4 C3          0.7769   -1.8119   -1.3364 C.ar      1 <0>         0.0393
      5 C4          1.8754   -2.4914   -0.8234 C.ar      1 <0>         0.1483
      6 C5          1.9796   -3.8639   -0.9913 C.ar      1 <0>        -0.2138
      7 C6          0.9931   -4.5562   -1.6683 C.ar      1 <0>        -0.0354
      8 C7         -0.1008   -3.8840   -2.1804 C.ar      1 <0>        -0.2138
      9 C8         -0.2158   -2.5125   -2.0110 C.ar      1 <0>         0.1482
     10 O2         -1.2954   -1.8530   -2.5100 O.3       1 <0>        -0.3007
     11 C9         -2.2765   -2.6370   -3.1918 C.3       1 <0>         0.0238
     12 C10         1.1107   -6.0477   -1.8489 C.3       1 <0>         0.1807
     13 N1          0.4721   -6.7282   -0.7196 N.am      1 <0>        -0.7424
     14 C11         0.4548   -8.0748   -0.6666 C.2       1 <0>         0.7047
     15 O3          0.9693   -8.7249   -1.5561 O.2       1 <0>        -0.5863
     16 N2         -0.1327   -8.7009    0.3723 N.am      1 <0>        -0.7462
     17 C12        -0.1514  -10.1646    0.4299 C.3       1 <0>         0.1444
     18 C13        -0.8734  -10.6158    1.7012 C.3       1 <0>        -0.0909
     19 C14        -0.8927  -12.1215    1.7604 C.ar      1 <0>        -0.1182
     20 C15        -1.9860  -12.8183    1.2814 C.ar      1 <0>        -0.0849
     21 C16        -2.0040  -14.1993    1.3356 C.ar      1 <0>        -0.1277
     22 C17        -0.9285  -14.8854    1.8689 C.ar      1 <0>        -0.0902
     23 C18         0.1658  -14.1910    2.3480 C.ar      1 <0>        -0.1521
     24 C19         0.1871  -12.8076    2.2894 C.ar      1 <0>         0.1034
     25 F1          1.2586  -12.1278    2.7532 F         1 <0>        -0.1362
     26 O4          2.8469   -1.8111   -0.1579 O.3       1 <0>        -0.3007
     27 C20         3.9468   -2.5742    0.3421 C.3       1 <0>         0.0237
     28 H1          1.0039    1.9031    0.0027 H         1 <0>         0.0649
     29 H2         -0.5459    1.8868   -0.8726 H         1 <0>         0.0648
     30 H3         -0.5289    1.8773    0.9072 H         1 <0>         0.0736
     31 H4          0.5293   -0.3651    0.8851 H         1 <0>         0.0506
     32 H5         -1.0205   -0.3814    0.0098 H         1 <0>         0.0505
     33 H6          2.8329   -4.3927   -0.5929 H         1 <0>         0.1380
     34 H7         -0.8693   -4.4284   -2.7091 H         1 <0>         0.1379
     35 H8         -1.8157   -3.1329   -4.0461 H         1 <0>         0.0595
     36 H9         -2.6801   -3.3863   -2.5109 H         1 <0>         0.0571
     37 H10        -3.0820   -1.9896   -3.5386 H         1 <0>         0.1044
     38 H11         0.6181   -6.3414   -2.7758 H         1 <0>         0.0798
     39 H12         2.1635   -6.3265   -1.8928 H         1 <0>         0.0798
     40 H13         0.0617   -6.2096   -0.0100 H         1 <0>         0.3978
     41 H14        -0.5431   -8.1823    1.0819 H         1 <0>         0.3969
     42 H15        -0.6740  -10.5559   -0.4430 H         1 <0>         0.0707
     43 H16         0.8715  -10.5410    0.4400 H         1 <0>         0.0689
     44 H17        -0.3509  -10.2245    2.5741 H         1 <0>         0.0832
     45 H18        -1.8963  -10.2394    1.6911 H         1 <0>         0.0859
     46 H19        -2.8268  -12.2835    0.8649 H         1 <0>         0.1335
     47 H20        -2.8589  -14.7429    0.9614 H         1 <0>         0.1315
     48 H21        -0.9440  -15.9645    1.9114 H         1 <0>         0.1340
     49 H22         1.0056  -14.7271    2.7648 H         1 <0>         0.1367
     50 H23         4.6474   -1.9116    0.8504 H         1 <0>         0.1045
     51 H24         3.5802   -3.3229    1.0443 H         1 <0>         0.0573
     52 H25         4.4518   -3.0699   -0.4869 H         1 <0>         0.0596
@<TRIPOS>BOND
     1    1    2 1
     2    1   28 1
     3    1   29 1
     4    1   30 1
     5    2    3 1
     6    2   31 1
     7    2   32 1
     8    3    4 1
     9    4    9 ar
    10    4    5 ar
    11    5    6 ar
    12    5   26 1
    13    6    7 ar
    14    6   33 1
    15    7    8 ar
    16    7   12 1
    17    8    9 ar
    18    8   34 1
    19    9   10 1
    20   10   11 1
    21   11   35 1
    22   11   36 1
    23   11   37 1
    24   12   13 1
    25   12   38 1
    26   12   39 1
    27   13   14 am
    28   13   40 1
    29   14   15 2
    30   14   16 am
    31   16   17 1
    32   16   41 1
    33   17   18 1
    34   17   42 1
    35   17   43 1
    36   18   19 1
    37   18   44 1
    38   18   45 1
    39   19   24 ar
    40   19   20 ar
    41   20   21 ar
    42   20   46 1
    43   21   22 ar
    44   21   47 1
    45   22   23 ar
    46   22   48 1
    47   23   24 ar
    48   23   49 1
    49   24   25 1
    50   26   27 1
    51   27   50 1
    52   27   51 1
    53   27   52 1
@<TRIPOS>MOLECULE
ZINC66596991
   59    59     0     0     0
SMALL
USER_CHARGES

@<TRIPOS>ATOM
      1 C1          0.1848    3.0126    0.8718 C.3       1 <0>        -0.1162
      2 C2          0.4197    1.5245    0.9115 C.ar      1 <0>        -0.0842
      3 C3          0.5978    0.8849    2.1242 C.ar      1 <0>        -0.1244
      4 C4          0.8132   -0.4798    2.1607 C.ar      1 <0>        -0.1077
      5 C5          0.8501   -1.2055    0.9844 C.ar      1 <0>        -0.0874
      6 C6          0.6711   -0.5663   -0.2279 C.ar      1 <0>        -0.0752
      7 C7          0.4513    0.7983   -0.2640 C.ar      1 <0>        -0.1187
      8 C8          0.7117   -1.3572   -1.5100 C.3       1 <0>        -0.1209
      9 C9          1.0859   -2.6934    1.0240 C.3       1 <0>        -0.0909
     10 C10        -0.2543   -3.4250    0.9259 C.3       1 <0>         0.1654
     11 H1         -0.7817   -3.0985    0.0296 H         1 <0>         0.0922
     12 C11        -0.0078   -4.9332    0.8516 C.3       1 <0>        -0.1652
     13 N1         -1.0647   -3.1202    2.1076 N.am      1 <0>        -0.7375
     14 C12        -2.4096   -3.1674    2.0329 C.2       1 <0>         0.7063
     15 O1         -2.9502   -3.4629    0.9847 O.2       1 <0>        -0.5904
     16 N2         -3.1551   -2.8870    3.1201 N.am      1 <0>        -0.7467
     17 C13        -4.6170   -2.9383    3.0389 C.3       1 <0>         0.1416
     18 C14        -5.2163   -2.5805    4.4004 C.3       1 <0>        -0.1597
     19 C15        -6.7430   -2.6340    4.3156 C.3       1 <0>         0.1281
     20 N3         -7.3183   -2.2080    5.5937 N.pl3     1 <0>        -0.9937
     21 C16        -7.4951   -3.1782    6.6771 C.3       1 <0>         0.1396
     22 C17        -8.3481   -4.3473    6.1807 C.3       1 <0>        -0.1658
     23 C18        -6.1274   -3.6984    7.1240 C.3       1 <0>        -0.1624
     24 S1         -7.7689   -0.6298    5.8139 S.o2      1 <0>         2.6041
     25 O2         -7.6816   -0.4201    7.2166 O.2       1 <0>        -0.9538
     26 O3         -6.9497    0.1095    4.9185 O.2       1 <0>        -0.9502
     27 C19        -9.5007   -0.5603    5.2784 C.3       1 <0>        -0.6752
     28 H2         -0.8848    3.2133    0.9326 H         1 <0>         0.0703
     29 H3          0.6912    3.4829    1.7147 H         1 <0>         0.0659
     30 H4          0.5782    3.4177   -0.0605 H         1 <0>         0.0657
     31 H5          0.5690    1.4518    3.0431 H         1 <0>         0.1195
     32 H6          0.9531   -0.9794    3.1079 H         1 <0>         0.1173
     33 H7          0.3077    1.2972   -1.2110 H         1 <0>         0.1202
     34 H8         -0.2978   -1.6709   -1.7755 H         1 <0>         0.0728
     35 H9          1.1206   -0.7363   -2.3071 H         1 <0>         0.0660
     36 H10         1.3417   -2.2363   -1.3748 H         1 <0>         0.0698
     37 H11         1.7202   -2.9832    0.1863 H         1 <0>         0.0924
     38 H12         1.5769   -2.9586    1.9604 H         1 <0>         0.0764
     39 H13         0.5196   -5.2597    1.7479 H         1 <0>         0.0564
     40 H14        -0.9625   -5.4544    0.7817 H         1 <0>         0.0627
     41 H15         0.5952   -5.1599   -0.0276 H         1 <0>         0.0664
     42 H16        -0.6334   -2.8845    2.9439 H         1 <0>         0.3931
     43 H17        -2.7238   -2.6513    3.9563 H         1 <0>         0.3954
     44 H18        -4.9645   -2.2261    2.2905 H         1 <0>         0.0681
     45 H19        -4.9302   -3.9435    2.7569 H         1 <0>         0.0667
     46 H20        -4.8688   -3.2927    5.1488 H         1 <0>         0.0816
     47 H21        -4.9031   -1.5752    4.6824 H         1 <0>         0.0798
     48 H22        -7.0864   -1.9692    3.5230 H         1 <0>         0.0848
     49 H23        -7.0592   -3.6539    4.0967 H         1 <0>         0.0867
     50 H24        -7.9932   -2.6965    7.5185 H         1 <0>         0.1003
     51 H25        -7.8032   -4.8933    5.4105 H         1 <0>         0.0639
     52 H26        -8.5682   -5.0157    7.0131 H         1 <0>         0.0700
     53 H27        -9.2806   -3.9658    5.7647 H         1 <0>         0.0596
     54 H28        -5.4780   -2.8558    7.3615 H         1 <0>         0.0622
     55 H29        -6.2480   -4.3247    8.0079 H         1 <0>         0.0672
     56 H30        -5.6818   -4.2854    6.3208 H         1 <0>         0.0643
     57 H31       -10.0971   -1.2388    5.8884 H         1 <0>         0.1272
     58 H32        -9.8760    0.4566    5.3932 H         1 <0>         0.1283
     59 H33        -9.5695   -0.8571    4.2318 H         1 <0>         0.1279
@<TRIPOS>BOND
     1    1    2 1
     2    1   28 1
     3    1   29 1
     4    1   30 1
     5    2    7 ar
     6    2    3 ar
     7    3    4 ar
     8    3   31 1
     9    4    5 ar
    10    4   32 1
    11    5    6 ar
    12    5    9 1
    13    6    7 ar
    14    6    8 1
    15    7   33 1
    16    8   34 1
    17    8   35 1
    18    8   36 1
    19    9   10 1
    20    9   37 1
    21    9   38 1
    22   10   11 1
    23   10   12 1
    24   10   13 1
    25   12   39 1
    26   12   40 1
    27   12   41 1
    28   13   14 am
    29   13   42 1
    30   14   15 2
    31   14   16 am
    32   16   17 1
    33   16   43 1
    34   17   18 1
    35   17   44 1
    36   17   45 1
    37   18   19 1
    38   18   46 1
    39   18   47 1
    40   19   20 1
    41   19   48 1
    42   19   49 1
    43   20   21 1
    44   20   24 1
    45   21   22 1
    46   21   23 1
    47   21   50 1
    48   22   51 1
    49   22   52 1
    50   22   53 1
    51   23   54 1
    52   23   55 1
    53   23   56 1
    54   24   25 2
    55   24   26 2
    56   24   27 1
    57   27   57 1
    58   27   58 1
    59   27   59 1
@<TRIPOS>MOLECULE
ZINC03902560
   53    54     0     0     0
SMALL
USER_CHARGES
2-methoxyethyl 4-(4-diethylaminophenyl)-6-methyl-2-oxo-3,4-dihydro-1H-pyrimidine-5-carboxylate
@<TRIPOS>ATOM
      1 C1          1.9537   -2.4189   -6.8683 C.3       1 <0>        -0.1723
      2 C2          0.8918   -3.2040   -6.0958 C.3       1 <0>         0.1190
      3 N1          1.4794   -3.7394   -4.8652 N.pl3     1 <0>        -0.6275
      4 C3          2.1049   -5.0641   -4.8681 C.3       1 <0>         0.1192
      5 C4          1.0562   -6.1241   -4.5250 C.3       1 <0>        -0.1727
      6 C5          1.4432   -2.9868   -3.6891 C.ar      1 <0>         0.2220
      7 C6          1.9998   -3.4930   -2.5213 C.ar      1 <0>        -0.1837
      8 C7          1.9619   -2.7464   -1.3601 C.ar      1 <0>        -0.0220
      9 C8          1.3706   -1.4963   -1.3589 C.ar      1 <0>        -0.1763
     10 C9          0.8105   -0.9918   -2.5183 C.ar      1 <0>        -0.0531
     11 C10         0.8500   -1.7307   -3.6844 C.ar      1 <0>        -0.2043
     12 C11         1.3311   -0.6846   -0.0899 C.3       1 <0>         0.2448
     13 H1          1.4121   -1.3749    0.7497 H         1 <0>         0.0867
     14 C12         2.5500    0.2155   -0.0738 C.2       1 <0>        -0.2752
     15 C13         2.3464    1.5479    0.0101 C.2       1 <0>         0.2495
     16 N2          1.0844    2.0651    0.0782 N.am      1 <0>        -0.6468
     17 C14        -0.0262    1.3172    0.0677 C.2       1 <0>         0.7041
     18 O1         -1.1074    1.8694    0.1272 O.2       1 <0>        -0.5652
     19 N3          0.0155   -0.0275   -0.0121 N.am      1 <0>        -0.7090
     20 C15         3.5312    2.4790    0.0290 C.3       1 <0>        -0.1224
     21 C16         3.8567   -0.3217   -0.1439 C.2       1 <0>         0.5389
     22 O2          4.8154    0.4211   -0.2427 O.2       1 <0>        -0.5208
     23 O3          4.0401   -1.6579   -0.1013 O.3       1 <0>        -0.3348
     24 C17         5.3865   -2.1308   -0.1768 C.3       1 <0>         0.0702
     25 C18         5.3945   -3.6594   -0.1137 C.3       1 <0>         0.0617
     26 O4          4.7429   -4.1873   -1.2708 O.3       1 <0>        -0.3754
     27 C19         4.6956   -5.6150   -1.3106 C.3       1 <0>         0.0291
     28 H2          2.3178   -1.5969   -6.2520 H         1 <0>         0.0581
     29 H3          2.7833   -3.0799   -7.1194 H         1 <0>         0.0553
     30 H4          1.5166   -2.0205   -7.7839 H         1 <0>         0.0628
     31 H5          0.5277   -4.0260   -6.7121 H         1 <0>         0.0715
     32 H6          0.0623   -2.5430   -5.8447 H         1 <0>         0.0742
     33 H7          2.5184   -5.2685   -5.8557 H         1 <0>         0.0704
     34 H8          2.9039   -5.0903   -4.1272 H         1 <0>         0.0761
     35 H9          0.6427   -5.9197   -3.5374 H         1 <0>         0.0588
     36 H10         0.2572   -6.0979   -5.2660 H         1 <0>         0.0549
     37 H11         1.5216   -7.1097   -4.5272 H         1 <0>         0.0627
     38 H12         2.4614   -4.4694   -2.5215 H         1 <0>         0.1216
     39 H13         2.3941   -3.1395   -0.4518 H         1 <0>         0.1262
     40 H14         0.3453   -0.0172   -2.5128 H         1 <0>         0.1082
     41 H15         0.4164   -1.3343   -4.5906 H         1 <0>         0.1170
     42 H16         0.9871    3.0284    0.1371 H         1 <0>         0.4291
     43 H17        -0.8017   -0.5501   -0.0178 H         1 <0>         0.4328
     44 H18         4.0819    2.3854   -0.9070 H         1 <0>         0.1068
     45 H19         3.1845    3.5058    0.1454 H         1 <0>         0.0692
     46 H20         4.1842    2.2193    0.8623 H         1 <0>         0.1037
     47 H21         5.8344   -1.8035   -1.1151 H         1 <0>         0.0755
     48 H22         5.9599   -1.7296    0.6589 H         1 <0>         0.0819
     49 H23         6.4239   -4.0164   -0.0818 H         1 <0>         0.0706
     50 H24         4.8678   -3.9889    0.7819 H         1 <0>         0.0610
     51 H25         4.1858   -5.9364   -2.2189 H         1 <0>         0.0841
     52 H26         5.7105   -6.0125   -1.3036 H         1 <0>         0.0410
     53 H27         4.1544   -5.9850   -0.4399 H         1 <0>         0.0430
@<TRIPOS>BOND
     1    1    2 1
     2    1   28 1
     3    1   29 1
     4    1   30 1
     5    2    3 1
     6    2   31 1
     7    2   32 1
     8    3    4 1
     9    3    6 1
    10    4    5 1
    11    4   33 1
    12    4   34 1
    13    5   35 1
    14    5   36 1
    15    5   37 1
    16    6   11 ar
    17    6    7 ar
    18    7    8 ar
    19    7   38 1
    20    8    9 ar
    21    8   39 1
    22    9   10 ar
    23    9   12 1
    24   10   11 ar
    25   10   40 1
    26   11   41 1
    27   12   13 1
    28   12   19 1
    29   12   14 1
    30   14   15 2
    31   14   21 1
    32   15   16 1
    33   15   20 1
    34   16   17 am
    35   16   42 1
    36   17   18 2
    37   17   19 am
    38   19   43 1
    39   20   44 1
    40   20   45 1
    41   20   46 1
    42   21   22 2
    43   21   23 1
    44   23   24 1
    45   24   25 1
    46   24   47 1
    47   24   48 1
    48   25   26 1
    49   25   49 1
    50   25   50 1
    51   26   27 1
    52   27   51 1
    53   27   52 1
    54   27   53 1
@<TRIPOS>MOLECULE
ZINC18988493
   45    45     0     0     0
SMALL
USER_CHARGES
ethyl (E)-3-[N'-[4-(4-chloro-2-methyl-phenoxy)butanoyl]hydrazino]-2-cyano-prop-2-enoate
@<TRIPOS>ATOM
      1 C1         -4.8322    9.8255    0.0784 C.3       1 <0>        -0.1553
      2 C2         -5.0120    8.3061    0.0710 C.3       1 <0>         0.0659
      3 O1         -3.7095    7.6646    0.0613 O.3       1 <0>        -0.3539
      4 C3         -3.6912    6.3161    0.0539 C.2       1 <0>         0.5469
      5 O2         -4.7360    5.6938    0.0555 O.2       1 <0>        -0.5257
      6 C4         -2.4115    5.6003    0.0439 C.2       1 <0>        -0.2476
      7 C5         -2.3928    4.2212    0.0363 C.2       1 <0>         0.2988
      8 N1         -1.2136    3.5616    0.0272 N.pl3     1 <0>        -0.4811
      9 N2         -1.1946    2.1607    0.0195 N.am      1 <0>        -0.5341
     10 C6         -0.0184    1.5028    0.0103 C.2       1 <0>         0.5177
     11 O3          1.0236    2.1234    0.0037 O.2       1 <0>        -0.5166
     12 C7          0.0021   -0.0041    0.0020 C.3       1 <0>        -0.1247
     13 C8          1.4513   -0.4944   -0.0145 C.3       1 <0>        -0.1076
     14 C9          1.4720   -2.0242   -0.0229 C.3       1 <0>         0.0580
     15 O4          2.8256   -2.4822   -0.0383 O.3       1 <0>        -0.3054
     16 C10         3.0219   -3.8271   -0.0473 C.ar      1 <0>         0.1336
     17 C11         1.9339   -4.6879   -0.0416 C.ar      1 <0>        -0.1938
     18 C12         2.1354   -6.0543   -0.0513 C.ar      1 <0>        -0.0757
     19 C13         3.4216   -6.5649   -0.0668 C.ar      1 <0>        -0.0677
     20 C14         4.5078   -5.7081   -0.0721 C.ar      1 <0>        -0.0738
     21 C15         4.3102   -4.3406   -0.0682 C.ar      1 <0>        -0.1024
     22 C16         5.4937   -3.4078   -0.0808 C.3       1 <0>        -0.1079
     23 Cl1         3.6723   -8.2826   -0.0791 Cl        1 <0>        -0.0685
     24 C17        -1.1812    6.3331    0.0421 C.1       1 <0>         0.2556
     25 N3         -0.2052    6.9144    0.0406 N.1       1 <0>        -0.4217
     26 H1         -4.2750   10.1211    0.9673 H         1 <0>         0.0666
     27 H2         -4.2834   10.1307   -0.8126 H         1 <0>         0.0667
     28 H3         -5.8100   10.3071    0.0856 H         1 <0>         0.0816
     29 H4         -5.5692    8.0105   -0.8180 H         1 <0>         0.0723
     30 H5         -5.5608    8.0009    0.9619 H         1 <0>         0.0723
     31 H6         -3.3207    3.6685    0.0377 H         1 <0>         0.1918
     32 H7         -0.3802    4.0579    0.0259 H         1 <0>         0.4422
     33 H8         -2.0280    1.6644    0.0207 H         1 <0>         0.4339
     34 H9         -0.4983   -0.3791    0.8948 H         1 <0>         0.1100
     35 H10        -0.5153   -0.3696   -0.8850 H         1 <0>         0.1100
     36 H11         1.9516   -0.1193   -0.9073 H         1 <0>         0.0872
     37 H12         1.9686   -0.1289    0.8726 H         1 <0>         0.0873
     38 H13         0.9717   -2.3993    0.8699 H         1 <0>         0.0673
     39 H14         0.9547   -2.3897   -0.9099 H         1 <0>         0.0671
     40 H15         0.9300   -4.2899   -0.0298 H         1 <0>         0.1373
     41 H16         1.2887   -6.7248   -0.0472 H         1 <0>         0.1364
     42 H17         5.5108   -6.1084   -0.0839 H         1 <0>         0.1407
     43 H18         5.7937   -3.1876    0.9437 H         1 <0>         0.0728
     44 H19         6.3225   -3.8794   -0.6088 H         1 <0>         0.0690
     45 H20         5.2208   -2.4815   -0.5865 H         1 <0>         0.0744
@<TRIPOS>BOND
     1    1    2 1
     2    1   26 1
     3    1   27 1
     4    1   28 1
     5    2    3 1
     6    2   29 1
     7    2   30 1
     8    3    4 1
     9    4    5 2
    10    4    6 1
    11    6    7 2
    12    6   24 1
    13    7    8 1
    14    7   31 1
    15    8    9 1
    16    8   32 1
    17    9   10 am
    18    9   33 1
    19   10   11 2
    20   10   12 1
    21   12   13 1
    22   12   34 1
    23   12   35 1
    24   13   14 1
    25   13   36 1
    26   13   37 1
    27   14   15 1
    28   14   38 1
    29   14   39 1
    30   15   16 1
    31   16   21 ar
    32   16   17 ar
    33   17   18 ar
    34   17   40 1
    35   18   19 ar
    36   18   41 1
    37   19   20 ar
    38   19   23 1
    39   20   21 ar
    40   20   42 1
    41   21   22 1
    42   22   43 1
    43   22   44 1
    44   22   45 1
    45   24   25 3
@<TRIPOS>MOLECULE
ZINC39795713
   45    46     0     0     0
SMALL
USER_CHARGES

@<TRIPOS>ATOM
      1 C1         -0.0187    1.5258    0.0104 C.3       1 <0>        -0.1517
      2 C2          0.0021   -0.0041    0.0020 C.3       1 <0>        -0.1234
      3 C3         -1.4333   -0.5336    0.0129 C.3       1 <0>         0.0648
      4 O1         -1.4139   -1.9625    0.0050 O.3       1 <0>        -0.3495
      5 C4         -2.6061   -2.5905    0.0130 C.2       1 <0>         0.5104
      6 O2         -3.6340   -1.9427    0.0263 O.2       1 <0>        -0.5029
      7 C5         -2.6633   -4.0640    0.0057 C.ar      1 <0>        -0.1511
      8 C6         -1.4815   -4.8110   -0.0039 C.ar      1 <0>        -0.0212
      9 C7         -1.5384   -6.1861   -0.0108 C.ar      1 <0>        -0.1680
     10 C8         -2.7708   -6.8332   -0.0083 C.ar      1 <0>         0.1872
     11 C9         -3.9493   -6.0926    0.0007 C.ar      1 <0>        -0.1746
     12 C10        -3.8995   -4.7172    0.0140 C.ar      1 <0>        -0.0117
     13 N1         -2.8248   -8.2247   -0.0153 N.pl3     1 <0>        -0.6311
     14 C11        -4.0274   -8.8581   -0.0129 C.2       1 <0>         0.2760
     15 C12        -4.0808  -10.2349   -0.0198 C.2       1 <0>        -0.2449
     16 C13        -2.8694  -10.9984   -0.0295 C.1       1 <0>         0.2457
     17 N2         -1.9083  -11.6041   -0.0373 N.1       1 <0>        -0.4203
     18 C14        -5.3800  -10.9193   -0.0172 C.2       1 <0>         0.5967
     19 O3         -6.4094  -10.2705   -0.0089 O.2       1 <0>        -0.5416
     20 N3         -5.4323  -12.2660   -0.0240 N.am      1 <0>        -0.7268
     21 C15        -6.7285  -12.9488   -0.0214 C.3       1 <0>         0.2062
     22 C16        -6.5108  -14.4400   -0.0302 C.2       1 <0>        -0.0452
     23 C17        -6.3973  -15.2248    1.0563 C.2       1 <0>        -0.1799
     24 C18        -6.2040  -16.5452    0.5894 C.2       1 <0>        -0.2185
     25 C19        -6.2110  -16.4883   -0.7545 C.2       1 <0>        -0.0257
     26 O4         -6.4029  -15.2115   -1.1242 O.3       1 <0>        -0.1711
     27 H1          1.0039    1.9031    0.0027 H         1 <0>         0.0664
     28 H2         -0.5459    1.8868   -0.8726 H         1 <0>         0.0589
     29 H3         -0.5289    1.8773    0.9072 H         1 <0>         0.0589
     30 H4          0.5123   -0.3556   -0.8948 H         1 <0>         0.0745
     31 H5          0.5293   -0.3651    0.8851 H         1 <0>         0.0745
     32 H6         -1.9435   -0.1821    0.9097 H         1 <0>         0.0699
     33 H7         -1.9605   -0.1726   -0.8702 H         1 <0>         0.0699
     34 H8         -0.5249   -4.3095   -0.0061 H         1 <0>         0.1476
     35 H9         -0.6259   -6.7637   -0.0185 H         1 <0>         0.1393
     36 H10        -4.9039   -6.5978    0.0019 H         1 <0>         0.1459
     37 H11        -4.8142   -4.1432    0.0258 H         1 <0>         0.1488
     38 H12        -2.0042   -8.7418   -0.0219 H         1 <0>         0.4180
     39 H13        -4.9410   -8.2823   -0.0055 H         1 <0>         0.1921
     40 H14        -4.6117  -12.7832   -0.0306 H         1 <0>         0.4028
     41 H15        -7.2852  -12.6682    0.8728 H         1 <0>         0.1044
     42 H16        -7.2936  -12.6589   -0.9072 H         1 <0>         0.0904
     43 H17        -6.4441  -14.9072    2.0875 H         1 <0>         0.1520
     44 H18        -6.0752  -17.4298    1.1955 H         1 <0>         0.1519
     45 H19        -6.0873  -17.3276   -1.4228 H         1 <0>         0.2062
@<TRIPOS>BOND
     1    1    2 1
     2    1   27 1
     3    1   28 1
     4    1   29 1
     5    2    3 1
     6    2   30 1
     7    2   31 1
     8    3    4 1
     9    3   32 1
    10    3   33 1
    11    4    5 1
    12    5    6 2
    13    5    7 1
    14    7   12 ar
    15    7    8 ar
    16    8    9 ar
    17    8   34 1
    18    9   10 ar
    19    9   35 1
    20   10   11 ar
    21   10   13 1
    22   11   12 ar
    23   11   36 1
    24   12   37 1
    25   13   14 1
    26   13   38 1
    27   14   15 2
    28   14   39 1
    29   15   16 1
    30   15   18 1
    31   16   17 3
    32   18   19 2
    33   18   20 am
    34   20   21 1
    35   20   40 1
    36   21   22 1
    37   21   41 1
    38   21   42 1
    39   22   26 1
    40   22   23 2
    41   23   24 1
    42   23   43 1
    43   24   25 2
    44   24   44 1
    45   25   26 1
    46   25   45 1
@<TRIPOS>MOLECULE
ZINC56643472
   51    52     0     0     0
SMALL
USER_CHARGES

@<TRIPOS>ATOM
      1 C1         -0.0734    1.5381    0.0212 C.3       1 <0>        -0.1523
      2 C2         -0.0413    0.0085    0.0104 C.3       1 <0>         0.0812
      3 C3          0.7028   -0.4947    1.2490 C.3       1 <0>        -0.1695
      4 O1         -1.3782   -0.4961    0.0201 O.3       1 <0>        -0.3001
      5 C4         -1.5908   -1.6889   -0.5904 C.ar      1 <0>         0.3352
      6 C5         -2.8706   -2.2287   -0.6190 C.ar      1 <0>        -0.1939
      7 C6         -3.0741   -3.4457   -1.2453 C.ar      1 <0>        -0.0180
      8 C7         -1.9847   -4.0831   -1.8237 C.ar      1 <0>        -0.2075
      9 C8         -0.7408   -3.4883   -1.7573 C.ar      1 <0>         0.1650
     10 N1         -0.5788   -2.3241   -1.1573 N.ar      1 <0>        -0.5408
     11 C9         -2.1583   -5.4102   -2.5161 C.3       1 <0>         0.1909
     12 N2         -2.4642   -5.1864   -3.9312 N.am      1 <0>        -0.7376
     13 C10        -2.6613   -6.2367   -4.7524 C.2       1 <0>         0.7039
     14 O2         -2.5853   -7.3702   -4.3188 O.2       1 <0>        -0.5691
     15 N3         -2.9427   -6.0308   -6.0543 N.am      1 <0>        -0.6829
     16 C11        -3.0521   -7.1207   -6.9285 C.ar      1 <0>         0.1540
     17 C12        -2.6182   -7.0034   -8.2421 C.ar      1 <0>        -0.1139
     18 C13        -2.7253   -8.0775   -9.1039 C.ar      1 <0>        -0.1643
     19 C14        -3.2662   -9.2737   -8.6581 C.ar      1 <0>         0.0855
     20 C15        -3.7012   -9.3927   -7.3444 C.ar      1 <0>         0.0908
     21 C16        -3.5889   -8.3196   -6.4796 C.ar      1 <0>        -0.1170
     22 F1         -4.2291  -10.5581   -6.9103 F         1 <0>        -0.1270
     23 O3         -3.3713  -10.3310   -9.5077 O.3       1 <0>        -0.2985
     24 C17        -2.9046  -10.1379  -10.8445 C.3       1 <0>         0.0596
     25 C18        -3.1032  -11.4266  -11.6450 C.3       1 <0>         0.0612
     26 O4         -4.5003  -11.7004  -11.7681 O.3       1 <0>        -0.3850
     27 C19        -4.7969  -12.8895  -12.5029 C.3       1 <0>         0.0305
     28 H1          0.9464    1.9230    0.0138 H         1 <0>         0.0788
     29 H2         -0.6034    1.8966   -0.8612 H         1 <0>         0.0632
     30 H3         -0.5860    1.8845    0.9186 H         1 <0>         0.0662
     31 H4          0.4713   -0.3379   -0.8870 H         1 <0>         0.0902
     32 H5          0.7256   -1.5844    1.2414 H         1 <0>         0.0608
     33 H6          1.7225   -0.1098    1.2416 H         1 <0>         0.0727
     34 H7          0.1902   -0.1483    2.1465 H         1 <0>         0.0625
     35 H8         -3.6955   -1.7056   -0.1584 H         1 <0>         0.1445
     36 H9         -4.0578   -3.8898   -1.2829 H         1 <0>         0.1442
     37 H10         0.1099   -3.9799   -2.2056 H         1 <0>         0.1611
     38 H11        -1.2380   -5.9880   -2.4303 H         1 <0>         0.0812
     39 H12        -2.9766   -5.9590   -2.0499 H         1 <0>         0.0805
     40 H13        -2.5248   -4.2822   -4.2772 H         1 <0>         0.3991
     41 H14        -3.0696   -5.1282   -6.3862 H         1 <0>         0.4096
     42 H15        -2.1971   -6.0718   -8.5903 H         1 <0>         0.1358
     43 H16        -2.3879   -7.9853  -10.1257 H         1 <0>         0.1420
     44 H17        -3.9225   -8.4128   -5.4566 H         1 <0>         0.1606
     45 H18        -3.4664   -9.3294  -11.3122 H         1 <0>         0.0744
     46 H19        -1.8455   -9.8811  -10.8261 H         1 <0>         0.0807
     47 H20        -2.6672  -11.3088  -12.6371 H         1 <0>         0.0739
     48 H21        -2.6149  -12.2535  -11.1294 H         1 <0>         0.0630
     49 H22        -5.8772  -13.0267  -12.5514 H         1 <0>         0.0885
     50 H23        -4.3961  -12.8021  -13.5128 H         1 <0>         0.0421
     51 H24        -4.3438  -13.7468  -12.0051 H         1 <0>         0.0437
@<TRIPOS>BOND
     1    1    2 1
     2    1   28 1
     3    1   29 1
     4    1   30 1
     5    2    3 1
     6    2    4 1
     7    2   31 1
     8    3   32 1
     9    3   33 1
    10    3   34 1
    11    4    5 1
    12    5   10 ar
    13    5    6 ar
    14    6    7 ar
    15    6   35 1
    16    7    8 ar
    17    7   36 1
    18    8    9 ar
    19    8   11 1
    20    9   10 ar
    21    9   37 1
    22   11   12 1
    23   11   38 1
    24   11   39 1
    25   12   13 am
    26   12   40 1
    27   13   14 2
    28   13   15 am
    29   15   16 1
    30   15   41 1
    31   16   21 ar
    32   16   17 ar
    33   17   18 ar
    34   17   42 1
    35   18   19 ar
    36   18   43 1
    37   19   20 ar
    38   19   23 1
    39   20   21 ar
    40   20   22 1
    41   21   44 1
    42   23   24 1
    43   24   25 1
    44   24   45 1
    45   24   46 1
    46   25   26 1
    47   25   47 1
    48   25   48 1
    49   26   27 1
    50   27   49 1
    51   27   50 1
    52   27   51 1
@<TRIPOS>MOLECULE
ZINC65486752
   57    57     0     0     0
SMALL
USER_CHARGES

@<TRIPOS>ATOM
      1 C1         -0.0187    1.5258    0.0104 C.3       1 <0>        -0.1529
      2 C2          0.0021   -0.0041    0.0020 C.3       1 <0>         0.0592
      3 O1          0.6709   -0.4649   -1.1737 O.3       1 <0>        -0.3558
      4 C3          0.7755   -1.7935   -1.3341 C.2       1 <0>         0.4584
      5 O2          0.3143   -2.5404   -0.5039 O.2       1 <0>        -0.5064
      6 C4          1.4679   -2.3535   -2.5498 C.3       1 <0>        -0.1137
      7 C5          1.4493   -3.8821   -2.4885 C.3       1 <0>        -0.1112
      8 C6          2.1524   -4.4507   -3.7228 C.3       1 <0>        -0.1182
      9 C7          2.1337   -5.9793   -3.6615 C.3       1 <0>        -0.1171
     10 C8          2.8368   -6.5478   -4.8957 C.3       1 <0>        -0.1312
     11 C9          2.8181   -8.0765   -4.8344 C.3       1 <0>         0.1371
     12 N1          3.4913   -8.6209   -6.0162 N.am      1 <0>        -0.7488
     13 C10         3.5962   -9.9549   -6.1773 C.2       1 <0>         0.7035
     14 O3          3.1322  -10.7065   -5.3418 O.2       1 <0>        -0.5898
     15 N2          4.2156  -10.4557   -7.2646 N.am      1 <0>        -0.7405
     16 C11         4.3296  -11.9057   -7.4397 C.3       1 <0>         0.2441
     17 C12         3.0571  -12.4415   -8.0989 C.3       1 <0>        -0.1580
     18 C13         5.5169  -12.2141   -8.3150 C.2       1 <0>        -0.2516
     19 C14         5.8584  -11.5553   -9.5007 C.2       1 <0>         0.0841
     20 N3          6.9487  -12.1030   -9.9731 N.2       1 <0>        -0.2930
     21 N4          7.3360  -13.1292   -9.1018 N.pl3     1 <0>        -0.3713
     22 C15         6.4443  -13.1735   -8.0899 C.2       1 <0>         0.1042
     23 C16         6.4739  -14.1235   -6.9205 C.3       1 <0>        -0.0990
     24 C17         8.5057  -13.9972   -9.2584 C.3       1 <0>         0.0995
     25 C18         5.1013  -10.4120  -10.1259 C.3       1 <0>        -0.0837
     26 H1          1.0039    1.9031    0.0027 H         1 <0>         0.0669
     27 H2         -0.5459    1.8868   -0.8726 H         1 <0>         0.0669
     28 H3         -0.5289    1.8773    0.9072 H         1 <0>         0.0801
     29 H4          0.5293   -0.3651    0.8851 H         1 <0>         0.0675
     30 H5         -1.0205   -0.3814    0.0098 H         1 <0>         0.0675
     31 H6          0.9501   -2.0196   -3.4490 H         1 <0>         0.1064
     32 H7          2.4999   -2.0034   -2.5737 H         1 <0>         0.1062
     33 H8          1.9671   -4.2160   -1.5894 H         1 <0>         0.0731
     34 H9          0.4173   -4.2322   -2.4647 H         1 <0>         0.0732
     35 H10         1.6345   -4.1168   -4.6219 H         1 <0>         0.0661
     36 H11         3.1843   -4.1006   -3.7466 H         1 <0>         0.0659
     37 H12         2.6515   -6.3132   -2.7623 H         1 <0>         0.0679
     38 H13         1.1017   -6.3294   -3.6376 H         1 <0>         0.0682
     39 H14         2.3189   -6.2139   -5.7949 H         1 <0>         0.0696
     40 H15         3.8687   -6.1977   -4.9195 H         1 <0>         0.0691
     41 H16         3.3359   -8.4104   -3.9352 H         1 <0>         0.0658
     42 H17         1.7861   -8.4266   -4.8106 H         1 <0>         0.0666
     43 H18         3.8615   -8.0213   -6.6828 H         1 <0>         0.3949
     44 H19         4.5858   -9.8560   -7.9311 H         1 <0>         0.3942
     45 H20         4.4623  -12.3798   -6.4672 H         1 <0>         0.0919
     46 H21         2.9244  -11.9674   -9.0714 H         1 <0>         0.0567
     47 H22         3.1420  -13.5203   -8.2292 H         1 <0>         0.0642
     48 H23         2.1984  -12.2184   -7.4657 H         1 <0>         0.0637
     49 H24         5.9145  -15.0251   -7.1705 H         1 <0>         0.0847
     50 H25         7.5066  -14.3880   -6.6932 H         1 <0>         0.0732
     51 H26         6.0219  -13.6448   -6.0518 H         1 <0>         0.0896
     52 H27         9.3636  -13.5439   -8.7617 H         1 <0>         0.0757
     53 H28         8.2990  -14.9696   -8.8114 H         1 <0>         0.0883
     54 H29         8.7248  -14.1238  -10.3186 H         1 <0>         0.0911
     55 H30         5.4867   -9.4677   -9.7415 H         1 <0>         0.0766
     56 H31         5.2268  -10.4420  -11.2082 H         1 <0>         0.0786
     57 H32         4.0430  -10.4996   -9.8802 H         1 <0>         0.0816
@<TRIPOS>BOND
     1    1    2 1
     2    1   26 1
     3    1   27 1
     4    1   28 1
     5    2    3 1
     6    2   29 1
     7    2   30 1
     8    3    4 1
     9    4    5 2
    10    4    6 1
    11    6    7 1
    12    6   31 1
    13    6   32 1
    14    7    8 1
    15    7   33 1
    16    7   34 1
    17    8    9 1
    18    8   35 1
    19    8   36 1
    20    9   10 1
    21    9   37 1
    22    9   38 1
    23   10   11 1
    24   10   39 1
    25   10   40 1
    26   11   12 1
    27   11   41 1
    28   11   42 1
    29   12   13 am
    30   12   43 1
    31   13   14 2
    32   13   15 am
    33   15   16 1
    34   15   44 1
    35   16   17 1
    36   16   18 1
    37   16   45 1
    38   17   46 1
    39   17   47 1
    40   17   48 1
    41   18   22 2
    42   18   19 1
    43   19   20 2
    44   19   25 1
    45   20   21 1
    46   21   22 1
    47   21   24 1
    48   22   23 1
    49   23   49 1
    50   23   50 1
    51   23   51 1
    52   24   52 1
    53   24   53 1
    54   24   54 1
    55   25   55 1
    56   25   56 1
    57   25   57 1
@<TRIPOS>MOLECULE
ZINC00884851
   46    47     0     0     0
SMALL
USER_CHARGES
3-(3-allyl-5-ethoxy-4-hydroxy-phenyl)-2-cyano-N-(2-furylmethyl)prop-2-enamide
@<TRIPOS>ATOM
      1 C1         -5.5804   -3.0399   -2.2476 C.3       1 <0>        -0.1528
      2 C2         -4.8805   -1.7619   -2.7144 C.3       1 <0>         0.0496
      3 O1         -3.8787   -1.3933   -1.7643 O.3       1 <0>        -0.3029
      4 C3         -3.1582   -0.2711   -2.0308 C.ar      1 <0>         0.1077
      5 C4         -3.4108    0.4544   -3.1769 C.ar      1 <0>        -0.1637
      6 C5         -2.6654    1.6108   -3.4483 C.ar      1 <0>        -0.0734
      7 C6         -1.6679    2.0223   -2.5527 C.ar      1 <0>        -0.1038
      8 C7         -1.4242    1.2914   -1.4124 C.ar      1 <0>        -0.0661
      9 C8         -2.1602    0.1428   -1.1478 C.ar      1 <0>         0.1050
     10 O2         -1.9106   -0.5765   -0.0238 O.3       1 <0>        -0.4780
     11 C9         -0.3516    1.7344   -0.4509 C.3       1 <0>        -0.0493
     12 C10         0.9315    1.0069   -0.7597 C.2       1 <0>        -0.1455
     13 C11         2.0276    1.6841   -0.9972 C.2       1 <0>        -0.1900
     14 C12        -2.9280    2.3861   -4.6625 C.2       1 <0>         0.0763
     15 C13        -2.8085    3.7587   -4.6428 C.2       1 <0>        -0.1263
     16 C14        -2.5876    4.4404   -3.4030 C.1       1 <0>         0.2409
     17 N1         -2.4124    4.9812   -2.4195 N.1       1 <0>        -0.3970
     18 C15        -2.9079    4.5238   -5.8955 C.2       1 <0>         0.5782
     19 O3         -3.0955    3.9447   -6.9487 O.2       1 <0>        -0.5234
     20 N2         -2.7910    5.8664   -5.8762 N.am      1 <0>        -0.7234
     21 C16        -2.8900    6.6283   -7.1236 C.3       1 <0>         0.2048
     22 C17        -2.7262    8.0972   -6.8293 C.2       1 <0>        -0.0474
     23 C18        -1.5628    8.7721   -6.8173 C.2       1 <0>        -0.1779
     24 C19        -1.8710   10.1141   -6.4967 C.2       1 <0>        -0.2185
     25 C20        -3.2045   10.1790   -6.3319 C.2       1 <0>        -0.0241
     26 O4         -3.7178    8.9556   -6.5403 O.3       1 <0>        -0.1709
     27 H1         -4.8492   -3.8435   -2.1604 H         1 <0>         0.0682
     28 H2         -6.0461   -2.8655   -1.2777 H         1 <0>         0.0669
     29 H3         -6.3446   -3.3210   -2.9723 H         1 <0>         0.0810
     30 H4         -5.6117   -0.9583   -2.8016 H         1 <0>         0.0640
     31 H5         -4.4148   -1.9363   -3.6843 H         1 <0>         0.0656
     32 H6         -4.1805    0.1328   -3.8629 H         1 <0>         0.1437
     33 H7         -1.0916    2.9125   -2.7575 H         1 <0>         0.1313
     34 H8         -2.4328   -0.3025    0.7426 H         1 <0>         0.3900
     35 H9         -0.6616    1.5073    0.5691 H         1 <0>         0.0877
     36 H10        -0.1939    2.8082   -0.5522 H         1 <0>         0.0798
     37 H11         0.9465   -0.0725   -0.7896 H         1 <0>         0.1135
     38 H12         2.9461    1.1628   -1.2229 H         1 <0>         0.1007
     39 H13         2.0126    2.7635   -0.9673 H         1 <0>         0.0960
     40 H14        -3.2154    1.8821   -5.5735 H         1 <0>         0.1690
     41 H15        -2.6414    6.3282   -5.0364 H         1 <0>         0.4045
     42 H16        -2.1067    6.3056   -7.8095 H         1 <0>         0.1061
     43 H17        -3.8653    6.4554   -7.5785 H         1 <0>         0.0922
     44 H18        -0.5814    8.3666   -7.0142 H         1 <0>         0.1523
     45 H19        -1.1703   10.9305   -6.4018 H         1 <0>         0.1525
     46 H20        -3.7673   11.0656   -6.0799 H         1 <0>         0.2067
@<TRIPOS>BOND
     1    1    2 1
     2    1   27 1
     3    1   28 1
     4    1   29 1
     5    2    3 1
     6    2   30 1
     7    2   31 1
     8    3    4 1
     9    4    9 ar
    10    4    5 ar
    11    5    6 ar
    12    5   32 1
    13    6    7 ar
    14    6   14 1
    15    7    8 ar
    16    7   33 1
    17    8    9 ar
    18    8   11 1
    19    9   10 1
    20   10   34 1
    21   11   12 1
    22   11   35 1
    23   11   36 1
    24   12   13 2
    25   12   37 1
    26   13   38 1
    27   13   39 1
    28   14   15 2
    29   14   40 1
    30   15   16 1
    31   15   18 1
    32   16   17 3
    33   18   19 2
    34   18   20 am
    35   20   21 1
    36   20   41 1
    37   21   22 1
    38   21   42 1
    39   21   43 1
    40   22   26 1
    41   22   23 2
    42   23   24 1
    43   23   44 1
    44   24   25 2
    45   24   45 1
    46   25   26 1
    47   25   46 1
@<TRIPOS>MOLECULE
ZINC30504380
   54    55     0     0     0
SMALL
USER_CHARGES
(2S)-N-(1-ethylpropyl)-2-[4-methoxy-3-(2-oxopyrrolidin-1-yl)anilino]propanamide
@<TRIPOS>ATOM
      1 C1         -3.5520   -6.5211   -4.8333 C.3       1 <0>        -0.1457
      2 C2         -5.0293   -6.8903   -4.9820 C.3       1 <0>        -0.1348
      3 C3         -5.8651   -5.6137   -5.0946 C.3       1 <0>         0.1465
      4 C4         -7.3247   -5.9823   -5.3679 C.3       1 <0>        -0.1311
      5 C5         -8.1370   -4.7074   -5.6041 C.3       1 <0>        -0.1542
      6 N1         -5.7781   -4.8608   -3.8410 N.am      1 <0>        -0.7311
      7 C6         -4.7497   -4.0148   -3.6330 C.2       1 <0>         0.5145
      8 O1         -3.8964   -3.8769   -4.4837 O.2       1 <0>        -0.5311
      9 C7         -4.6602   -3.2403   -2.3434 C.3       1 <0>         0.1372
     10 H1         -4.5637   -3.9361   -1.4969 H         1 <0>         0.1004
     11 C8         -5.9010   -2.3583   -2.1910 C.3       1 <0>        -0.1658
     12 N2         -3.4616   -2.3980   -2.3618 N.pl3     1 <0>        -0.7433
     13 C9         -2.8669   -2.0011   -1.1590 C.ar      1 <0>         0.2039
     14 C10        -3.4130   -2.4056    0.0522 C.ar      1 <0>        -0.1605
     15 C11        -2.8272   -2.0152    1.2416 C.ar      1 <0>        -0.1510
     16 C12        -1.6942   -1.2185    1.2290 C.ar      1 <0>         0.0769
     17 C13        -1.1437   -0.8103    0.0164 C.ar      1 <0>         0.1604
     18 C14        -1.7348   -1.1985   -1.1765 C.ar      1 <0>        -0.1468
     19 N3          0.0021   -0.0041    0.0020 N.am      1 <0>        -0.5715
     20 C15         1.3764   -0.5185   -0.0236 C.3       1 <0>         0.1023
     21 C16         2.2686    0.6681    0.4036 C.3       1 <0>        -0.1312
     22 C17         1.3971    1.8795   -0.0012 C.3       1 <0>        -0.1506
     23 C18        -0.0162    1.3400    0.0094 C.2       1 <0>         0.5259
     24 O2         -1.0198    2.0211    0.0180 O.2       1 <0>        -0.5219
     25 O3         -1.1193   -0.8343    2.4009 O.3       1 <0>        -0.3126
     26 C19        -1.7369   -1.2896    3.6064 C.3       1 <0>         0.0251
     27 H2         -2.9511   -7.4389   -4.7523 H         1 <0>         0.0451
     28 H3         -3.4156   -5.9124   -3.9273 H         1 <0>         0.0547
     29 H4         -3.2273   -5.9466   -5.7134 H         1 <0>         0.0590
     30 H5         -5.1657   -7.4990   -5.8880 H         1 <0>         0.0707
     31 H6         -5.3541   -7.4648   -4.1020 H         1 <0>         0.0631
     32 H7         -5.4739   -4.9635   -5.8910 H         1 <0>         0.0885
     33 H8         -7.3801   -6.6230   -6.2603 H         1 <0>         0.0788
     34 H9         -7.7346   -6.5232   -4.5022 H         1 <0>         0.0694
     35 H10        -9.1864   -4.9724   -5.8006 H         1 <0>         0.0572
     36 H11        -7.7271   -4.1666   -6.4698 H         1 <0>         0.0551
     37 H12        -8.0815   -4.0667   -4.7117 H         1 <0>         0.0556
     38 H13        -6.5521   -4.9859   -3.0694 H         1 <0>         0.4183
     39 H14        -5.8356   -1.7930   -1.2496 H         1 <0>         0.0726
     40 H15        -6.8009   -2.9907   -2.1772 H         1 <0>         0.0679
     41 H16        -5.9585   -1.6571   -3.0366 H         1 <0>         0.0664
     42 H17        -3.0292   -2.0776   -3.3212 H         1 <0>         0.4301
     43 H18        -4.2966   -3.0265    0.0647 H         1 <0>         0.1261
     44 H19        -3.2537   -2.3314    2.1821 H         1 <0>         0.1322
     45 H20        -1.3126   -0.8797   -2.1181 H         1 <0>         0.1299
     46 H21         1.4655   -1.3613    0.6776 H         1 <0>         0.0794
     47 H22         1.6213   -0.8599   -1.0402 H         1 <0>         0.0726
     48 H23         2.4580    0.6134    1.4858 H         1 <0>         0.0844
     49 H24         3.2245    0.6220   -0.1387 H         1 <0>         0.0925
     50 H25         1.5348    2.6906    0.7290 H         1 <0>         0.1053
     51 H26         1.6976    2.2301   -0.9996 H         1 <0>         0.1078
     52 H27        -1.1752   -0.9094    4.4724 H         1 <0>         0.0993
     53 H28        -1.7387   -2.3894    3.6247 H         1 <0>         0.0540
     54 H29        -2.7722   -0.9204    3.6501 H         1 <0>         0.0542
@<TRIPOS>BOND
     1    1    2 1
     2    1   27 1
     3    1   28 1
     4    1   29 1
     5    2    3 1
     6    2   30 1
     7    2   31 1
     8    3    4 1
     9    3    6 1
    10    3   32 1
    11    4    5 1
    12    4   33 1
    13    4   34 1
    14    5   35 1
    15    5   36 1
    16    5   37 1
    17    6    7 am
    18    6   38 1
    19    7    8 2
    20    7    9 1
    21    9   10 1
    22    9   11 1
    23    9   12 1
    24   11   39 1
    25   11   40 1
    26   11   41 1
    27   12   13 1
    28   12   42 1
    29   13   18 ar
    30   13   14 ar
    31   14   15 ar
    32   14   43 1
    33   15   16 ar
    34   15   44 1
    35   16   17 ar
    36   16   25 1
    37   17   18 ar
    38   17   19 1
    39   18   45 1
    40   19   23 am
    41   19   20 1
    42   20   21 1
    43   20   46 1
    44   20   47 1
    45   21   22 1
    46   21   48 1
    47   21   49 1
    48   22   23 1
    49   22   50 1
    50   22   51 1
    51   23   24 2
    52   25   26 1
    53   26   52 1
    54   26   53 1
    55   26   54 1
@<TRIPOS>MOLECULE
ZINC52463870
   50    51     0     0     0
SMALL
USER_CHARGES

@<TRIPOS>ATOM
      1 C1          1.0339    1.2464    0.7561 C.3       1 <0>        -0.1510
      2 C2          0.4928   -0.1241    0.3441 C.3       1 <0>        -0.1236
      3 C3          1.2805   -0.6421   -0.8609 C.3       1 <0>         0.0580
      4 O1          0.7752   -1.9222   -1.2458 O.3       1 <0>        -0.3164
      5 C4          1.3700   -2.5266   -2.3087 C.ar      1 <0>         0.1214
      6 C5          2.4218   -1.9014   -2.9626 C.ar      1 <0>        -0.1957
      7 C6          3.0263   -2.5146   -4.0420 C.ar      1 <0>        -0.0733
      8 C7          2.5814   -3.7574   -4.4728 C.ar      1 <0>         0.1219
      9 C8          1.5292   -4.3826   -3.8179 C.ar      1 <0>        -0.0721
     10 C9          0.9286   -3.7703   -2.7352 C.ar      1 <0>        -0.1366
     11 C10         1.0458   -5.7315   -4.2847 C.3       1 <0>        -0.1150
     12 N1          3.1942   -4.3801   -5.5687 N.am      1 <0>        -0.6814
     13 C11         3.6546   -3.6377   -6.5949 C.2       1 <0>         0.7044
     14 O2          3.6128   -2.4240   -6.5341 O.2       1 <0>        -0.5730
     15 N2          4.1615   -4.2405   -7.6886 N.am      1 <0>        -0.7393
     16 C12         4.6620   -3.4335   -8.8042 C.3       1 <0>         0.1449
     17 C13         5.1781   -4.3563   -9.9100 C.3       1 <0>        -0.1134
     18 H1          4.3918   -5.0544  -10.1971 H         1 <0>         0.0827
     19 C14         6.3910   -5.1363   -9.3986 C.3       1 <0>        -0.1589
     20 C15         5.5852   -3.5191  -11.1242 C.3       1 <0>         0.1400
     21 N3          5.9664   -4.4080  -12.2246 N.pl3     1 <0>        -0.3716
     22 C16         5.4496   -4.3950  -13.4711 C.2       1 <0>         0.0536
     23 C17         6.0654   -5.3671  -14.1831 C.2       1 <0>        -0.2734
     24 C18         6.9902   -5.9957  -13.3429 C.2       1 <0>         0.0436
     25 N4          6.9360   -5.4176  -12.1704 N.2       1 <0>        -0.2923
     26 H2          2.0871    1.1563    1.0221 H         1 <0>         0.0578
     27 H3          0.9274    1.9439   -0.0747 H         1 <0>         0.0580
     28 H4          0.4727    1.6155    1.6146 H         1 <0>         0.0652
     29 H5          0.5993   -0.8215    1.1749 H         1 <0>         0.0735
     30 H6         -0.5604   -0.0339    0.0781 H         1 <0>         0.0736
     31 H7          1.1740    0.0553   -1.6917 H         1 <0>         0.0624
     32 H8          2.3337   -0.7323   -0.5949 H         1 <0>         0.0621
     33 H9          2.7677   -0.9348   -2.6274 H         1 <0>         0.1299
     34 H10         3.8446   -2.0275   -4.5513 H         1 <0>         0.1441
     35 H11         0.1124   -4.2583   -2.2233 H         1 <0>         0.1344
     36 H12         1.5959   -6.5149   -3.7636 H         1 <0>         0.0743
     37 H13        -0.0183   -5.8303   -4.0700 H         1 <0>         0.0742
     38 H14         1.2100   -5.8247   -5.3582 H         1 <0>         0.0649
     39 H15         3.2869   -5.3455   -5.5885 H         1 <0>         0.4057
     40 H16         4.1949   -5.2087   -7.7372 H         1 <0>         0.3984
     41 H17         3.8550   -2.8139   -9.1952 H         1 <0>         0.0711
     42 H18         5.4738   -2.7951   -8.4553 H         1 <0>         0.0738
     43 H19         6.7587   -5.7938  -10.1864 H         1 <0>         0.0925
     44 H20         7.1773   -4.4382   -9.1115 H         1 <0>         0.0563
     45 H21         6.1010   -5.7327   -8.5335 H         1 <0>         0.0503
     46 H22         4.7459   -2.8966  -11.4342 H         1 <0>         0.1003
     47 H23         6.4309   -2.8840  -10.8606 H         1 <0>         0.0903
     48 H24         4.6818   -3.7284  -13.8352 H         1 <0>         0.1734
     49 H25         5.8759   -5.6143  -15.2172 H         1 <0>         0.1473
     50 H26         7.6403   -6.8137  -13.6162 H         1 <0>         0.1827
@<TRIPOS>BOND
     1    1    2 1
     2    1   26 1
     3    1   27 1
     4    1   28 1
     5    2    3 1
     6    2   29 1
     7    2   30 1
     8    3    4 1
     9    3   31 1
    10    3   32 1
    11    4    5 1
    12    5   10 ar
    13    5    6 ar
    14    6    7 ar
    15    6   33 1
    16    7    8 ar
    17    7   34 1
    18    8    9 ar
    19    8   12 1
    20    9   10 ar
    21    9   11 1
    22   10   35 1
    23   11   36 1
    24   11   37 1
    25   11   38 1
    26   12   13 am
    27   12   39 1
    28   13   14 2
    29   13   15 am
    30   15   16 1
    31   15   40 1
    32   16   17 1
    33   16   41 1
    34   16   42 1
    35   17   18 1
    36   17   19 1
    37   17   20 1
    38   19   43 1
    39   19   44 1
    40   19   45 1
    41   20   21 1
    42   20   46 1
    43   20   47 1
    44   21   25 1
    45   21   22 1
    46   22   23 2
    47   22   48 1
    48   23   24 1
    49   23   49 1
    50   24   25 2
    51   24   50 1
@<TRIPOS>MOLECULE
ZINC62325721
   45    46     0     0     0
SMALL
USER_CHARGES

@<TRIPOS>ATOM
      1 C1         -0.0187    1.5258    0.0104 C.3       1 <0>        -0.1535
      2 C2          0.0021   -0.0041    0.0020 C.3       1 <0>        -0.1219
      3 C3          0.7421   -0.5109    1.2415 C.3       1 <0>        -0.1353
      4 C4          0.7628   -2.0407    1.2331 C.3       1 <0>         0.1315
      5 N1          1.4714   -2.5260    2.4200 N.pl3     1 <0>        -0.6977
      6 C5          1.6174   -3.8773    2.6290 C.2       1 <0>         0.7241
      7 N2          1.1129   -4.6713    1.7411 N.2       1 <0>        -0.9840
      8 S1          1.2269   -6.3171    1.9066 S.o2      1 <0>         2.6513
      9 O1          2.3123   -6.7372    1.0914 O.2       1 <0>        -0.9560
     10 O2         -0.0875   -6.8364    1.7576 O.2       1 <0>        -0.9450
     11 C6          1.7063   -6.6031    3.5799 C.ar      1 <0>        -0.6722
     12 C7          1.6117   -7.8594    4.1357 C.ar      1 <0>        -0.0191
     13 C8          1.9929   -8.0596    5.4557 C.ar      1 <0>         0.1050
     14 C9          2.4664   -6.9944    6.2079 C.ar      1 <0>        -0.1313
     15 C10         2.5609   -5.7356    5.6489 C.ar      1 <0>        -0.1175
     16 C11         2.1820   -5.5320    4.3276 C.ar      1 <0>         0.1994
     17 N3          2.2851   -4.2653    3.7493 N.pl3     1 <0>        -0.6888
     18 O3          1.9019   -9.2978    6.0105 O.3       1 <0>        -0.3086
     19 C12         2.3116   -9.4299    7.3731 C.3       1 <0>         0.0553
     20 C13         2.1388  -10.8832    7.8190 C.3       1 <0>        -0.1213
     21 C14         2.5775  -11.0246    9.2779 C.3       1 <0>        -0.1212
     22 C15         2.4046  -12.4779    9.7239 C.3       1 <0>        -0.1535
     23 H1          1.0039    1.9031    0.0027 H         1 <0>         0.0544
     24 H2         -0.5459    1.8868   -0.8726 H         1 <0>         0.0577
     25 H3         -0.5289    1.8773    0.9072 H         1 <0>         0.0543
     26 H4         -1.0205   -0.3814    0.0098 H         1 <0>         0.0681
     27 H5          0.5123   -0.3556   -0.8948 H         1 <0>         0.0681
     28 H6          1.7647   -0.1336    1.2338 H         1 <0>         0.0702
     29 H7          0.2319   -0.1594    2.1383 H         1 <0>         0.0702
     30 H8         -0.2598   -2.4180    1.2409 H         1 <0>         0.0821
     31 H9          1.2730   -2.3923    0.3363 H         1 <0>         0.0817
     32 H10         1.8375   -1.8942    3.0584 H         1 <0>         0.4086
     33 H11         1.2419   -8.6860    3.5471 H         1 <0>         0.1499
     34 H12         2.7618   -7.1504    7.2349 H         1 <0>         0.1444
     35 H13         2.9293   -4.9092    6.2385 H         1 <0>         0.1430
     36 H14         2.8678   -3.6176    4.1757 H         1 <0>         0.4233
     37 H15         3.3590   -9.1431    7.4669 H         1 <0>         0.0648
     38 H16         1.6999   -8.7820    8.0009 H         1 <0>         0.0647
     39 H17         1.0913  -11.1699    7.7252 H         1 <0>         0.0764
     40 H18         2.7505  -11.5311    7.1912 H         1 <0>         0.0764
     41 H19         3.6249  -10.7379    9.3718 H         1 <0>         0.0650
     42 H20         1.9658  -10.3767    9.9057 H         1 <0>         0.0650
     43 H21         1.3572  -12.7647    9.6300 H         1 <0>         0.0568
     44 H22         3.0163  -13.1258    9.0961 H         1 <0>         0.0568
     45 H23         2.7172  -12.5787   10.7632 H         1 <0>         0.0581
@<TRIPOS>BOND
     1    1    2 1
     2    1   23 1
     3    1   24 1
     4    1   25 1
     5    2    3 1
     6    2   26 1
     7    2   27 1
     8    3    4 1
     9    3   28 1
    10    3   29 1
    11    4    5 1
    12    4   30 1
    13    4   31 1
    14    5    6 1
    15    5   32 1
    16    6   17 1
    17    6    7 2
    18    7    8 1
    19    8    9 2
    20    8   10 2
    21    8   11 1
    22   11   16 ar
    23   11   12 ar
    24   12   13 ar
    25   12   33 1
    26   13   14 ar
    27   13   18 1
    28   14   15 ar
    29   14   34 1
    30   15   16 ar
    31   15   35 1
    32   16   17 1
    33   17   36 1
    34   18   19 1
    35   19   20 1
    36   19   37 1
    37   19   38 1
    38   20   21 1
    39   20   39 1
    40   20   40 1
    41   21   22 1
    42   21   41 1
    43   21   42 1
    44   22   43 1
    45   22   44 1
    46   22   45 1
@<TRIPOS>MOLECULE
ZINC66238633
   49    50     0     0     0
SMALL
USER_CHARGES

@<TRIPOS>ATOM
      1 C1         -0.0187    1.5258    0.0104 C.3       1 <0>        -0.1492
      2 C2          0.0021   -0.0041    0.0020 C.3       1 <0>        -0.1424
      3 C3          0.7421   -0.5109    1.2415 C.3       1 <0>         0.1230
      4 N1          0.7619   -1.9757    1.2335 N.am      1 <0>        -0.5317
      5 C4          1.7139   -2.7489    0.6742 C.2       1 <0>         0.6531
      6 N2          1.3673   -4.0360    0.8818 N.am      1 <0>        -0.5429
      7 N3          0.1598   -4.0356    1.5936 N.2       1 <0>        -0.2863
      8 C5         -0.1854   -2.7976    1.8009 C.2       1 <0>         0.2489
      9 S1         -1.6273   -2.2630    2.6611 S.3       1 <0>         0.0602
     10 C6         -2.4434   -3.8070    3.1516 C.3       1 <0>        -0.1525
     11 C7         -3.7276   -3.4840    3.9180 C.3       1 <0>         0.1290
     12 H1         -4.3962   -2.9065    3.2796 H         1 <0>         0.1226
     13 C8         -4.4159   -4.7862    4.3317 C.3       1 <0>         0.0405
     14 O1         -5.6718   -4.4874    4.9445 O.3       1 <0>        -0.3160
     15 C9         -6.4156   -5.5410    5.3727 C.ar      1 <0>         0.0915
     16 C10        -7.3288   -6.1405    4.5172 C.ar      1 <0>        -0.1030
     17 C11        -8.0832   -7.2115    4.9547 C.ar      1 <0>        -0.1113
     18 C12        -7.9290   -7.6865    6.2442 C.ar      1 <0>        -0.1154
     19 C13        -7.0202   -7.0908    7.0988 C.ar      1 <0>        -0.0814
     20 C14        -6.2591   -6.0227    6.6641 C.ar      1 <0>        -0.0968
     21 C15        -5.2640   -5.3777    7.5941 C.3       1 <0>        -0.1112
     22 C16        -6.8551   -7.6106    8.5036 C.3       1 <0>        -0.1171
     23 C17        -7.4977   -5.6230    3.1119 C.3       1 <0>        -0.1144
     24 O2         -3.4075   -2.7229    5.0844 O.3       1 <0>        -0.5391
     25 O3          2.7071   -2.3566    0.0878 O.2       1 <0>        -0.5467
     26 H2          1.0039    1.9031    0.0027 H         1 <0>         0.0596
     27 H3         -0.5459    1.8868   -0.8726 H         1 <0>         0.0640
     28 H4         -0.5289    1.8773    0.9072 H         1 <0>         0.0611
     29 H5         -1.0205   -0.3814    0.0098 H         1 <0>         0.0724
     30 H6          0.5123   -0.3556   -0.8948 H         1 <0>         0.0705
     31 H7          1.7647   -0.1336    1.2338 H         1 <0>         0.1015
     32 H8          0.2319   -0.1594    2.1383 H         1 <0>         0.0986
     33 H9         -2.6875   -4.3875    2.2619 H         1 <0>         0.1122
     34 H10        -1.7748   -4.3845    3.7900 H         1 <0>         0.1047
     35 H11        -4.5801   -5.4063    3.4504 H         1 <0>         0.0668
     36 H12        -3.7842   -5.3219    5.0403 H         1 <0>         0.0619
     37 H13        -8.7944   -7.6782    4.2892 H         1 <0>         0.1268
     38 H14        -8.5199   -8.5241    6.5845 H         1 <0>         0.1255
     39 H15        -5.7515   -4.5753    8.1478 H         1 <0>         0.0749
     40 H16        -4.8841   -6.1228    8.2931 H         1 <0>         0.0679
     41 H17        -4.4368   -4.9685    7.0141 H         1 <0>         0.0655
     42 H18        -6.0857   -8.3827    8.5172 H         1 <0>         0.0715
     43 H19        -6.5609   -6.7928    9.1614 H         1 <0>         0.0702
     44 H20        -7.7992   -8.0325    8.8482 H         1 <0>         0.0684
     45 H21        -6.8089   -6.1447    2.4474 H         1 <0>         0.0674
     46 H22        -8.5220   -5.7957    2.7818 H         1 <0>         0.0688
     47 H23        -7.2843   -4.5543    3.0901 H         1 <0>         0.0735
     48 H24        -2.8146   -3.1762    5.6993 H         1 <0>         0.3779
     49 H25         1.8624   -4.8180    0.5915 H         1 <0>         0.4569
@<TRIPOS>BOND
     1    1    2 1
     2    1   26 1
     3    1   27 1
     4    1   28 1
     5    2    3 1
     6    2   29 1
     7    2   30 1
     8    3   31 1
     9    3   32 1
    10    3    4 1
    11    4    5 am
    12    4    8 1
    13    5   25 2
    14    5    6 am
    15    6    7 1
    16    6   49 1
    17    7    8 2
    18    8    9 1
    19    9   10 1
    20   10   11 1
    21   10   33 1
    22   10   34 1
    23   11   12 1
    24   11   13 1
    25   11   24 1
    26   13   14 1
    27   13   35 1
    28   13   36 1
    29   14   15 1
    30   15   20 ar
    31   15   16 ar
    32   16   17 ar
    33   16   23 1
    34   17   18 ar
    35   17   37 1
    36   18   19 ar
    37   18   38 1
    38   19   20 ar
    39   19   22 1
    40   20   21 1
    41   21   39 1
    42   21   40 1
    43   21   41 1
    44   22   42 1
    45   22   43 1
    46   22   44 1
    47   23   45 1
    48   23   46 1
    49   23   47 1
    50   24   48 1
@<TRIPOS>MOLECULE
ZINC00489610
   46    47     0     0     0
SMALL
USER_CHARGES
ethyl 3-[7-(carbamoylmethoxy)-4,8-dimethyl-2-oxo-chromen-3-yl]propanoate
@<TRIPOS>ATOM
      1 C1          0.9527    8.2984    3.9802 C.3       1 <0>        -0.1539
      2 C2          0.9635    7.7217    2.5631 C.3       1 <0>         0.0612
      3 O1          1.0244    6.2725    2.6308 O.3       1 <0>        -0.3593
      4 C3          1.0411    5.6081    1.4646 C.2       1 <0>         0.4638
      5 O2          1.0061    6.2173    0.4217 O.2       1 <0>        -0.5058
      6 C4          1.1036    4.1025    1.4560 C.3       1 <0>        -0.1111
      7 C5          1.1110    3.6006    0.0107 C.3       1 <0>        -0.0495
      8 C6          1.1735    2.0949    0.0021 C.2       1 <0>        -0.2332
      9 C7          2.3761    1.4633   -0.0122 C.2       1 <0>         0.0444
     10 C8          2.3885   -0.0010   -0.0206 C.ar      1 <0>        -0.1826
     11 C9          3.5943   -0.7115   -0.0363 C.ar      1 <0>        -0.0194
     12 C10         3.5773   -2.0760   -0.0435 C.ar      1 <0>        -0.2229
     13 C11         2.3669   -2.7670   -0.0363 C.ar      1 <0>         0.1807
     14 C12         1.1643   -2.0799   -0.0207 C.ar      1 <0>        -0.1287
     15 C13         1.1632   -0.6931   -0.0127 C.ar      1 <0>         0.1855
     16 O3          0.0021   -0.0041    0.0020 O.3       1 <0>        -0.2637
     17 C14        -0.0161    1.3380    0.0094 C.2       1 <0>         0.5168
     18 O4         -1.0877    1.9169    0.0176 O.2       1 <0>        -0.4555
     19 C15        -0.1388   -2.8369   -0.0120 C.3       1 <0>        -0.1050
     20 O5          2.3666   -4.1244   -0.0441 O.3       1 <0>        -0.2759
     21 C16         3.6396   -4.7734   -0.0600 C.3       1 <0>         0.0356
     22 C17         3.4419   -6.2673   -0.0667 C.2       1 <0>         0.5191
     23 O6          2.3211   -6.7307   -0.0586 O.2       1 <0>        -0.5136
     24 N1          4.5105   -7.0885   -0.0817 N.am      1 <0>        -0.8490
     25 C18         3.6626    2.2482   -0.0204 C.3       1 <0>        -0.1332
     26 H1          0.9071    9.3863    3.9294 H         1 <0>         0.0811
     27 H2          0.0825    7.9230    4.5187 H         1 <0>         0.0675
     28 H3          1.8609    7.9969    4.5021 H         1 <0>         0.0669
     29 H4          1.8337    8.0971    2.0247 H         1 <0>         0.0707
     30 H5          0.0554    8.0232    2.0412 H         1 <0>         0.0712
     31 H6          0.2344    3.6998    1.9760 H         1 <0>         0.1102
     32 H7          2.0127    3.7737    1.9595 H         1 <0>         0.1066
     33 H8          1.9803    4.0033   -0.5093 H         1 <0>         0.0908
     34 H9          0.2019    3.9294   -0.4928 H         1 <0>         0.0952
     35 H10         4.5353   -0.1815   -0.0426 H         1 <0>         0.1452
     36 H11         4.5078   -2.6241   -0.0552 H         1 <0>         0.1417
     37 H12        -0.4632   -3.0135   -1.0375 H         1 <0>         0.0750
     38 H13        -0.0008   -3.7919    0.4950 H         1 <0>         0.0798
     39 H14        -0.8948   -2.2528    0.5128 H         1 <0>         0.0739
     40 H15         4.1881   -4.4755   -0.9537 H         1 <0>         0.1006
     41 H16         4.2052   -4.4857    0.8262 H         1 <0>         0.1005
     42 H17         5.4069   -6.7179   -0.0882 H         1 <0>         0.4040
     43 H18         4.3832   -8.0501   -0.0860 H         1 <0>         0.4117
     44 H19         3.9627    2.4432   -1.0499 H         1 <0>         0.0946
     45 H20         3.5143    3.1942    0.5003 H         1 <0>         0.0851
     46 H21         4.4412    1.6748    0.4826 H         1 <0>         0.0830
@<TRIPOS>BOND
     1    1    2 1
     2    1   26 1
     3    1   27 1
     4    1   28 1
     5    2    3 1
     6    2   29 1
     7    2   30 1
     8    3    4 1
     9    4    5 2
    10    4    6 1
    11    6    7 1
    12    6   31 1
    13    6   32 1
    14    7    8 1
    15    7   33 1
    16    7   34 1
    17    8   17 1
    18    8    9 2
    19    9   10 1
    20    9   25 1
    21   10   15 ar
    22   10   11 ar
    23   11   12 ar
    24   11   35 1
    25   12   13 ar
    26   12   36 1
    27   13   14 ar
    28   13   20 1
    29   14   15 ar
    30   14   19 1
    31   15   16 1
    32   16   17 1
    33   17   18 2
    34   19   37 1
    35   19   38 1
    36   19   39 1
    37   20   21 1
    38   21   22 1
    39   21   40 1
    40   21   41 1
    41   22   23 2
    42   22   24 am
    43   24   42 1
    44   24   43 1
    45   25   44 1
    46   25   45 1
    47   25   46 1
@<TRIPOS>MOLECULE
ZINC13365236
   53    54     0     0     0
SMALL
USER_CHARGES
2-[2-[(E)-[[(2R)-2-methyl-3-(4-methyl-1-piperidyl)propanoyl]hydrazono]methyl]phenoxy]acetic acid
@<TRIPOS>ATOM
      1 C1          8.9770   13.1191   -0.7523 C.3       1 <0>        -0.1520
      2 C2          7.6073   12.4457   -0.8592 C.3       1 <0>        -0.1056
      3 C3          7.7842   10.9965   -1.3208 C.3       1 <0>        -0.1421
      4 C4          6.4170   10.3106   -1.3672 C.3       1 <0>        -0.0070
      5 C5          5.5811   11.7286    0.4112 C.3       1 <0>        -0.0026
      6 C6          6.9234   12.4569    0.5107 C.3       1 <0>        -0.1427
      7 C7          4.5533    9.5771   -0.0073 C.3       1 <0>         0.0105
      8 C8          4.8753    8.0816    0.0183 C.3       1 <0>        -0.1320
      9 H1          5.5177    7.8337   -0.8267 H         1 <0>         0.1141
     10 C9          5.5944    7.7369    1.3240 C.3       1 <0>        -0.1623
     11 C10         3.5959    7.2906   -0.0745 C.2       1 <0>         0.5086
     12 O1          2.5311    7.8666   -0.1533 O.2       1 <0>        -0.4178
     13 N1          3.6346    5.9434   -0.0699 N.am      1 <0>        -0.5883
     14 N2          2.4452    5.2081   -0.1562 N.2       1 <0>        -0.1779
     15 C11         2.4825    3.9107   -0.1517 C.2       1 <0>         0.1052
     16 C12         1.2314    3.1372   -0.2425 C.ar      1 <0>        -0.1107
     17 C13         1.2670    1.7409   -0.2380 C.ar      1 <0>        -0.0515
     18 C14         0.0926    1.0232   -0.3227 C.ar      1 <0>        -0.1778
     19 C15        -1.1222    1.6807   -0.4176 C.ar      1 <0>        -0.0573
     20 C16        -1.1712    3.0619   -0.4176 C.ar      1 <0>        -0.2236
     21 C17        -0.0010    3.7986   -0.3332 C.ar      1 <0>         0.1734
     22 O2         -0.0478    5.1558   -0.3380 O.3       1 <0>        -0.2485
     23 C18        -1.3393    5.7601   -0.4330 C.3       1 <0>         0.0100
     24 C19        -1.1939    7.2600   -0.4239 C.2       1 <0>         0.4618
     25 O3         -0.0970    7.7602   -0.3441 O.co2     1 <0>        -0.5817
     26 H2          9.4655   13.1057   -1.7267 H         1 <0>         0.0656
     27 H3          8.8501   14.1506   -0.4237 H         1 <0>         0.0661
     28 H4          9.5912   12.5808   -0.0305 H         1 <0>         0.0605
     29 H5          6.9906   12.9845   -1.5786 H         1 <0>         0.0896
     30 H6          8.4327   10.4685   -0.6217 H         1 <0>         0.0856
     31 H7          8.2319   10.9832   -2.3145 H         1 <0>         0.1104
     32 H8          6.5410    9.2744   -1.6818 H         1 <0>         0.1265
     33 H9          5.7735   10.8308   -2.0767 H         1 <0>         0.1331
     34 H10         4.9415   12.2422   -0.3066 H         1 <0>         0.1332
     35 H11         5.0980   11.7223    1.3883 H         1 <0>         0.1305
     36 H12         7.5584   11.9519    1.2386 H         1 <0>         0.0857
     37 H13         6.7561   13.4869    0.8256 H         1 <0>         0.1114
     38 H14         3.9666    9.8073   -0.8966 H         1 <0>         0.1473
     39 H15         3.9825    9.8411    0.8830 H         1 <0>         0.1425
     40 H16         4.9207    7.9032    2.1646 H         1 <0>         0.0840
     41 H17         5.9005    6.6910    1.3051 H         1 <0>         0.0859
     42 H18         6.4742    8.3711    1.4326 H         1 <0>         0.0593
     43 H19         4.4860    5.4829   -0.0069 H         1 <0>         0.3711
     44 H20         3.4305    3.3980   -0.0815 H         1 <0>         0.1138
     45 H21         2.2128    1.2242   -0.1687 H         1 <0>         0.1290
     46 H22         0.1208   -0.0565   -0.3196 H         1 <0>         0.1248
     47 H23        -2.0370    1.1110   -0.4880 H         1 <0>         0.1246
     48 H24        -2.1229    3.5677   -0.4877 H         1 <0>         0.1332
     49 H25        -1.8195    5.4472   -1.3602 H         1 <0>         0.0623
     50 H26        -1.9493    5.4489    0.4150 H         1 <0>         0.0624
     51 N3          5.8226   10.3334   -0.0136 N.4       1 <0>        -0.3942
     52 H27         6.4762    9.8933    0.6446 H         1 <0>         0.4189
     53 O4         -2.2832    8.0403   -0.5043 O.co2     1 <0>        -0.7653
@<TRIPOS>BOND
     1    1    2 1
     2    1   26 1
     3    1   27 1
     4    1   28 1
     5    2    6 1
     6    2    3 1
     7    2   29 1
     8    3    4 1
     9    3   30 1
    10    3   31 1
    11    4   32 1
    12    4   33 1
    13    4   51 1
    14    5    6 1
    15    5   34 1
    16    5   35 1
    17    5   51 1
    18    6   36 1
    19    6   37 1
    20    7    8 1
    21    7   38 1
    22    7   39 1
    23    7   51 1
    24    8    9 1
    25    8   10 1
    26    8   11 1
    27   10   40 1
    28   10   41 1
    29   10   42 1
    30   11   12 2
    31   11   13 am
    32   13   14 1
    33   13   43 1
    34   14   15 2
    35   15   16 1
    36   15   44 1
    37   16   21 ar
    38   16   17 ar
    39   17   18 ar
    40   17   45 1
    41   18   19 ar
    42   18   46 1
    43   19   20 ar
    44   19   47 1
    45   20   21 ar
    46   20   48 1
    47   21   22 1
    48   22   23 1
    49   23   24 1
    50   23   49 1
    51   23   50 1
    52   24   25 2
    53   24   53 1
    54   51   52 1
@<TRIPOS>MOLECULE
ZINC45343398
   43    44     0     0     0
SMALL
USER_CHARGES

@<TRIPOS>ATOM
      1 C1          0.6469    1.5439    0.3042 C.3       1 <0>        -0.1529
      2 C2          0.6730    0.0141    0.3012 C.3       1 <0>         0.0613
      3 O1          1.1636   -0.4514   -0.9576 O.3       1 <0>        -0.3491
      4 C3          1.2493   -1.7806   -1.1244 C.2       1 <0>         0.4634
      5 O2          0.9186   -2.5241   -0.2312 O.2       1 <0>        -0.4816
      6 C4          1.7578   -2.3455   -2.4257 C.3       1 <0>         0.0702
      7 O3          1.7553   -3.7729   -2.3587 O.3       1 <0>        -0.2947
      8 C5          2.1884   -4.4429   -3.4588 C.ar      1 <0>         0.1477
      9 C6          2.6126   -3.7398   -4.5779 C.ar      1 <0>        -0.2250
     10 C7          3.0536   -4.4198   -5.6970 C.ar      1 <0>        -0.0576
     11 C8          3.0739   -5.8013   -5.7058 C.ar      1 <0>        -0.1522
     12 C9          2.6501   -6.5099   -4.5890 C.ar      1 <0>         0.2075
     13 C10         2.2122   -5.8286   -3.4620 C.ar      1 <0>        -0.1761
     14 N1          2.6702   -7.9092   -4.5981 N.am      1 <0>        -0.6846
     15 C11         3.6294   -8.5650   -5.2809 C.2       1 <0>         0.7078
     16 O4          4.5323   -7.9446   -5.8084 O.2       1 <0>        -0.5667
     17 N2          3.5878   -9.9085   -5.3791 N.am      1 <0>        -0.7338
     18 C12         4.6305  -10.6214   -6.1213 C.3       1 <0>         0.2158
     19 C13         4.3536  -12.1021   -6.0797 C.2       1 <0>         0.0424
     20 C14         3.6852  -12.7277   -7.0823 C.2       1 <0>        -0.2114
     21 S1          3.6754  -14.4065   -6.4738 S.3       1 <0>         0.1155
     22 C15         4.5075  -14.1359   -5.0360 C.2       1 <0>         0.0589
     23 N3          4.7540  -12.8501   -5.0709 N.2       1 <0>        -0.5103
     24 C16         4.8828  -15.1325   -3.9697 C.3       1 <0>        -0.0670
     25 H1          1.6556    1.9248    0.1440 H         1 <0>         0.0683
     26 H2         -0.0060    1.8977   -0.4937 H         1 <0>         0.0682
     27 H3          0.2727    1.8990    1.2643 H         1 <0>         0.0826
     28 H4          1.3260   -0.3397    1.0990 H         1 <0>         0.0709
     29 H5         -0.3357   -0.3667    0.4614 H         1 <0>         0.0709
     30 H6          1.1119   -2.0189   -3.2407 H         1 <0>         0.1097
     31 H7          2.7735   -1.9918   -2.6031 H         1 <0>         0.1097
     32 H8          2.5976   -2.6600   -4.5741 H         1 <0>         0.1310
     33 H9          3.3828   -3.8703   -6.5665 H         1 <0>         0.1320
     34 H10         3.4190   -6.3304   -6.5817 H         1 <0>         0.1395
     35 H11         1.8867   -6.3773   -2.5905 H         1 <0>         0.1357
     36 H12         1.9937   -8.4071   -4.1130 H         1 <0>         0.4091
     37 H13         2.8675  -10.4035   -4.9583 H         1 <0>         0.3993
     38 H14         4.6360  -10.2817   -7.1570 H         1 <0>         0.0882
     39 H15         5.6011  -10.4204   -5.6679 H         1 <0>         0.0861
     40 H16         3.2736  -12.3224   -7.9948 H         1 <0>         0.1996
     41 H17         4.5284  -16.1225   -4.2567 H         1 <0>         0.0862
     42 H18         5.9668  -15.1532   -3.8572 H         1 <0>         0.0931
     43 H19         4.4248  -14.8426   -3.0240 H         1 <0>         0.0925
@<TRIPOS>BOND
     1    1    2 1
     2    1   25 1
     3    1   26 1
     4    1   27 1
     5    2    3 1
     6    2   28 1
     7    2   29 1
     8    3    4 1
     9    4    5 2
    10    4    6 1
    11    6    7 1
    12    6   30 1
    13    6   31 1
    14    7    8 1
    15    8   13 ar
    16    8    9 ar
    17    9   10 ar
    18    9   32 1
    19   10   11 ar
    20   10   33 1
    21   11   12 ar
    22   11   34 1
    23   12   13 ar
    24   12   14 1
    25   13   35 1
    26   14   15 am
    27   14   36 1
    28   15   16 2
    29   15   17 am
    30   17   18 1
    31   17   37 1
    32   18   19 1
    33   18   38 1
    34   18   39 1
    35   19   23 1
    36   19   20 2
    37   20   21 1
    38   20   40 1
    39   21   22 1
    40   22   23 2
    41   22   24 1
    42   24   41 1
    43   24   42 1
    44   24   43 1
@<TRIPOS>MOLECULE
ZINC07504292
   43    45     0     0     0
SMALL
USER_CHARGES

@<TRIPOS>ATOM
      1 C1         -0.0187    1.5258    0.0104 C.3       1 <0>        -0.1542
      2 C2          0.0021   -0.0041    0.0020 C.3       1 <0>         0.0527
      3 O1         -1.3386   -0.4987    0.0122 O.3       1 <0>        -0.3134
      4 C3         -1.4983   -1.8479    0.0064 C.ar      1 <0>         0.1505
      5 C4         -0.3840   -2.6769   -0.0029 C.ar      1 <0>        -0.2155
      6 C5         -0.5412   -4.0461   -0.0082 C.ar      1 <0>        -0.0459
      7 C6         -1.8241   -4.6000   -0.0043 C.ar      1 <0>        -0.0972
      8 C7         -2.9422   -3.7619    0.0050 C.ar      1 <0>        -0.0347
      9 C8         -2.7753   -2.3939    0.0157 C.ar      1 <0>        -0.1572
     10 C9         -1.9974   -6.0640   -0.0105 C.2       1 <0>         0.1157
     11 N1         -3.1902   -6.5765   -0.0069 N.2       1 <0>        -0.2077
     12 N2         -3.3549   -7.9677   -0.0128 N.pl3     1 <0>        -0.5502
     13 C10        -4.6252   -8.5135   -0.0089 C.2       1 <0>         0.5625
     14 N3         -5.7568   -7.8405   -0.0055 N.2       1 <0>        -0.5203
     15 C11        -6.7872   -8.6930   -0.0028 C.2       1 <0>         0.2276
     16 N4         -6.3247   -9.9206   -0.0044 N.2       1 <0>        -0.3198
     17 N5         -4.9234   -9.8303   -0.0137 N.pl3     1 <0>        -0.5041
     18 S1         -8.4901   -8.2407    0.0030 S.3       1 <0>         0.0484
     19 C12        -9.3661   -9.8291    0.0047 C.3       1 <0>        -0.0809
     20 C13       -10.8528   -9.5829    0.0096 C.ar      1 <0>        -0.0340
     21 C14       -11.5483   -9.4621    1.2030 C.ar      1 <0>        -0.1534
     22 C15       -12.9113   -9.2365    1.1683 C.ar      1 <0>         0.1015
     23 N6        -13.5495   -9.1368    0.0186 N.ar      1 <0>        -0.4801
     24 C16       -12.9206   -9.2464   -1.1353 C.ar      1 <0>         0.1016
     25 C17       -11.5568   -9.4661   -1.1791 C.ar      1 <0>        -0.1534
     26 H1          1.0039    1.9031    0.0027 H         1 <0>         0.0798
     27 H2         -0.5459    1.8868   -0.8726 H         1 <0>         0.0674
     28 H3         -0.5289    1.8773    0.9072 H         1 <0>         0.0674
     29 H4          0.5123   -0.3556   -0.8948 H         1 <0>         0.0641
     30 H5          0.5293   -0.3651    0.8851 H         1 <0>         0.0641
     31 H6          0.6071   -2.2479   -0.0062 H         1 <0>         0.1329
     32 H7          0.3259   -4.6900   -0.0158 H         1 <0>         0.1312
     33 H8         -3.9356   -4.1856    0.0078 H         1 <0>         0.1446
     34 H9         -3.6388   -1.7454    0.0271 H         1 <0>         0.1366
     35 H10        -1.1320   -6.7102   -0.0181 H         1 <0>         0.1212
     36 H11        -2.5777   -8.5481   -0.0196 H         1 <0>         0.3997
     37 H12        -9.0945  -10.3948   -0.8866 H         1 <0>         0.1068
     38 H13        -9.0887  -10.3960    0.8934 H         1 <0>         0.1069
     39 H14       -11.0314   -9.5435    2.1478 H         1 <0>         0.1399
     40 H15       -13.4603   -9.1412    2.0935 H         1 <0>         0.1601
     41 H16       -13.4771   -9.1594   -2.0568 H         1 <0>         0.1601
     42 H17       -11.0467   -9.5501   -2.1273 H         1 <0>         0.1399
     43 H18        -4.2940  -10.5682   -0.0205 H         1 <0>         0.4391
@<TRIPOS>BOND
     1    1    2 1
     2    1   26 1
     3    1   27 1
     4    1   28 1
     5    2    3 1
     6    2   29 1
     7    2   30 1
     8    3    4 1
     9    4    9 ar
    10    4    5 ar
    11    5    6 ar
    12    5   31 1
    13    6    7 ar
    14    6   32 1
    15    7    8 ar
    16    7   10 1
    17    8    9 ar
    18    8   33 1
    19    9   34 1
    20   10   11 2
    21   10   35 1
    22   11   12 1
    23   12   13 1
    24   12   36 1
    25   13   17 1
    26   13   14 2
    27   14   15 1
    28   15   16 2
    29   15   18 1
    30   16   17 1
    31   17   43 1
    32   18   19 1
    33   19   20 1
    34   19   37 1
    35   19   38 1
    36   20   25 ar
    37   20   21 ar
    38   21   22 ar
    39   21   39 1
    40   22   23 ar
    41   22   40 1
    42   23   24 ar
    43   24   25 ar
    44   24   41 1
    45   25   42 1
@<TRIPOS>MOLECULE
ZINC66654736
   46    47     0     0     0
SMALL
USER_CHARGES

@<TRIPOS>ATOM
      1 C1         -0.0979    1.3761    1.8722 C.3       1 <0>        -0.1526
      2 C2         -0.0669   -0.1345    1.6312 C.3       1 <0>         0.0563
      3 O1         -1.3989   -0.6127    1.4335 O.3       1 <0>        -0.3640
      4 C3         -1.4824   -2.0198    1.1988 C.3       1 <0>         0.0577
      5 C4         -2.9245   -2.4121    1.0051 C.2       1 <0>         0.5143
      6 O2         -3.7950   -1.5696    1.0623 O.2       1 <0>        -0.5105
      7 N1         -3.2468   -3.6991    0.7681 N.am      1 <0>        -0.5233
      8 N2         -4.5874   -4.0638    0.5880 N.am      1 <0>        -0.5027
      9 C5         -4.9097   -5.3508    0.3511 C.2       1 <0>         0.5955
     10 O3         -4.0367   -6.1957    0.2937 O.2       1 <0>        -0.5356
     11 C6         -6.3193   -5.7342    0.1617 C.2       1 <0>        -0.0041
     12 C7         -6.6577   -7.0399   -0.0743 C.2       1 <0>        -0.1962
     13 S1         -8.3331   -6.9620   -0.2150 S.3       1 <0>         0.1776
     14 C8         -8.5287   -5.2075    0.0429 C.2       1 <0>         0.1307
     15 N3         -7.2787   -4.8203    0.2230 N.2       1 <0>        -0.4683
     16 C9         -9.7665   -4.3990    0.0562 C.ar      1 <0>        -0.0626
     17 C10        -9.7003   -3.0216    0.2724 C.ar      1 <0>        -0.0265
     18 C11       -10.8564   -2.2712    0.2837 C.ar      1 <0>        -0.1531
     19 C12       -12.0860   -2.8839    0.0803 C.ar      1 <0>         0.1583
     20 C13       -12.1560   -4.2541   -0.1351 C.ar      1 <0>        -0.2103
     21 C14       -11.0037   -5.0104   -0.1530 C.ar      1 <0>        -0.0478
     22 O4        -13.2233   -2.1411    0.0926 O.3       1 <0>        -0.3051
     23 C15       -14.4613   -2.8485   -0.0031 C.3       1 <0>         0.0746
     24 C16       -15.5769   -2.0115    0.6260 C.3       1 <0>        -0.1508
     25 C17       -14.7874   -3.1090   -1.4750 C.3       1 <0>        -0.1830
     26 H1          0.9181    1.7409    2.0230 H         1 <0>         0.0748
     27 H2         -0.5378    1.8731    1.0076 H         1 <0>         0.0653
     28 H3         -0.6961    1.5905    2.7578 H         1 <0>         0.0653
     29 H4          0.5313   -0.3489    0.7456 H         1 <0>         0.0535
     30 H5          0.3730   -0.6314    2.4959 H         1 <0>         0.0535
     31 H6         -0.9135   -2.2734    0.3043 H         1 <0>         0.0886
     32 H7         -1.0718   -2.5559    2.0545 H         1 <0>         0.0886
     33 H8         -2.5505   -4.3729    0.7224 H         1 <0>         0.4328
     34 H9         -5.2837   -3.3900    0.6338 H         1 <0>         0.4426
     35 H10        -6.0123   -7.9024   -0.1510 H         1 <0>         0.2121
     36 H11        -8.7444   -2.5445    0.4309 H         1 <0>         0.1436
     37 H12       -10.8060   -1.2055    0.4512 H         1 <0>         0.1411
     38 H13       -13.1140   -4.7270   -0.2928 H         1 <0>         0.1396
     39 H14       -11.0585   -6.0752   -0.3247 H         1 <0>         0.1308
     40 H15       -14.3784   -3.7987    0.5244 H         1 <0>         0.0766
     41 H16       -15.6597   -1.0612    0.0985 H         1 <0>         0.0688
     42 H17       -16.5211   -2.5511    0.5531 H         1 <0>         0.0792
     43 H18       -15.3445   -1.8259    1.6747 H         1 <0>         0.0664
     44 H19       -15.7316   -3.6486   -1.5480 H         1 <0>         0.0747
     45 H20       -14.8702   -2.1588   -2.0025 H         1 <0>         0.0696
     46 H21       -13.9926   -3.7053   -1.9232 H         1 <0>         0.0640
@<TRIPOS>BOND
     1    1    2 1
     2    1   26 1
     3    1   27 1
     4    1   28 1
     5    2    3 1
     6    2   29 1
     7    2   30 1
     8    3    4 1
     9    4    5 1
    10    4   31 1
    11    4   32 1
    12    5    6 2
    13    5    7 am
    14    7    8 1
    15    7   33 1
    16    8    9 am
    17    8   34 1
    18    9   10 2
    19    9   11 1
    20   11   15 1
    21   11   12 2
    22   12   13 1
    23   12   35 1
    24   13   14 1
    25   14   15 2
    26   14   16 1
    27   16   21 ar
    28   16   17 ar
    29   17   18 ar
    30   17   36 1
    31   18   19 ar
    32   18   37 1
    33   19   20 ar
    34   19   22 1
    35   20   21 ar
    36   20   38 1
    37   21   39 1
    38   22   23 1
    39   23   24 1
    40   23   25 1
    41   23   40 1
    42   24   41 1
    43   24   42 1
    44   24   43 1
    45   25   44 1
    46   25   45 1
    47   25   46 1
@<TRIPOS>MOLECULE
ZINC04160417
   52    55     0     0     0
SMALL
USER_CHARGES
1-(2-furylmethyl)-3-isobutyl-1-[(oxoBLAHyl)methyl]thiourea
@<TRIPOS>ATOM
      1 C1         -6.2676    2.1666    6.2194 C.3       1 <0>        -0.1525
      2 C2         -7.6057    2.0375    5.4889 C.3       1 <0>        -0.1101
      3 C3         -8.6399    2.9477    6.1543 C.3       1 <0>        -0.1444
      4 C4         -7.4299    2.4495    4.0259 C.3       1 <0>         0.1278
      5 N1         -6.5307    1.5056    3.3575 N.pl3     1 <0>        -0.6882
      6 C5         -6.2281    1.6707    2.0545 C.2       1 <0>         0.5427
      7 S1         -6.8945    2.9833    1.1806 S.2       1 <0>        -0.5636
      8 N2         -5.4009    0.8023    1.4396 N.pl3     1 <0>        -0.5702
      9 C6         -4.9270   -0.3872    2.1514 C.3       1 <0>         0.1744
     10 C7         -3.6431   -0.0638    2.8712 C.2       1 <0>        -0.0440
     11 C8         -3.5425    0.4053    4.1278 C.2       1 <0>        -0.1913
     12 C9         -2.1636    0.5660    4.3959 C.2       1 <0>        -0.2123
     13 C10        -1.5041    0.1855    3.2870 C.2       1 <0>        -0.0225
     14 O1         -2.4051   -0.2004    2.3688 O.3       1 <0>        -0.1616
     15 C11        -4.9755    1.0480    0.0594 C.3       1 <0>         0.1639
     16 C12        -3.6248    1.7163    0.0614 C.2       1 <0>        -0.1980
     17 C13        -2.4997    0.9672   -0.0628 C.2       1 <0>         0.0107
     18 C14        -1.2042    1.6456   -0.0621 C.ar      1 <0>        -0.1238
     19 C15        -0.0103    0.9229   -0.1805 C.ar      1 <0>        -0.0372
     20 C16         1.1950    1.5891   -0.1717 C.ar      1 <0>        -0.0033
     21 C17         1.2299    2.9833   -0.0401 C.ar      1 <0>         0.0963
     22 C18         0.0562    3.7041    0.0828 C.ar      1 <0>        -0.1580
     23 C19        -1.1675    3.0468    0.0762 C.ar      1 <0>         0.2126
     24 N3         -2.3489    3.7501    0.1984 N.am      1 <0>        -0.6348
     25 H1         -2.3223    4.7453    0.2926 H         1 <0>         0.4208
     26 C20        -3.5347    3.1168    0.1926 C.2       1 <0>         0.5186
     27 O2         -4.5579    3.7703    0.3032 O.2       1 <0>        -0.4612
     28 O3          2.5330    3.3870   -0.0614 O.3       1 <0>        -0.3025
     29 C21         3.3081    2.2042    0.2074 C.3       1 <0>         0.2123
     30 O4          2.4778    1.1311   -0.2738 O.3       1 <0>        -0.3043
     31 H2         -5.9259    3.2006    6.1717 H         1 <0>         0.0616
     32 H3         -6.3929    1.8731    7.2617 H         1 <0>         0.0618
     33 H4         -5.5308    1.5182    5.7454 H         1 <0>         0.0482
     34 H5         -7.9474    1.0035    5.5366 H         1 <0>         0.0752
     35 H6         -9.5932    2.8557    5.6338 H         1 <0>         0.0617
     36 H7         -8.7652    2.6542    7.1965 H         1 <0>         0.0620
     37 H8         -8.2982    3.9816    6.1065 H         1 <0>         0.0615
     38 H9         -7.0042    3.4519    3.9794 H         1 <0>         0.0865
     39 H10        -8.3992    2.4429    3.5276 H         1 <0>         0.0873
     40 H11        -6.1531    0.7619    3.8526 H         1 <0>         0.3897
     41 H12        -5.6796   -0.7019    2.8744 H         1 <0>         0.1075
     42 H13        -4.7505   -1.1916    1.4373 H         1 <0>         0.1128
     43 H14        -4.3585    0.6188    4.8024 H         1 <0>         0.1428
     44 H15        -1.7242    0.9256    5.3146 H         1 <0>         0.1484
     45 H16        -0.4318    0.1854    3.1586 H         1 <0>         0.2009
     46 H17        -5.7004    1.6952   -0.4344 H         1 <0>         0.1403
     47 H18        -4.9112    0.1003   -0.4752 H         1 <0>         0.0953
     48 H19        -2.5601   -0.1064   -0.1638 H         1 <0>         0.1428
     49 H20        -0.0350   -0.1520   -0.2826 H         1 <0>         0.1471
     50 H21         0.0910    4.7788    0.1842 H         1 <0>         0.1459
     51 H22         3.4872    2.0991    1.2774 H         1 <0>         0.0881
     52 H23         4.2522    2.2310   -0.3368 H         1 <0>         0.1363
@<TRIPOS>BOND
     1    1    2 1
     2    1   31 1
     3    1   32 1
     4    1   33 1
     5    2    3 1
     6    2    4 1
     7    2   34 1
     8    3   35 1
     9    3   36 1
    10    3   37 1
    11    4    5 1
    12    4   38 1
    13    4   39 1
    14    5    6 1
    15    5   40 1
    16    6    7 2
    17    6    8 1
    18    8    9 1
    19    8   15 1
    20    9   10 1
    21    9   41 1
    22    9   42 1
    23   10   14 1
    24   10   11 2
    25   11   12 1
    26   11   43 1
    27   12   13 2
    28   12   44 1
    29   13   14 1
    30   13   45 1
    31   15   16 1
    32   15   46 1
    33   15   47 1
    34   16   26 1
    35   16   17 2
    36   17   18 1
    37   17   48 1
    38   18   23 ar
    39   18   19 ar
    40   19   20 ar
    41   19   49 1
    42   20   30 1
    43   20   21 ar
    44   21   22 ar
    45   21   28 1
    46   22   23 ar
    47   22   50 1
    48   23   24 1
    49   24   25 1
    50   24   26 am
    51   26   27 2
    52   28   29 1
    53   29   30 1
    54   29   51 1
    55   29   52 1
@<TRIPOS>MOLECULE
ZINC08883629
   52    55     0     0     0
SMALL
USER_CHARGES
N-(4-benzyloxyphenyl)-3-[(9,9-dioxo-9$l^{6}-thia-8-azabicyclo[4.3.0]nona-1,3,5,7-tetraen-7-yl)amino]propanamide
@<TRIPOS>ATOM
      1 C1         -0.3696    1.1234   -1.2537 C.ar      1 <0>        -0.1086
      2 C2         -0.1854   -0.1227   -0.6842 C.ar      1 <0>        -0.1228
      3 C3          0.9224   -0.8787   -1.0192 C.ar      1 <0>        -0.0951
      4 C4          1.8454   -0.3891   -1.9243 C.ar      1 <0>        -0.0993
      5 C5          1.6609    0.8568   -2.4941 C.ar      1 <0>        -0.0953
      6 C6          0.5534    1.6130   -2.1587 C.ar      1 <0>        -0.1232
      7 C7          3.0530   -1.2134   -2.2894 C.3       1 <0>         0.1022
      8 O1          4.1252   -0.9097   -1.3948 O.3       1 <0>        -0.3074
      9 C8          5.2967   -1.5724   -1.5879 C.ar      1 <0>         0.1200
     10 C9          5.4079   -2.4993   -2.6140 C.ar      1 <0>        -0.1909
     11 C10         6.5991   -3.1685   -2.8141 C.ar      1 <0>        -0.1018
     12 C11         7.6821   -2.9217   -1.9811 C.ar      1 <0>         0.1038
     13 C12         7.5684   -1.9980   -0.9507 C.ar      1 <0>        -0.0776
     14 C13         6.3783   -1.3254   -0.7552 C.ar      1 <0>        -0.1305
     15 N1          8.8894   -3.6042   -2.1803 N.am      1 <0>        -0.6703
     16 C14         9.6659   -3.9220   -1.1255 C.2       1 <0>         0.5174
     17 O2          9.2763   -3.7034    0.0021 O.2       1 <0>        -0.5090
     18 C15        11.0183   -4.5490   -1.3471 C.3       1 <0>        -0.1566
     19 C16        11.6882   -4.8074    0.0039 C.3       1 <0>         0.1304
     20 N2         13.0029   -5.4169   -0.2115 N.pl3     1 <0>        -0.6715
     21 C17        13.7966   -5.7418    0.8668 C.2       1 <0>         0.5105
     22 N3         13.3876   -5.5120    2.0739 N.2       1 <0>        -0.8769
     23 S1         14.6163   -6.0382    3.0810 S.o2      1 <0>         2.5811
     24 O3         15.1780   -4.8957    3.7122 O.2       1 <0>        -0.9405
     25 O4         14.1372   -7.1705    3.7934 O.2       1 <0>        -0.9406
     26 C18        15.7766   -6.6116    1.8707 C.ar      1 <0>        -0.6162
     27 C19        15.1157   -6.3591    0.6601 C.ar      1 <0>        -0.1214
     28 C20        15.7858   -6.7007   -0.5243 C.ar      1 <0>        -0.0535
     29 C21        17.0380   -7.2716   -0.4746 C.ar      1 <0>        -0.0864
     30 C22        17.6623   -7.5142    0.7356 C.ar      1 <0>        -0.0915
     31 C23        17.0169   -7.1772    1.9174 C.ar      1 <0>         0.0057
     32 H1         -1.2323    1.7163   -0.9880 H         1 <0>         0.1251
     33 H2         -0.9065   -0.5052    0.0229 H         1 <0>         0.1261
     34 H3          1.0667   -1.8520   -0.5737 H         1 <0>         0.1245
     35 H4          2.3823    1.2394   -3.2009 H         1 <0>         0.1242
     36 H5          0.4095    2.5865   -2.6036 H         1 <0>         0.1259
     37 H6          2.8062   -2.2724   -2.2146 H         1 <0>         0.0718
     38 H7          3.3555   -0.9821   -3.3108 H         1 <0>         0.0718
     39 H8          4.5641   -2.6944   -3.2591 H         1 <0>         0.1324
     40 H9          6.6871   -3.8867   -3.6160 H         1 <0>         0.1289
     41 H10         8.4105   -1.8053   -0.3026 H         1 <0>         0.1419
     42 H11         6.2898   -0.6065    0.0460 H         1 <0>         0.1359
     43 H12         9.1664   -3.8480   -3.0774 H         1 <0>         0.4112
     44 H13        10.8985   -5.4925   -1.8797 H         1 <0>         0.1073
     45 H14        11.6389   -3.8748   -1.9374 H         1 <0>         0.1085
     46 H15        11.8080   -3.8639    0.5364 H         1 <0>         0.0950
     47 H16        11.0675   -5.4815    0.5942 H         1 <0>         0.0950
     48 H17        13.3145   -5.5917   -1.1133 H         1 <0>         0.4136
     49 H18        15.3154   -6.5190   -1.4794 H         1 <0>         0.1389
     50 H19        17.5398   -7.5340   -1.3942 H         1 <0>         0.1447
     51 H20        18.6444   -7.9629    0.7608 H         1 <0>         0.1476
     52 H21        17.4942   -7.3614    2.8685 H         1 <0>         0.1457
@<TRIPOS>BOND
     1    1    6 ar
     2    1    2 ar
     3    1   32 1
     4    2    3 ar
     5    2   33 1
     6    3    4 ar
     7    3   34 1
     8    4    5 ar
     9    4    7 1
    10    5    6 ar
    11    5   35 1
    12    6   36 1
    13    7    8 1
    14    7   37 1
    15    7   38 1
    16    8    9 1
    17    9   14 ar
    18    9   10 ar
    19   10   11 ar
    20   10   39 1
    21   11   12 ar
    22   11   40 1
    23   12   13 ar
    24   12   15 1
    25   13   14 ar
    26   13   41 1
    27   14   42 1
    28   15   16 am
    29   15   43 1
    30   16   17 2
    31   16   18 1
    32   18   19 1
    33   18   44 1
    34   18   45 1
    35   19   20 1
    36   19   46 1
    37   19   47 1
    38   20   21 1
    39   20   48 1
    40   21   27 1
    41   21   22 2
    42   22   23 1
    43   23   24 2
    44   23   25 2
    45   23   26 1
    46   26   31 ar
    47   26   27 ar
    48   27   28 ar
    49   28   29 ar
    50   28   49 1
    51   29   30 ar
    52   29   50 1
    53   30   31 ar
    54   30   51 1
    55   31   52 1
@<TRIPOS>MOLECULE
ZINC22187525
   52    54     0     0     0
SMALL
USER_CHARGES
1-butyl-2-[(1-propylimidazol-2-yl)sulfanylmethyl]benzimidazole-5-sulfonamide
@<TRIPOS>ATOM
      1 C1         -3.3539    9.5242   -5.4555 C.3       1 <0>        -0.1537
      2 C2         -2.1768    8.5719   -5.6756 C.3       1 <0>        -0.1199
      3 C3         -2.5611    7.1684   -5.2031 C.3       1 <0>        -0.1437
      4 C4         -1.3840    6.2160   -5.4233 C.3       1 <0>         0.1007
      5 N1         -1.7519    4.8721   -4.9709 N.pl3     1 <0>        -0.4761
      6 C5         -1.5747    4.3589   -3.7016 C.ar      1 <0>         0.1010
      7 C6         -1.0451    4.8614   -2.5207 C.ar      1 <0>        -0.1204
      8 C7         -1.0192    4.0696   -1.3926 C.ar      1 <0>        -0.0231
      9 C8         -1.5070    2.7710   -1.4335 C.ar      1 <0>        -0.6706
     10 C9         -2.0311    2.2595   -2.5866 C.ar      1 <0>         0.0663
     11 C10        -2.0736    3.0460   -3.7410 C.ar      1 <0>         0.0239
     12 N2         -2.5200    2.8303   -5.0050 N.2       1 <0>        -0.4557
     13 C11        -2.3316    3.8985   -5.7236 C.2       1 <0>         0.2902
     14 C12        -2.7021    4.0371   -7.1778 C.3       1 <0>        -0.0292
     15 S1         -4.3942    4.6655   -7.3121 S.3       1 <0>         0.0154
     16 C13        -4.5591    4.7281   -9.0652 C.2       1 <0>         0.1811
     17 N3         -3.6360    4.3920   -9.9359 N.2       1 <0>        -0.4878
     18 C14        -4.1144    4.5645  -11.1795 C.2       1 <0>        -0.0162
     19 C15        -5.3714    5.0311  -11.0882 C.2       1 <0>        -0.0399
     20 N4         -5.6634    5.1386   -9.7470 N.pl3     1 <0>        -0.4409
     21 C16        -6.9234    5.6065   -9.1642 C.3       1 <0>         0.0975
     22 C17        -6.8147    7.0989   -8.8454 C.3       1 <0>        -0.1399
     23 C18        -8.1307    7.5876   -8.2368 C.3       1 <0>        -0.1525
     24 S2         -1.4563    1.7742    0.0186 S.o2      1 <0>         2.6408
     25 O1         -2.4724    0.7917   -0.1276 O.2       1 <0>        -0.9500
     26 O2         -1.4135    2.6674    1.1230 O.2       1 <0>        -0.9844
     27 N5         -0.0111    0.9658    0.0074 N.pl3     1 <0>        -1.1621
     28 H1         -3.0776   10.5333   -5.7952 H         1 <0>         0.0585
     29 H2         -3.6063    9.5539   -4.3853 H         1 <0>         0.0557
     30 H3         -4.2240    9.1700   -6.0278 H         1 <0>         0.0560
     31 H4         -1.9244    8.5422   -6.7458 H         1 <0>         0.0668
     32 H5         -1.3067    8.9260   -5.1033 H         1 <0>         0.0659
     33 H6         -2.8135    7.1981   -4.1329 H         1 <0>         0.0717
     34 H7         -3.4313    6.8143   -5.7753 H         1 <0>         0.0816
     35 H8         -1.1316    6.1863   -6.4935 H         1 <0>         0.0994
     36 H9         -0.5138    6.5701   -4.8511 H         1 <0>         0.0981
     37 H10        -0.6602    5.8699   -2.4847 H         1 <0>         0.1343
     38 H11        -0.6120    4.4608   -0.4720 H         1 <0>         0.1495
     39 H12        -2.4123    1.2492   -2.6061 H         1 <0>         0.1525
     40 H13        -2.0105    4.7387   -7.6671 H         1 <0>         0.1193
     41 H14        -2.6358    3.0548   -7.6683 H         1 <0>         0.1364
     42 H15        -3.5786    4.3666  -12.0961 H         1 <0>         0.1751
     43 H16        -6.0275    5.2757  -11.9104 H         1 <0>         0.1795
     44 H17        -7.7418    5.4433   -9.8809 H         1 <0>         0.0996
     45 H18        -7.1293    5.0480   -8.2392 H         1 <0>         0.0955
     46 H19        -5.9963    7.2621   -8.1287 H         1 <0>         0.0731
     47 H20        -6.6088    7.6574   -9.7704 H         1 <0>         0.0714
     48 H21        -8.0525    8.6606   -8.0076 H         1 <0>         0.0651
     49 H22        -8.3366    7.0291   -7.3118 H         1 <0>         0.0606
     50 H23        -8.9490    7.4244   -8.9535 H         1 <0>         0.0598
     51 H24         0.0599    0.3294    0.9018 H         1 <0>         0.4141
     52 H25         0.8152    1.6919    0.0075 H         1 <0>         0.4092
@<TRIPOS>BOND
     1    1    2 1
     2    1   28 1
     3    1   29 1
     4    1   30 1
     5    2    3 1
     6    2   31 1
     7    2   32 1
     8    3    4 1
     9    3   33 1
    10    3   34 1
    11    4    5 1
    12    4   35 1
    13    4   36 1
    14    5   13 1
    15    5    6 1
    16    6   11 ar
    17    6    7 ar
    18    7    8 ar
    19    7   37 1
    20    8    9 ar
    21    8   38 1
    22    9   10 ar
    23    9   24 1
    24   10   11 ar
    25   10   39 1
    26   11   12 1
    27   12   13 2
    28   13   14 1
    29   14   15 1
    30   14   40 1
    31   14   41 1
    32   15   16 1
    33   16   20 1
    34   16   17 2
    35   17   18 1
    36   18   19 2
    37   18   42 1
    38   19   20 1
    39   19   43 1
    40   20   21 1
    41   21   22 1
    42   21   44 1
    43   21   45 1
    44   22   23 1
    45   22   46 1
    46   22   47 1
    47   23   48 1
    48   23   49 1
    49   23   50 1
    50   24   25 2
    51   24   26 2
    52   24   27 1
    53   27   51 1
    54   27   52 1
@<TRIPOS>MOLECULE
ZINC35342824
   58    60     0     0     0
SMALL
USER_CHARGES

@<TRIPOS>ATOM
      1 C1         -0.1830    1.3221    0.4211 C.3       1 <0>        -0.1503
      2 C2          0.0855   -0.1161   -0.0264 C.3       1 <0>        -0.0856
      3 C3          0.8105   -0.1041   -1.3475 C.ar      1 <0>        -0.1152
      4 C4          0.1002   -0.2137   -2.5271 C.ar      1 <0>        -0.0982
      5 C5          0.7646   -0.2027   -3.7395 C.ar      1 <0>        -0.1354
      6 C6          2.1419   -0.0825   -3.7755 C.ar      1 <0>        -0.1042
      7 C7          2.8579    0.0274   -2.5998 C.ar      1 <0>        -0.1290
      8 C8          2.1928    0.0229   -1.3805 C.ar      1 <0>         0.1626
      9 N1          2.9149    0.1399   -0.1874 N.am      1 <0>        -0.6788
     10 C9          4.1975   -0.2704   -0.1330 C.2       1 <0>         0.7070
     11 O1          4.7534   -0.6631   -1.1406 O.2       1 <0>        -0.5614
     12 N2          4.8639   -0.2456    1.0382 N.am      1 <0>        -0.6141
     13 C10         6.2885   -0.5850    1.0778 C.3       1 <0>         0.2210
     14 C11         7.1081    0.6631    0.8739 C.2       1 <0>        -0.0267
     15 N3          7.5602    1.4863    1.7802 N.2       1 <0>        -0.4604
     16 C12         8.2740    2.5429    1.3788 C.2       1 <0>        -0.0149
     17 C13         8.4657    2.6617    0.0283 C.2       1 <0>        -0.2360
     18 S1          7.6592    1.3155   -0.5713 S.3       1 <0>         0.3127
     19 C14         8.8216    3.5218    2.3330 C.2       1 <0>         0.5976
     20 O2          9.4664    4.4705    1.9284 O.2       1 <0>        -0.5321
     21 N4          8.6084    3.3665    3.6547 N.am      1 <0>        -0.7106
     22 C15         9.1531    4.3403    4.6040 C.3       1 <0>         0.1592
     23 C16         8.7753    3.9399    6.0069 C.ar      1 <0>        -0.0645
     24 C17         7.5954    4.3892    6.5797 C.ar      1 <0>        -0.1538
     25 C18         7.2821    4.0012    7.8686 C.ar      1 <0>         0.0998
     26 N5          8.0903    3.2140    8.5514 N.ar      1 <0>        -0.4786
     27 C19         9.2203    2.7678    8.0386 C.ar      1 <0>         0.1002
     28 C20         9.5966    3.1088    6.7532 C.ar      1 <0>        -0.1535
     29 C21         4.1637    0.1209    2.2717 C.3       1 <0>         0.1329
     30 C22         4.3525   -0.9842    3.3129 C.3       1 <0>        -0.1644
     31 C23         4.7350    1.4335    2.8118 C.3       1 <0>        -0.1758
     32 H1          0.7636    1.8512    0.5310 H         1 <0>         0.0491
     33 H2         -0.7966    1.8264   -0.3255 H         1 <0>         0.0615
     34 H3         -0.7074    1.3134    1.3766 H         1 <0>         0.0615
     35 H4          0.6990   -0.6204    0.7202 H         1 <0>         0.0657
     36 H5         -0.8611   -0.6452   -0.1363 H         1 <0>         0.0784
     37 H6         -0.9754   -0.3083   -2.5023 H         1 <0>         0.1245
     38 H7          0.2069   -0.2885   -4.6604 H         1 <0>         0.1222
     39 H8          2.6581   -0.0750   -4.7241 H         1 <0>         0.1247
     40 H9          3.9334    0.1208   -2.6285 H         1 <0>         0.1545
     41 H10         2.4923    0.5163    0.6004 H         1 <0>         0.4061
     42 H11         6.5305   -1.0246    2.0454 H         1 <0>         0.1158
     43 H12         6.5136   -1.3006    0.2870 H         1 <0>         0.1175
     44 H13         9.0028    3.4257   -0.5141 H         1 <0>         0.2063
     45 H14         8.0942    2.6099    3.9774 H         1 <0>         0.4107
     46 H15        10.2391    4.3673    4.5139 H         1 <0>         0.0839
     47 H16         8.7458    5.3275    4.3858 H         1 <0>         0.0835
     48 H17         6.9297    5.0346    6.0259 H         1 <0>         0.1369
     49 H18         6.3648    4.3468    8.3221 H         1 <0>         0.1587
     50 H19         9.8570    2.1250    8.6284 H         1 <0>         0.1591
     51 H20        10.5209    2.7361    6.3370 H         1 <0>         0.1375
     52 H21         3.1012    0.2458    2.0630 H         1 <0>         0.0812
     53 H22         5.4150   -1.1090    3.5216 H         1 <0>         0.0670
     54 H23         3.8315   -0.7115    4.2307 H         1 <0>         0.0738
     55 H24         3.9455   -1.9192    2.9282 H         1 <0>         0.0637
     56 H25         4.6005    2.2208    2.0700 H         1 <0>         0.0512
     57 H26         4.2140    1.7061    3.7296 H         1 <0>         0.0670
     58 H27         5.7975    1.3086    3.0205 H         1 <0>         0.0887
@<TRIPOS>BOND
     1    1    2 1
     2    1   32 1
     3    1   33 1
     4    1   34 1
     5    2    3 1
     6    2   35 1
     7    2   36 1
     8    3    8 ar
     9    3    4 ar
    10    4    5 ar
    11    4   37 1
    12    5    6 ar
    13    5   38 1
    14    6    7 ar
    15    6   39 1
    16    7    8 ar
    17    7   40 1
    18    8    9 1
    19    9   10 am
    20    9   41 1
    21   10   11 2
    22   10   12 am
    23   12   13 1
    24   12   29 1
    25   13   14 1
    26   13   42 1
    27   13   43 1
    28   14   18 1
    29   14   15 2
    30   15   16 1
    31   16   17 2
    32   16   19 1
    33   17   18 1
    34   17   44 1
    35   19   20 2
    36   19   21 am
    37   21   22 1
    38   21   45 1
    39   22   23 1
    40   22   46 1
    41   22   47 1
    42   23   28 ar
    43   23   24 ar
    44   24   25 ar
    45   24   48 1
    46   25   26 ar
    47   25   49 1
    48   26   27 ar
    49   27   28 ar
    50   27   50 1
    51   28   51 1
    52   29   30 1
    53   29   31 1
    54   29   52 1
    55   30   53 1
    56   30   54 1
    57   30   55 1
    58   31   56 1
    59   31   57 1
    60   31   58 1
@<TRIPOS>MOLECULE
ZINC26950424
   59    61     0     0     0
SMALL
USER_CHARGES

@<TRIPOS>ATOM
      1 C1          2.9813    0.9111   -1.7663 C.3       1 <0>        -0.1586
      2 C2          2.7191   -0.5936   -1.6763 C.3       1 <0>         0.1886
      3 H1          3.2330   -1.0006   -0.8054 H         1 <0>         0.0979
      4 C3          1.2379   -0.8384   -1.5452 C.ar      1 <0>        -0.0913
      5 C4          0.4313   -0.8047   -2.6675 C.ar      1 <0>        -0.1110
      6 C5         -0.9280   -1.0286   -2.5526 C.ar      1 <0>        -0.1708
      7 C6         -1.4849   -1.2880   -1.3105 C.ar      1 <0>         0.1084
      8 C7         -0.6729   -1.3223   -0.1809 C.ar      1 <0>         0.1041
      9 C8          0.6896   -1.1018   -0.3038 C.ar      1 <0>        -0.1590
     10 O1         -1.2147   -1.5765    1.0403 O.3       1 <0>        -0.3044
     11 C9         -0.3210   -1.5963    2.1551 C.3       1 <0>         0.0244
     12 O2         -2.8219   -1.5080   -1.1956 O.3       1 <0>        -0.2982
     13 C10        -3.6105   -1.3424   -2.3758 C.3       1 <0>         0.0754
     14 C11        -3.5965   -2.6409   -3.1849 C.3       1 <0>        -0.1812
     15 C12        -5.0495   -1.0011   -1.9840 C.3       1 <0>        -0.1495
     16 N1          3.2171   -1.2494   -2.8879 N.am      1 <0>        -0.7208
     17 C13         4.5125   -1.6113   -2.9744 C.2       1 <0>         0.5615
     18 O3          5.2676   -1.3935   -2.0471 O.2       1 <0>        -0.5267
     19 C14         5.0151   -2.2732   -4.1973 C.ar      1 <0>        -0.1174
     20 C15         4.1511   -2.5193   -5.2661 C.ar      1 <0>        -0.0991
     21 C16         4.6226   -3.1372   -6.4062 C.ar      1 <0>        -0.1055
     22 C17         5.9496   -3.5145   -6.4952 C.ar      1 <0>        -0.1154
     23 C18         6.8176   -3.2745   -5.4368 C.ar      1 <0>         0.1360
     24 C19         6.3550   -2.6486   -4.2893 C.ar      1 <0>        -0.0593
     25 N2          8.1593   -3.6586   -5.5317 N.am      1 <0>        -0.6694
     26 C20         8.8083   -4.1145   -4.4420 C.2       1 <0>         0.5647
     27 O4          8.2552   -4.1114   -3.3595 O.2       1 <0>        -0.5042
     28 C21        10.1926   -4.6183   -4.5633 C.ar      1 <0>        -0.1919
     29 C22        10.8759   -5.1002   -3.4399 C.ar      1 <0>        -0.0118
     30 C23        12.1696   -5.5610   -3.6071 C.ar      1 <0>        -0.1763
     31 C24        12.7415   -5.5313   -4.8666 C.ar      1 <0>         0.1275
     32 N3         12.0736   -5.0716   -5.9073 N.ar      1 <0>        -0.4857
     33 C25        10.8385   -4.6273   -5.8001 C.ar      1 <0>         0.1368
     34 H2          4.0527    1.0881   -1.8611 H         1 <0>         0.0665
     35 H3          2.4674    1.3180   -2.6371 H         1 <0>         0.0604
     36 H4          2.6108    1.3990   -0.8648 H         1 <0>         0.0692
     37 H5          0.8640   -0.6027   -3.6362 H         1 <0>         0.1244
     38 H6         -1.5561   -1.0010   -3.4308 H         1 <0>         0.1391
     39 H7          1.3225   -1.1316    0.5708 H         1 <0>         0.1380
     40 H8          0.1666   -0.6257    2.2472 H         1 <0>         0.0561
     41 H9         -0.8807   -1.8096    3.0658 H         1 <0>         0.1022
     42 H10         0.4330   -2.3686    2.0027 H         1 <0>         0.0559
     43 H11        -3.1966   -0.5341   -2.9788 H         1 <0>         0.0729
     44 H12        -2.5713   -2.8840   -3.4640 H         1 <0>         0.0621
     45 H13        -4.0103   -3.4491   -2.5819 H         1 <0>         0.0686
     46 H14        -4.1980   -2.5145   -4.0851 H         1 <0>         0.0728
     47 H15        -5.0595   -0.0760   -1.4076 H         1 <0>         0.0653
     48 H16        -5.6510   -0.8747   -2.8842 H         1 <0>         0.0774
     49 H17        -5.4633   -1.8093   -1.3810 H         1 <0>         0.0680
     50 H18         2.6145   -1.4233   -3.6279 H         1 <0>         0.3992
     51 H19         3.1137   -2.2264   -5.2003 H         1 <0>         0.1269
     52 H20         3.9526   -3.3271   -7.2317 H         1 <0>         0.1362
     53 H21         6.3129   -3.9978   -7.3901 H         1 <0>         0.1334
     54 H22         7.0292   -2.4564   -3.4677 H         1 <0>         0.1533
     55 H23         8.6225   -3.5968   -6.3816 H         1 <0>         0.4126
     56 H24        10.4052   -5.1115   -2.4679 H         1 <0>         0.1506
     57 H25        12.7274   -5.9395   -2.7633 H         1 <0>         0.1473
     58 H26        13.7514   -5.8901   -4.9999 H         1 <0>         0.1654
     59 H27        10.3228   -4.2626   -6.6761 H         1 <0>         0.1580
@<TRIPOS>BOND
     1    1    2 1
     2    1   34 1
     3    1   35 1
     4    1   36 1
     5    2    3 1
     6    2    4 1
     7    2   16 1
     8    4    9 ar
     9    4    5 ar
    10    5    6 ar
    11    5   37 1
    12    6    7 ar
    13    6   38 1
    14    7    8 ar
    15    7   12 1
    16    8    9 ar
    17    8   10 1
    18    9   39 1
    19   10   11 1
    20   11   40 1
    21   11   41 1
    22   11   42 1
    23   12   13 1
    24   13   14 1
    25   13   15 1
    26   13   43 1
    27   14   44 1
    28   14   45 1
    29   14   46 1
    30   15   47 1
    31   15   48 1
    32   15   49 1
    33   16   17 am
    34   16   50 1
    35   17   18 2
    36   17   19 1
    37   19   24 ar
    38   19   20 ar
    39   20   21 ar
    40   20   51 1
    41   21   22 ar
    42   21   52 1
    43   22   23 ar
    44   22   53 1
    45   23   24 ar
    46   23   25 1
    47   24   54 1
    48   25   26 am
    49   25   55 1
    50   26   27 2
    51   26   28 1
    52   28   33 ar
    53   28   29 ar
    54   29   30 ar
    55   29   56 1
    56   30   31 ar
    57   30   57 1
    58   31   32 ar
    59   31   58 1
    60   32   33 ar
    61   33   59 1
@<TRIPOS>MOLECULE
ZINC03535582
   51    53     0     0     0
SMALL
USER_CHARGES

@<TRIPOS>ATOM
      1 C1          1.8712    0.8860    3.4929 C.3       1 <0>        -0.1804
      2 C2          0.7828    0.2439    2.6304 C.3       1 <0>         0.1182
      3 C3          0.2616   -1.0173    3.3222 C.3       1 <0>        -0.1840
      4 N1         -0.3191    1.1921    2.4489 N.am      1 <0>        -0.5378
      5 C4         -1.0154    1.6769    3.5616 C.ar      1 <0>         0.1531
      6 C5         -0.6711    1.2509    4.8377 C.ar      1 <0>        -0.1713
      7 C6         -1.3565    1.7357    5.9344 C.ar      1 <0>        -0.0999
      8 C7         -2.3918    2.6359    5.7619 C.ar      1 <0>        -0.1435
      9 C8         -2.7412    3.0574    4.4921 C.ar      1 <0>        -0.0973
     10 C9         -2.0559    2.5808    3.3917 C.ar      1 <0>        -0.1683
     11 C10        -0.6622    1.5975    1.2102 C.2       1 <0>         0.5367
     12 O1         -1.6460    2.2883    1.0489 O.2       1 <0>        -0.4976
     13 C11         0.1765    1.1924    0.0255 C.3       1 <0>        -0.1616
     14 S1         -0.6156    1.7642   -1.4983 S.3       1 <0>         0.1222
     15 C12         0.5433    1.1723   -2.6863 C.2       1 <0>         0.1742
     16 N2          1.6515    0.5136   -2.4329 N.2       1 <0>        -0.2881
     17 N3          2.2586    0.2323   -3.5301 N.2       1 <0>        -0.2516
     18 C13         1.5796    0.7014   -4.5511 C.2       1 <0>         0.1986
     19 N4          0.4600    1.3180   -4.0422 N.pl3     1 <0>        -0.3031
     20 N5         -0.5288    1.9451   -4.7458 N.3       1 <0>        -0.5849
     21 C14         1.9487    0.5889   -5.9780 C.ar      1 <0>        -0.0447
     22 C15         2.8763   -0.3708   -6.3874 C.ar      1 <0>        -0.0306
     23 C16         3.2142   -0.4757   -7.7197 C.ar      1 <0>        -0.1832
     24 C17         2.6413    0.3786   -8.6526 C.ar      1 <0>         0.1246
     25 C18         1.7222    1.3380   -8.2487 C.ar      1 <0>        -0.1241
     26 C19         1.3750    1.4458   -6.9190 C.ar      1 <0>        -0.0843
     27 O2          2.9812    0.2757   -9.9641 O.3       1 <0>        -0.3171
     28 C20         3.9325   -0.7328  -10.3105 C.3       1 <0>         0.4113
     29 F1          5.1312   -0.4971   -9.6288 F         1 <0>        -0.1951
     30 F2          3.4316   -1.9890   -9.9524 F         1 <0>        -0.1954
     31 H1          1.4807    1.0691    4.4939 H         1 <0>         0.0774
     32 H2          2.7286    0.2158    3.5543 H         1 <0>         0.0775
     33 H3          2.1798    1.8305    3.0449 H         1 <0>         0.0645
     34 H4          1.1985   -0.0204    1.6580 H         1 <0>         0.1050
     35 H5         -0.4417   -1.5281    2.6646 H         1 <0>         0.0640
     36 H6          1.0972   -1.6805    3.5461 H         1 <0>         0.0783
     37 H7         -0.2419   -0.7417    4.2488 H         1 <0>         0.0806
     38 H8          0.1345    0.5443    4.9727 H         1 <0>         0.1445
     39 H9         -1.0865    1.4078    6.9274 H         1 <0>         0.1247
     40 H10        -2.9290    3.0104    6.6208 H         1 <0>         0.1206
     41 H11        -3.5505    3.7604    4.3606 H         1 <0>         0.1245
     42 H12        -2.3293    2.9103    2.4002 H         1 <0>         0.1808
     43 H13         0.2703    0.1068    0.0009 H         1 <0>         0.1301
     44 H14         1.1663    1.6408    0.1107 H         1 <0>         0.1326
     45 H15        -0.2788    2.9017   -4.9466 H         1 <0>         0.3699
     46 H16        -0.7441    1.4420   -5.5935 H         1 <0>         0.3800
     47 H17         3.3254   -1.0329   -5.6618 H         1 <0>         0.1468
     48 H18         3.9286   -1.2206   -8.0378 H         1 <0>         0.1449
     49 H19         1.2786    2.0003   -8.9773 H         1 <0>         0.1460
     50 H20         0.6604    2.1925   -6.6056 H         1 <0>         0.1254
     51 H21         4.1144   -0.7070  -11.3849 H         1 <0>         0.1870
@<TRIPOS>BOND
     1    1    2 1
     2    1   31 1
     3    1   32 1
     4    1   33 1
     5    2    3 1
     6    2    4 1
     7    2   34 1
     8    3   35 1
     9    3   36 1
    10    3   37 1
    11    4    5 1
    12    4   11 am
    13    5   10 ar
    14    5    6 ar
    15    6    7 ar
    16    6   38 1
    17    7    8 ar
    18    7   39 1
    19    8    9 ar
    20    8   40 1
    21    9   10 ar
    22    9   41 1
    23   10   42 1
    24   11   12 2
    25   11   13 1
    26   13   14 1
    27   13   43 1
    28   13   44 1
    29   14   15 1
    30   15   19 1
    31   15   16 2
    32   16   17 1
    33   17   18 2
    34   18   19 1
    35   18   21 1
    36   19   20 1
    37   20   45 1
    38   20   46 1
    39   21   26 ar
    40   21   22 ar
    41   22   23 ar
    42   22   47 1
    43   23   24 ar
    44   23   48 1
    45   24   25 ar
    46   24   27 1
    47   25   26 ar
    48   25   49 1
    49   26   50 1
    50   27   28 1
    51   28   29 1
    52   28   30 1
    53   28   51 1
@<TRIPOS>MOLECULE
ZINC11394232
   50    52     0     0     0
SMALL
USER_CHARGES
methyl 2-[2-[(5-allylamino-1,3,4-thiadiazol-2-yl)sulfanyl]acetyl]amino-6-methyl-4,5,6,7-tetrahydrobenzothiophene-3-carboxylate
@<TRIPOS>ATOM
      1 C1         -1.5202   -5.4251   -4.6977 C.3       1 <0>        -0.1476
      2 C2         -1.7554   -4.4848   -3.5139 C.3       1 <0>        -0.0877
      3 H1         -2.8033   -4.1860   -3.4872 H         1 <0>         0.0770
      4 C3         -0.8709   -3.2429   -3.6574 C.3       1 <0>        -0.1134
      5 C4         -1.2765   -2.1929   -2.6216 C.3       1 <0>        -0.0631
      6 C5         -1.2892   -2.8428   -1.2435 C.2       1 <0>        -0.0630
      7 C6         -1.3403   -4.1854   -1.1081 C.2       1 <0>        -0.2024
      8 S1         -1.3339   -4.4651    0.6401 S.3       1 <0>         0.2497
      9 C7         -1.2589   -2.8225    1.1862 C.2       1 <0>         0.0751
     10 C8         -1.2481   -2.0960    0.0027 C.2       1 <0>        -0.2012
     11 C9         -1.1913   -0.6327    0.0100 C.2       1 <0>         0.5288
     12 O1         -2.2203    0.0158    0.0233 O.2       1 <0>        -0.4913
     13 O2          0.0021   -0.0041    0.0020 O.3       1 <0>        -0.3514
     14 C10        -0.0176    1.4478    0.0100 C.3       1 <0>         0.0306
     15 N1         -1.2210   -2.3485    2.4882 N.am      1 <0>        -0.6133
     16 C11        -1.2395   -3.2140    3.5211 C.2       1 <0>         0.5351
     17 O3         -1.2893   -4.4075    3.3115 O.2       1 <0>        -0.4791
     18 C12        -1.1983   -2.6988    4.9367 C.3       1 <0>        -0.1586
     19 S2         -1.2358   -4.0978    6.0908 S.3       1 <0>         0.1351
     20 C13        -1.1826   -3.3403    7.6808 C.2       1 <0>         0.0193
     21 N2         -1.1220   -2.0607    7.9956 N.2       1 <0>        -0.2742
     22 N3         -1.0934   -1.6819    9.3178 N.2       1 <0>        -0.3731
     23 C14        -1.1152   -2.5999   10.2642 C.2       1 <0>         0.3529
     24 S3         -1.1882   -4.1001    9.2974 S.3       1 <0>         0.0058
     25 N4         -1.0885   -2.4422   11.6449 N.pl3     1 <0>        -0.6660
     26 C15        -1.0274   -1.0996   12.2278 C.3       1 <0>         0.1590
     27 C16        -1.0092   -1.2049   13.7310 C.2       1 <0>        -0.1869
     28 C17        -0.0467   -0.6384   14.4157 C.2       1 <0>        -0.1503
     29 C18        -1.3913   -5.2027   -2.2061 C.3       1 <0>        -0.0314
     30 H2         -2.1431   -6.3126   -4.5860 H         1 <0>         0.0583
     31 H3         -1.7792   -4.9138   -5.6248 H         1 <0>         0.0587
     32 H4         -0.4709   -5.7188   -4.7256 H         1 <0>         0.0576
     33 H5          0.1716   -3.5209   -3.5022 H         1 <0>         0.0690
     34 H6         -0.9897   -2.8274   -4.6581 H         1 <0>         0.0722
     35 H7         -2.2712   -1.8136   -2.8559 H         1 <0>         0.0803
     36 H8         -0.5586   -1.3728   -2.6323 H         1 <0>         0.0743
     37 H9          1.0050    1.8251    0.0023 H         1 <0>         0.1050
     38 H10        -0.5448    1.8089   -0.8731 H         1 <0>         0.0658
     39 H11        -0.5278    1.7993    0.9068 H         1 <0>         0.0643
     40 H12        -1.1812   -1.3940    2.6559 H         1 <0>         0.4230
     41 H13        -0.2829   -2.1269    5.0887 H         1 <0>         0.1373
     42 H14        -2.0613   -2.0573    5.1151 H         1 <0>         0.1371
     43 H15        -1.1104   -3.2212   12.2225 H         1 <0>         0.4228
     44 H16        -0.1220   -0.5968   11.8878 H         1 <0>         0.0776
     45 H17        -1.9004   -0.5272   11.9143 H         1 <0>         0.0821
     46 H18        -1.7896   -1.7475   14.2438 H         1 <0>         0.1196
     47 H19         0.7337   -0.0958   13.9029 H         1 <0>         0.1028
     48 H20        -0.0336   -0.7139   15.4930 H         1 <0>         0.1082
     49 H21        -0.4175   -5.6814   -2.3088 H         1 <0>         0.0861
     50 H22        -2.1476   -5.9533   -1.9764 H         1 <0>         0.0834
@<TRIPOS>BOND
     1    1    2 1
     2    1   30 1
     3    1   31 1
     4    1   32 1
     5    2    3 1
     6    2   29 1
     7    2    4 1
     8    4    5 1
     9    4   33 1
    10    4   34 1
    11    5    6 1
    12    5   35 1
    13    5   36 1
    14    6   10 1
    15    6    7 2
    16    7    8 1
    17    7   29 1
    18    8    9 1
    19    9   10 2
    20    9   15 1
    21   10   11 1
    22   11   12 2
    23   11   13 1
    24   13   14 1
    25   14   37 1
    26   14   38 1
    27   14   39 1
    28   15   16 am
    29   15   40 1
    30   16   17 2
    31   16   18 1
    32   18   19 1
    33   18   41 1
    34   18   42 1
    35   19   20 1
    36   20   24 1
    37   20   21 2
    38   21   22 1
    39   22   23 2
    40   23   24 1
    41   23   25 1
    42   25   26 1
    43   25   43 1
    44   26   27 1
    45   26   44 1
    46   26   45 1
    47   27   28 2
    48   27   46 1
    49   28   47 1
    50   28   48 1
    51   29   49 1
    52   29   50 1
@<TRIPOS>MOLECULE
ZINC22281513
   56    58     0     0     0
SMALL
USER_CHARGES
N-[2-[(4-ethylphenyl)methyl]pyrazol-3-yl]-4-(isopropylsulfamoyl)benzamide
@<TRIPOS>ATOM
      1 C1         -4.4646   11.6597    2.8185 C.3       1 <0>        -0.1484
      2 C2         -5.3885   10.4992    3.1934 C.3       1 <0>        -0.0907
      3 C3         -4.6749    9.5772    4.1482 C.ar      1 <0>        -0.0669
      4 C4         -4.7674    9.7875    5.5113 C.ar      1 <0>        -0.1173
      5 C5         -4.1135    8.9412    6.3871 C.ar      1 <0>        -0.0828
      6 C6         -3.3675    7.8843    5.8999 C.ar      1 <0>        -0.1245
      7 C7         -3.2707    7.6772    4.5366 C.ar      1 <0>        -0.1002
      8 C8         -3.9281    8.5209    3.6609 C.ar      1 <0>        -0.1181
      9 C9         -2.6547    6.9617    6.8547 C.3       1 <0>         0.1712
     10 N1         -3.5405    5.8514    7.2138 N.pl3     1 <0>        -0.3824
     11 C10        -3.6400    4.6642    6.5619 C.2       1 <0>         0.3085
     12 C11        -4.5762    3.9187    7.2109 C.2       1 <0>        -0.2766
     13 C12        -5.0497    4.6699    8.2898 C.2       1 <0>         0.0609
     14 N2         -4.4353    5.8250    8.2912 N.2       1 <0>        -0.2827
     15 N3         -2.9199    4.2815    5.4316 N.am      1 <0>        -0.6550
     16 C13        -3.1202    3.0661    4.8845 C.2       1 <0>         0.5641
     17 O1         -3.9290    2.3037    5.3770 O.2       1 <0>        -0.4907
     18 C14        -2.3566    2.6602    3.6859 C.ar      1 <0>        -0.0751
     19 C15        -2.5616    1.4021    3.1168 C.ar      1 <0>        -0.0752
     20 C16        -1.8459    1.0297    1.9979 C.ar      1 <0>        -0.0208
     21 C17        -0.9267    1.9002    1.4394 C.ar      1 <0>        -0.6581
     22 C18        -0.7146    3.1464    2.0018 C.ar      1 <0>        -0.0253
     23 C19        -1.4274    3.5334    3.1177 C.ar      1 <0>        -0.1094
     24 S1         -0.0172    1.4168    0.0098 S.o2      1 <0>         2.6896
     25 O2          0.0021   -0.0041    0.0020 O.2       1 <0>        -0.9530
     26 O3          1.1718    2.1948    0.0027 O.2       1 <0>        -0.9503
     27 N4         -0.8975    1.8855   -1.3122 N.pl3     1 <0>        -1.1164
     28 C20        -1.1248    3.3089   -1.5738 C.3       1 <0>         0.1420
     29 C21        -1.1305    3.5554   -3.0838 C.3       1 <0>        -0.1551
     30 C22        -2.4730    3.7269   -0.9836 C.3       1 <0>        -0.1819
     31 H1         -4.9855   12.3327    2.1216 H         1 <0>         0.0610
     32 H2         -3.5570   11.2653    2.3381 H         1 <0>         0.0564
     33 H3         -4.1870   12.2154    3.7263 H         1 <0>         0.0570
     34 H4         -6.2961   10.8936    3.6738 H         1 <0>         0.0745
     35 H5         -5.6661    9.9435    2.2856 H         1 <0>         0.0737
     36 H6         -5.3508   10.6127    5.8920 H         1 <0>         0.1255
     37 H7         -4.1858    9.1054    7.4521 H         1 <0>         0.1270
     38 H8         -2.6842    6.8541    4.1557 H         1 <0>         0.1119
     39 H9         -3.8561    8.3564    2.5959 H         1 <0>         0.1242
     40 H10        -1.7476    6.5664    6.3742 H         1 <0>         0.0932
     41 H11        -2.3765    7.5172    7.7625 H         1 <0>         0.1117
     42 H12        -4.8945    2.9225    6.9414 H         1 <0>         0.1719
     43 H13        -5.7994    4.3526    8.9995 H         1 <0>         0.1872
     44 H14        -2.1881    4.9714    4.9860 H         1 <0>         0.4282
     45 H15        -3.2793    0.7220    3.5514 H         1 <0>         0.1508
     46 H16        -2.0035    0.0567    1.5566 H         1 <0>         0.1515
     47 H17         0.0075    3.8195    1.5636 H         1 <0>         0.1490
     48 H18        -1.2640    4.5081    3.5532 H         1 <0>         0.1322
     49 H19        -1.4425    1.1259   -1.8918 H         1 <0>         0.4431
     50 H20        -0.3038    3.8619   -1.0941 H         1 <0>         0.0919
     51 H21        -1.3012    4.6242   -3.2802 H         1 <0>         0.0709
     52 H22        -1.9333    2.9644   -3.5488 H         1 <0>         0.0640
     53 H23        -0.1611    3.2549   -3.5080 H         1 <0>         0.0666
     54 H24        -2.6437    4.7957   -1.1800 H         1 <0>         0.0721
     55 H25        -2.4688    3.5497    0.1020 H         1 <0>         0.0583
     56 H26        -3.2758    3.1358   -1.4485 H         1 <0>         0.0667
@<TRIPOS>BOND
     1    1    2 1
     2    1   31 1
     3    1   32 1
     4    1   33 1
     5    2    3 1
     6    2   34 1
     7    2   35 1
     8    3    8 ar
     9    3    4 ar
    10    4    5 ar
    11    4   36 1
    12    5    6 ar
    13    5   37 1
    14    6    7 ar
    15    6    9 1
    16    7    8 ar
    17    7   38 1
    18    8   39 1
    19    9   10 1
    20    9   40 1
    21    9   41 1
    22   10   14 1
    23   10   11 1
    24   11   12 2
    25   11   15 1
    26   12   13 1
    27   12   42 1
    28   13   14 2
    29   13   43 1
    30   15   16 am
    31   15   44 1
    32   16   17 2
    33   16   18 1
    34   18   23 ar
    35   18   19 ar
    36   19   20 ar
    37   19   45 1
    38   20   21 ar
    39   20   46 1
    40   21   22 ar
    41   21   24 1
    42   22   23 ar
    43   22   47 1
    44   23   48 1
    45   24   25 2
    46   24   26 2
    47   24   27 1
    48   27   28 1
    49   27   49 1
    50   28   29 1
    51   28   30 1
    52   28   50 1
    53   29   51 1
    54   29   52 1
    55   29   53 1
    56   30   54 1
    57   30   55 1
    58   30   56 1
@<TRIPOS>MOLECULE
ZINC20467820
   54    56     0     0     0
SMALL
USER_CHARGES

@<TRIPOS>ATOM
      1 C1          0.0084    1.5031    0.0124 C.3       1 <0>        -0.1188
      2 C2          0.0220   -0.0038    0.0028 C.ar      1 <0>        -0.0900
      3 C3          0.7775   -0.6931    0.9336 C.ar      1 <0>        -0.0879
      4 C4          0.7918   -2.0739    0.9279 C.ar      1 <0>        -0.1114
      5 C5          0.0463   -2.7714   -0.0140 C.ar      1 <0>         0.1561
      6 C6         -0.7115   -2.0776   -0.9476 C.ar      1 <0>        -0.1335
      7 C7         -0.7261   -0.6952   -0.9338 C.ar      1 <0>        -0.0183
      8 Cl1        -1.6784    0.1739   -2.0963 Cl        1 <0>        -0.0628
      9 N1          0.0595   -4.1705   -0.0221 N.am      1 <0>        -0.6679
     10 C8          0.1763   -4.8501    1.1359 C.2       1 <0>         0.5372
     11 O1          0.1737   -4.2536    2.1920 O.2       1 <0>        -0.5008
     12 C9          0.3102   -6.3510    1.1186 C.3       1 <0>        -0.1458
     13 S1          0.4473   -6.9655    2.8199 S.3       1 <0>         0.0570
     14 C10         0.5949   -8.7112    2.6319 C.ar      1 <0>         0.3374
     15 N2          0.7150   -9.4697    3.7112 N.ar      1 <0>        -0.5726
     16 C11         0.8281  -10.7881    3.6091 C.ar      1 <0>         0.1957
     17 C12         0.8168  -11.3694    2.3615 C.ar      1 <0>        -0.3686
     18 C13         0.6901  -10.5450    1.2412 C.ar      1 <0>         0.4680
     19 N3          0.5776   -9.2345    1.4142 N.ar      1 <0>        -0.6011
     20 O2          0.6776  -11.0769   -0.0051 O.3       1 <0>        -0.6704
     21 C14         0.9328  -12.8564    2.1742 C.3       1 <0>         0.0916
     22 N4          1.4839  -13.4843    3.3795 N.4       1 <0>        -0.3843
     23 C15         0.6772  -13.0831    4.5421 C.3       1 <0>         0.0045
     24 C16         0.9697  -11.6154    4.8594 C.3       1 <0>        -0.0893
     25 C17         1.4437  -14.9456    3.2344 C.3       1 <0>        -0.0005
     26 C18         2.3735  -15.3708    2.0963 C.3       1 <0>        -0.1536
     27 C19         2.3317  -16.8928    1.9451 C.3       1 <0>         0.0664
     28 O3          3.2001  -17.2900    0.8821 O.3       1 <0>        -0.3881
     29 C20         3.2350  -18.7006    0.6563 C.3       1 <0>         0.0309
     30 H1         -0.7937    1.8551    0.6611 H         1 <0>         0.0755
     31 H2          0.9644    1.8727    0.3833 H         1 <0>         0.0714
     32 H3         -0.1553    1.8714   -1.0004 H         1 <0>         0.0731
     33 H4          1.3574   -0.1507    1.6658 H         1 <0>         0.1370
     34 H5          1.3825   -2.6112    1.6551 H         1 <0>         0.1425
     35 H6         -1.2922   -2.6171   -1.6812 H         1 <0>         0.1377
     36 H7         -0.0154   -4.6514   -0.8612 H         1 <0>         0.4170
     37 H8         -0.5680   -6.7887    0.6439 H         1 <0>         0.1268
     38 H9          1.2028   -6.6298    0.5586 H         1 <0>         0.1278
     39 H10        -0.0544  -13.2716    1.9716 H         1 <0>         0.1170
     40 H11         1.5895  -13.0624    1.3290 H         1 <0>         0.1300
     41 H12        -0.3813  -13.2033    4.3116 H         1 <0>         0.1289
     42 H13         0.9394  -13.7020    5.4002 H         1 <0>         0.1321
     43 H14         1.9859  -11.5228    5.2425 H         1 <0>         0.1039
     44 H15         0.2654  -11.2596    5.6115 H         1 <0>         0.1258
     45 H16         1.7702  -15.4121    4.1639 H         1 <0>         0.1288
     46 H17         0.4250  -15.2603    3.0082 H         1 <0>         0.1291
     47 H18         2.0471  -14.9043    1.1668 H         1 <0>         0.1012
     48 H19         3.3923  -15.0561    2.3225 H         1 <0>         0.0941
     49 H20         2.6581  -17.3593    2.8746 H         1 <0>         0.0570
     50 H21         1.3129  -17.2075    1.7189 H         1 <0>         0.0586
     51 H22         2.2350  -19.0529    0.4033 H         1 <0>         0.0460
     52 H23         3.9163  -18.9203   -0.1657 H         1 <0>         0.0926
     53 H24         3.5802  -19.2046    1.5590 H         1 <0>         0.0450
     54 H25         2.4380  -13.1833    3.5108 H         1 <0>         0.4221
@<TRIPOS>BOND
     1    1    2 1
     2    1   30 1
     3    1   31 1
     4    1   32 1
     5    2    7 ar
     6    2    3 ar
     7    3    4 ar
     8    3   33 1
     9    4    5 ar
    10    4   34 1
    11    5    6 ar
    12    5    9 1
    13    6    7 ar
    14    6   35 1
    15    7    8 1
    16    9   10 am
    17    9   36 1
    18   10   11 2
    19   10   12 1
    20   12   37 1
    21   12   38 1
    22   12   13 1
    23   13   14 1
    24   14   15 ar
    25   14   19 ar
    26   15   16 ar
    27   16   17 ar
    28   16   24 1
    29   17   18 ar
    30   17   21 1
    31   18   19 ar
    32   18   20 1
    33   21   22 1
    34   21   39 1
    35   21   40 1
    36   22   23 1
    37   22   25 1
    38   22   54 1
    39   23   24 1
    40   23   41 1
    41   23   42 1
    42   24   43 1
    43   24   44 1
    44   25   26 1
    45   25   45 1
    46   25   46 1
    47   26   27 1
    48   26   47 1
    49   26   48 1
    50   27   28 1
    51   27   49 1
    52   27   50 1
    53   28   29 1
    54   29   51 1
    55   29   52 1
    56   29   53 1
@<TRIPOS>MOLECULE
ZINC04619537
   51    53     0     0     0
SMALL
USER_CHARGES

@<TRIPOS>ATOM
      1 C1          0.1188    1.0704    0.2309 C.3       1 <0>        -0.1137
      2 C2         -0.5373    1.2922   -1.1076 C.2       1 <0>         0.1942
      3 C3         -1.8915    1.1714   -1.2309 C.2       1 <0>        -0.2554
      4 C4         -2.4812    1.3829   -2.4894 C.2       1 <0>         0.5362
      5 N1         -1.6861    1.6988   -3.5340 N.am      1 <0>        -0.6134
      6 C5         -0.3408    1.8056   -3.3513 C.2       1 <0>         0.3544
      7 N2          0.2038    1.6108   -2.1657 N.2       1 <0>        -0.5429
      8 S1          0.6892    2.2177   -4.7203 S.3       1 <0>         0.0818
      9 C6          2.3616    2.2466   -4.0182 C.3       1 <0>        -0.1437
     10 C7          3.3540    2.5914   -5.0986 C.2       1 <0>         0.5345
     11 O1          2.9709    2.7973   -6.2307 O.2       1 <0>        -0.4945
     12 N3          4.6674    2.6709   -4.8067 N.am      1 <0>        -0.6647
     13 C8          5.5734    3.0907   -5.7795 C.ar      1 <0>         0.1820
     14 C9          5.1919    4.0447   -6.7179 C.ar      1 <0>        -0.1332
     15 C10         6.0839    4.4616   -7.6798 C.ar      1 <0>        -0.0303
     16 C11         7.3747    3.9256   -7.7130 C.ar      1 <0>        -0.1419
     17 C12         7.7547    2.9676   -6.7683 C.ar      1 <0>        -0.0382
     18 C13         6.8590    2.5590   -5.8063 C.ar      1 <0>        -0.1561
     19 C14         8.3329    4.3694   -8.7422 C.2       1 <0>         0.5079
     20 O2          8.0010    5.2018   -9.5628 O.2       1 <0>        -0.5026
     21 O3          9.5767    3.8517   -8.7728 O.3       1 <0>        -0.3506
     22 C15        10.4523    4.3273   -9.7970 C.3       1 <0>         0.0342
     23 O4         -3.6884    1.2826   -2.6351 O.2       1 <0>        -0.5250
     24 C16        -2.7404    0.8164   -0.0374 C.3       1 <0>        -0.0141
     25 C17        -2.9630   -0.6737   -0.0045 C.ar      1 <0>        -0.0887
     26 C18        -3.9909   -1.2348   -0.7391 C.ar      1 <0>        -0.0775
     27 C19        -4.1957   -2.6013   -0.7101 C.ar      1 <0>        -0.1531
     28 C20        -3.3709   -3.4083    0.0550 C.ar      1 <0>         0.0946
     29 C21        -2.3417   -2.8451    0.7904 C.ar      1 <0>        -0.1546
     30 C22        -2.1355   -1.4790    0.7557 C.ar      1 <0>        -0.0893
     31 F1         -3.5704   -4.7441    0.0845 F         1 <0>        -0.1405
     32 H1          0.3005    0.0053    0.3744 H         1 <0>         0.0892
     33 H2          1.0661    1.6084    0.2647 H         1 <0>         0.0830
     34 H3         -0.5358    1.4371    1.0216 H         1 <0>         0.0880
     35 H4          2.4107    2.9951   -3.2274 H         1 <0>         0.1388
     36 H5          2.5995    1.2661   -3.6058 H         1 <0>         0.1374
     37 H6          4.9822    2.4360   -3.9198 H         1 <0>         0.4195
     38 H7          4.1946    4.4584   -6.6916 H         1 <0>         0.1455
     39 H8          5.7868    5.2016   -8.4082 H         1 <0>         0.1438
     40 H9          8.7510    2.5512   -6.7912 H         1 <0>         0.1454
     41 H10         7.1531    1.8217   -5.0739 H         1 <0>         0.1385
     42 H11        10.0206    4.1100  -10.7740 H         1 <0>         0.0624
     43 H12        10.5857    5.4038   -9.6900 H         1 <0>         0.0623
     44 H13        11.4187    3.8309   -9.7083 H         1 <0>         0.1047
     45 H14        -2.0717    1.8487   -4.4113 H         1 <0>         0.4224
     46 H15        -2.2326    1.1282    0.8753 H         1 <0>         0.0903
     47 H16        -3.7013    1.3258   -0.1106 H         1 <0>         0.0910
     48 H17        -4.6343   -0.6051   -1.3356 H         1 <0>         0.1398
     49 H18        -4.9990   -3.0394   -1.2838 H         1 <0>         0.1349
     50 H19        -1.6979   -3.4736    1.3879 H         1 <0>         0.1353
     51 H20        -1.3301   -1.0400    1.3257 H         1 <0>         0.1320
@<TRIPOS>BOND
     1    1   32 1
     2    1   33 1
     3    1   34 1
     4    1    2 1
     5    2    3 2
     6    2    7 1
     7    3    4 1
     8    3   24 1
     9    4    5 am
    10    4   23 2
    11    5    6 1
    12    5   45 1
    13    6    8 1
    14    6    7 2
    15    8    9 1
    16    9   10 1
    17    9   35 1
    18    9   36 1
    19   10   11 2
    20   10   12 am
    21   12   13 1
    22   12   37 1
    23   13   18 ar
    24   13   14 ar
    25   14   15 ar
    26   14   38 1
    27   15   16 ar
    28   15   39 1
    29   16   17 ar
    30   16   19 1
    31   17   18 ar
    32   17   40 1
    33   18   41 1
    34   19   20 2
    35   19   21 1
    36   21   22 1
    37   22   42 1
    38   22   43 1
    39   22   44 1
    40   24   25 1
    41   24   46 1
    42   24   47 1
    43   25   30 ar
    44   25   26 ar
    45   26   27 ar
    46   26   48 1
    47   27   28 ar
    48   27   49 1
    49   28   29 ar
    50   28   31 1
    51   29   30 ar
    52   29   50 1
    53   30   51 1
@<TRIPOS>MOLECULE
ZINC39780523
   59    61     0     0     0
SMALL
USER_CHARGES

@<TRIPOS>ATOM
      1 C1         -0.0187    1.5258    0.0104 C.3       1 <0>        -0.1538
      2 C2          0.0021   -0.0041    0.0020 C.3       1 <0>         0.0611
      3 O1          0.6709   -0.4649   -1.1737 O.3       1 <0>        -0.3443
      4 C3          0.7755   -1.7935   -1.3341 C.2       1 <0>         0.4732
      5 O2          0.3143   -2.5404   -0.5039 O.2       1 <0>        -0.4874
      6 C4          1.4679   -2.3535   -2.5498 C.3       1 <0>        -0.0659
      7 H1          2.4950   -1.9891   -2.5733 H         1 <0>         0.1466
      8 C5          0.7301   -1.8674   -3.8204 C.3       1 <0>         0.2008
      9 H2          1.2172   -0.9956   -4.2571 H         1 <0>         0.1663
     10 S1          0.9595   -3.3655   -4.8674 S.3       1 <0>        -0.1729
     11 C6          1.2506   -4.5452   -3.5699 C.2       1 <0>        -0.0824
     12 C7          1.4814   -3.8586   -2.4592 C.2       1 <0>        -0.1354
     13 C8          1.7528   -4.5735   -1.1371 C.3       1 <0>        -0.0583
     14 C9          2.1698   -6.0154   -1.4230 C.3       1 <0>        -0.1191
     15 C10         1.1310   -6.6771   -2.3341 C.3       1 <0>        -0.0875
     16 H3          0.1325   -6.5185   -1.9266 H         1 <0>         0.0766
     17 C11         1.2318   -6.0406   -3.7217 C.3       1 <0>        -0.0458
     18 C12         1.4141   -8.1775   -2.4315 C.3       1 <0>        -0.1478
     19 N1         -0.6868   -1.6082   -3.5535 N.am      1 <0>        -0.7059
     20 C13        -1.2669   -0.4863   -4.0239 C.2       1 <0>         0.5470
     21 O3         -0.6159    0.3087   -4.6681 O.2       1 <0>        -0.5057
     22 C14        -2.7245   -0.2196   -3.7493 C.3       1 <0>        -0.1442
     23 S2         -3.2043    1.3566   -4.5083 S.3       1 <0>         0.0880
     24 C15        -4.9110    1.5226   -4.1034 C.2       1 <0>         0.2440
     25 N2         -5.7171    2.5466   -4.4587 N.pl3     1 <0>        -0.4615
     26 H4         -5.4712    3.3259   -4.9813 H         1 <0>         0.4457
     27 N3         -6.9818    2.2585   -3.9210 N.2       1 <0>        -0.2989
     28 C16        -6.8790    1.1185   -3.2922 C.2       1 <0>         0.2490
     29 N4         -5.6291    0.6680   -3.4055 N.2       1 <0>        -0.5368
     30 C17        -7.9964    0.4204   -2.5607 C.3       1 <0>         0.0259
     31 C18        -9.2751    1.2537   -2.6679 C.3       1 <0>        -0.1393
     32 C19        -8.2316   -0.9570   -3.1839 C.3       1 <0>        -0.1364
     33 C20        -7.6170    0.2556   -1.0877 C.3       1 <0>        -0.1361
     34 H5          1.0039    1.9031    0.0027 H         1 <0>         0.0684
     35 H6         -0.5459    1.8868   -0.8726 H         1 <0>         0.0680
     36 H7         -0.5289    1.8773    0.9072 H         1 <0>         0.0813
     37 H8          0.5293   -0.3651    0.8851 H         1 <0>         0.0698
     38 H9         -1.0205   -0.3814    0.0098 H         1 <0>         0.0673
     39 H10         2.5539   -4.0616   -0.6039 H         1 <0>         0.0698
     40 H11         0.8485   -4.5697   -0.5286 H         1 <0>         0.0971
     41 H12         3.1418   -6.0215   -1.9161 H         1 <0>         0.0657
     42 H13         2.2347   -6.5674   -0.4854 H         1 <0>         0.0715
     43 H14         0.3685   -6.3365   -4.3177 H         1 <0>         0.0843
     44 H15         2.1475   -6.3694   -4.2131 H         1 <0>         0.0875
     45 H16         1.3600   -8.6227   -1.4380 H         1 <0>         0.0594
     46 H17         0.6736   -8.6456   -3.0801 H         1 <0>         0.0575
     47 H18         2.4102   -8.3332   -2.8456 H         1 <0>         0.0572
     48 H19        -1.2075   -2.2440   -3.0383 H         1 <0>         0.4096
     49 H20        -3.3268   -1.0242   -4.1712 H         1 <0>         0.1319
     50 H21        -2.8882   -0.1693   -2.6729 H         1 <0>         0.1288
     51 H22        -9.5454    1.3711   -3.7173 H         1 <0>         0.0613
     52 H23       -10.0833    0.7488   -2.1388 H         1 <0>         0.0665
     53 H24        -9.1075    2.2350   -2.2239 H         1 <0>         0.0612
     54 H25        -7.3207   -1.5507   -3.1076 H         1 <0>         0.0651
     55 H26        -9.0398   -1.4620   -2.6549 H         1 <0>         0.0683
     56 H27        -8.5019   -0.8396   -4.2333 H         1 <0>         0.0554
     57 H28        -7.4494    1.2369   -0.6437 H         1 <0>         0.0552
     58 H29        -8.4252   -0.2493   -0.5586 H         1 <0>         0.0683
     59 H30        -6.7061   -0.3381   -1.0114 H         1 <0>         0.0648
@<TRIPOS>BOND
     1    1    2 1
     2    1   34 1
     3    1   35 1
     4    1   36 1
     5    2    3 1
     6    2   37 1
     7    2   38 1
     8    3    4 1
     9    4    5 2
    10    4    6 1
    11    6    7 1
    12    6   12 1
    13    6    8 1
    14    8    9 1
    15    8   10 1
    16    8   19 1
    17   10   11 1
    18   11   17 1
    19   11   12 2
    20   12   13 1
    21   13   14 1
    22   13   39 1
    23   13   40 1
    24   14   15 1
    25   14   41 1
    26   14   42 1
    27   15   16 1
    28   15   17 1
    29   15   18 1
    30   17   43 1
    31   17   44 1
    32   18   45 1
    33   18   46 1
    34   18   47 1
    35   19   20 am
    36   19   48 1
    37   20   21 2
    38   20   22 1
    39   22   23 1
    40   22   49 1
    41   22   50 1
    42   23   24 1
    43   24   29 2
    44   24   25 1
    45   25   26 1
    46   25   27 1
    47   27   28 2
    48   28   29 1
    49   28   30 1
    50   30   31 1
    51   30   32 1
    52   30   33 1
    53   31   51 1
    54   31   52 1
    55   31   53 1
    56   32   54 1
    57   32   55 1
    58   32   56 1
    59   33   57 1
    60   33   58 1
    61   33   59 1
@<TRIPOS>MOLECULE
ZINC12894757
   55    57     0     0     0
SMALL
USER_CHARGES
N-[2-[2-(allylamino)-2-oxo-ethyl]sulfanyl-4-phenyl-thiazol-5-yl]-2-(4-methoxyphenoxy)acetamide
@<TRIPOS>ATOM
      1 C1         -5.8520   13.4397    0.1238 C.3       1 <0>         0.0265
      2 O1         -6.6946   12.2856    0.1250 O.3       1 <0>        -0.3164
      3 C2         -6.0802   11.0725    0.1135 C.ar      1 <0>         0.0964
      4 C3         -6.8384    9.9111    0.1138 C.ar      1 <0>        -0.1094
      5 C4         -6.2143    8.6789    0.1022 C.ar      1 <0>        -0.1021
      6 C5         -4.8294    8.6030    0.0891 C.ar      1 <0>         0.0887
      7 C6         -4.0712    9.7644    0.0936 C.ar      1 <0>        -0.1691
      8 C7         -4.6954   10.9967    0.1009 C.ar      1 <0>        -0.1684
      9 O2         -4.2150    7.3900    0.0776 O.3       1 <0>        -0.2884
     10 C8         -2.7861    7.3866    0.0645 C.3       1 <0>         0.0503
     11 C9         -2.2872    5.9646    0.0530 C.2       1 <0>         0.5081
     12 O3         -3.0777    5.0444    0.0557 O.2       1 <0>        -0.4745
     13 N1         -0.9628    5.7152    0.0397 N.am      1 <0>        -0.6129
     14 C10        -0.5008    4.3986    0.0290 C.2       1 <0>         0.0594
     15 C11         0.7872    3.9225    0.0149 C.2       1 <0>         0.0593
     16 N2          0.9899    2.6045    0.0066 N.2       1 <0>        -0.4454
     17 C12        -0.0218    1.7577    0.0117 C.2       1 <0>         0.0168
     18 S1         -1.4229    2.8669    0.0231 S.3       1 <0>         0.1266
     19 S2          0.0021   -0.0041    0.0020 S.3       1 <0>         0.1422
     20 C13        -1.7759   -0.3426    0.0172 C.3       1 <0>        -0.1843
     21 C14        -2.0037   -1.8323    0.0114 C.2       1 <0>         0.5380
     22 O4         -1.0572   -2.5904   -0.0018 O.2       1 <0>        -0.5173
     23 N3         -3.2593   -2.3220    0.0207 N.am      1 <0>        -0.7197
     24 C15        -3.4807   -3.7702    0.0150 C.3       1 <0>         0.1469
     25 C16        -4.9611   -4.0521    0.0277 C.2       1 <0>        -0.1840
     26 C17        -5.4917   -4.8088   -0.9007 C.2       1 <0>        -0.1577
     27 C18         1.9341    4.8591    0.0085 C.ar      1 <0>        -0.0151
     28 C19         1.8473    6.0682   -0.6821 C.ar      1 <0>        -0.1281
     29 C20         2.9179    6.9385   -0.6807 C.ar      1 <0>        -0.1132
     30 C21         4.0794    6.6097   -0.0046 C.ar      1 <0>        -0.1149
     31 C22         4.1735    5.4100    0.6781 C.ar      1 <0>        -0.1134
     32 C23         3.1081    4.5334    0.6883 C.ar      1 <0>        -0.0841
     33 H1         -6.4676   14.3391    0.1337 H         1 <0>         0.1018
     34 H2         -5.2152   13.4255    1.0084 H         1 <0>         0.0553
     35 H3         -5.2303   13.4347   -0.7715 H         1 <0>         0.0553
     36 H4         -7.9167    9.9702    0.1236 H         1 <0>         0.1416
     37 H5         -6.8047    7.7745    0.1028 H         1 <0>         0.1419
     38 H6         -2.9929    9.7053    0.0879 H         1 <0>         0.1307
     39 H7         -4.1050   11.9010    0.1002 H         1 <0>         0.1332
     40 H8         -2.4134    7.8952    0.9536 H         1 <0>         0.1023
     41 H9         -2.4297    7.9039   -0.8263 H         1 <0>         0.1021
     42 H10        -0.3307    6.4510    0.0375 H         1 <0>         0.4241
     43 H11        -2.2204    0.0894    0.9138 H         1 <0>         0.1268
     44 H12        -2.2374    0.0990   -0.8661 H         1 <0>         0.1265
     45 H13        -4.0163   -1.7157    0.0312 H         1 <0>         0.4061
     46 H14        -3.0363   -4.2022   -0.8816 H         1 <0>         0.0763
     47 H15        -3.0193   -4.2118    0.8983 H         1 <0>         0.0808
     48 H16        -5.5845   -3.6302    0.8021 H         1 <0>         0.1174
     49 H17        -6.5526   -5.0108   -0.8917 H         1 <0>         0.1058
     50 H18        -4.8683   -5.2307   -1.6751 H         1 <0>         0.1017
     51 H19         0.9426    6.3240   -1.2136 H         1 <0>         0.1182
     52 H20         2.8506    7.8764   -1.2118 H         1 <0>         0.1275
     53 H21         4.9161    7.2926   -0.0096 H         1 <0>         0.1257
     54 H22         5.0828    5.1591    1.2040 H         1 <0>         0.1277
     55 H23         3.1827    3.5972    1.2216 H         1 <0>         0.1303
@<TRIPOS>BOND
     1    1    2 1
     2    1   33 1
     3    1   34 1
     4    1   35 1
     5    2    3 1
     6    3    8 ar
     7    3    4 ar
     8    4    5 ar
     9    4   36 1
    10    5    6 ar
    11    5   37 1
    12    6    7 ar
    13    6    9 1
    14    7    8 ar
    15    7   38 1
    16    8   39 1
    17    9   10 1
    18   10   11 1
    19   10   40 1
    20   10   41 1
    21   11   12 2
    22   11   13 am
    23   13   14 1
    24   13   42 1
    25   14   18 1
    26   14   15 2
    27   15   16 1
    28   15   27 1
    29   16   17 2
    30   17   18 1
    31   17   19 1
    32   19   20 1
    33   20   21 1
    34   20   43 1
    35   20   44 1
    36   21   22 2
    37   21   23 am
    38   23   24 1
    39   23   45 1
    40   24   25 1
    41   24   46 1
    42   24   47 1
    43   25   26 2
    44   25   48 1
    45   26   49 1
    46   26   50 1
    47   27   32 ar
    48   27   28 ar
    49   28   29 ar
    50   28   51 1
    51   29   30 ar
    52   29   52 1
    53   30   31 ar
    54   30   53 1
    55   31   32 ar
    56   31   54 1
    57   32   55 1
@<TRIPOS>MOLECULE
ZINC19351488
   63    65     0     0     0
SMALL
USER_CHARGES
[2-[2-(o-tolylamino)-2-oxo-ethyl]thiazol-4-yl]methyl (2S)-3-methyl-2-[(4-methylbenzoyl)amino]butanoate
@<TRIPOS>ATOM
      1 C1         -1.8656   15.4709    8.0512 C.3       1 <0>        -0.1244
      2 C2         -1.7008   14.6268    6.8137 C.ar      1 <0>        -0.0563
      3 C3         -2.2992   15.0173    5.6289 C.ar      1 <0>        -0.1291
      4 C4         -2.1524   14.2492    4.4924 C.ar      1 <0>        -0.0533
      5 C5         -1.3977   13.0760    4.5396 C.ar      1 <0>        -0.1422
      6 C6         -0.8007   12.6852    5.7392 C.ar      1 <0>        -0.0797
      7 C7         -0.9514   13.4650    6.8672 C.ar      1 <0>        -0.1291
      8 C8         -1.2365   12.2476    3.3257 C.2       1 <0>         0.5693
      9 O1         -1.7617   12.5878    2.2836 O.2       1 <0>        -0.5304
     10 N1         -0.5071   11.1153    3.3745 N.am      1 <0>        -0.7266
     11 C9         -0.3474   10.2945    2.1716 C.3       1 <0>         0.1648
     12 H1         -1.2920   10.3420    1.6100 H         1 <0>         0.1293
     13 C10         0.8159   10.8339    1.3369 C.3       1 <0>        -0.0989
     14 C11         0.5256   12.2805    0.9322 C.3       1 <0>        -0.1407
     15 C12         2.1027   10.7838    2.1630 C.3       1 <0>        -0.1529
     16 C13        -0.0614    8.8695    2.5701 C.2       1 <0>         0.4707
     17 O2          0.0025    8.5704    3.7390 O.2       1 <0>        -0.4978
     18 O3          0.1225    7.9327    1.6265 O.3       1 <0>        -0.3479
     19 C14         0.3940    6.5814    2.0833 C.3       1 <0>         0.1445
     20 C15         0.5709    5.6748    0.8926 C.2       1 <0>         0.0472
     21 C16         0.4697    6.1593   -0.3713 C.2       1 <0>        -0.1790
     22 S1          0.7635    4.6720   -1.3175 S.3       1 <0>         0.0760
     23 C17         0.9838    3.5922    0.0246 C.2       1 <0>         0.1051
     24 N2          0.8217    4.3922    1.0530 N.2       1 <0>        -0.4909
     25 C18         1.2790    2.1144    0.0122 C.3       1 <0>        -0.0519
     26 C19        -0.0159    1.3435    0.0122 C.2       1 <0>         0.5190
     27 O4         -1.0743    1.9359    0.0165 O.2       1 <0>        -0.5059
     28 N3          0.0021   -0.0041    0.0020 N.am      1 <0>        -0.6788
     29 C20        -1.1944   -0.7206    0.1152 C.ar      1 <0>         0.1517
     30 C21        -2.2953   -0.1434    0.7349 C.ar      1 <0>        -0.1300
     31 C22        -3.4763   -0.8513    0.8403 C.ar      1 <0>        -0.1038
     32 C23        -3.5603   -2.1377    0.3394 C.ar      1 <0>        -0.1351
     33 C24        -2.4646   -2.7170   -0.2734 C.ar      1 <0>        -0.1002
     34 C25        -1.2820   -2.0123   -0.3867 C.ar      1 <0>        -0.1183
     35 C26        -0.0879   -2.6449   -1.0538 C.3       1 <0>        -0.1162
     36 H2         -2.4883   16.3470    7.8172 H         1 <0>         0.0694
     37 H3         -0.8779   15.8059    8.4007 H         1 <0>         0.0751
     38 H4         -2.3509   14.8759    8.8389 H         1 <0>         0.0751
     39 H5         -2.8829   15.9254    5.5938 H         1 <0>         0.1306
     40 H6         -2.6200   14.5551    3.5683 H         1 <0>         0.1371
     41 H7         -0.2191   11.7762    5.7834 H         1 <0>         0.1260
     42 H8         -0.4869   13.1657    7.7952 H         1 <0>         0.1296
     43 H9         -0.0317   10.8075    4.3175 H         1 <0>         0.4303
     44 H10         0.9358   10.2176    0.4337 H         1 <0>         0.0937
     45 H11         1.3620   12.6682    0.3321 H         1 <0>         0.0553
     46 H12         0.4056   12.8969    1.8354 H         1 <0>         0.0572
     47 H13        -0.3995   12.3164    0.3382 H         1 <0>         0.0684
     48 H14         2.9390   11.1716    1.5628 H         1 <0>         0.0661
     49 H15         2.3114    9.7437    2.4538 H         1 <0>         0.0505
     50 H16         1.9828   11.4001    3.0662 H         1 <0>         0.0603
     51 H17         1.3130    6.5764    2.6878 H         1 <0>         0.0945
     52 H18        -0.4485    6.2245    2.6940 H         1 <0>         0.0942
     53 H19         0.2678    7.1644   -0.7109 H         1 <0>         0.2047
     54 H20         1.8553    1.8632   -0.8904 H         1 <0>         0.1287
     55 H21         1.8634    1.8497    0.9058 H         1 <0>         0.1359
     56 H22         0.9574   -0.5407   -0.0953 H         1 <0>         0.4354
     57 H23        -2.2290    0.8594    1.1303 H         1 <0>         0.1430
     58 H24        -4.3339   -0.4017    1.3187 H         1 <0>         0.1241
     59 H25        -4.4836   -2.6910    0.4273 H         1 <0>         0.1228
     60 H26        -2.5334   -3.7217   -0.6636 H         1 <0>         0.1255
     61 H27        -0.3480   -3.6615   -1.3837 H         1 <0>         0.0718
     62 H28         0.7477   -2.6936   -0.3401 H         1 <0>         0.0677
     63 H29         0.2081   -2.0414   -1.9245 H         1 <0>         0.0690
@<TRIPOS>BOND
     1    1    2 1
     2    1   36 1
     3    1   37 1
     4    1   38 1
     5    2    7 ar
     6    2    3 ar
     7    3    4 ar
     8    3   39 1
     9    4    5 ar
    10    4   40 1
    11    5    6 ar
    12    5    8 1
    13    6    7 ar
    14    6   41 1
    15    7   42 1
    16    8    9 2
    17    8   10 am
    18   10   11 1
    19   10   43 1
    20   11   12 1
    21   11   13 1
    22   11   16 1
    23   13   14 1
    24   13   15 1
    25   13   44 1
    26   14   45 1
    27   14   46 1
    28   14   47 1
    29   15   48 1
    30   15   49 1
    31   15   50 1
    32   16   17 2
    33   16   18 1
    34   18   19 1
    35   19   20 1
    36   19   51 1
    37   19   52 1
    38   20   24 1
    39   20   21 2
    40   21   22 1
    41   21   53 1
    42   22   23 1
    43   23   24 2
    44   23   25 1
    45   25   26 1
    46   25   54 1
    47   25   55 1
    48   26   27 2
    49   26   28 am
    50   28   29 1
    51   28   56 1
    52   29   34 ar
    53   29   30 ar
    54   30   31 ar
    55   30   57 1
    56   31   32 ar
    57   31   58 1
    58   32   33 ar
    59   32   59 1
    60   33   34 ar
    61   33   60 1
    62   34   35 1
    63   35   61 1
    64   35   62 1
    65   35   63 1
@<TRIPOS>MOLECULE
ZINC35742901
   61    63     0     0     0
SMALL
USER_CHARGES

@<TRIPOS>ATOM
      1 C1         -1.2531    2.1717    1.6469 C.3       1 <0>        -0.1526
      2 C2         -0.8489    0.7597    1.2179 C.3       1 <0>         0.0569
      3 O1         -2.0223   -0.0121    0.9540 O.3       1 <0>        -0.3834
      4 C3         -1.7548   -1.3545    0.5437 C.3       1 <0>         0.0644
      5 C4         -3.0760   -2.0831    0.2901 C.3       1 <0>         0.0719
      6 O2         -3.7497   -1.4772   -0.8149 O.3       1 <0>        -0.2647
      7 C5         -4.9473   -2.0085   -1.1737 C.2       1 <0>         0.4169
      8 N1         -5.7128   -1.5809   -2.1774 N.2       1 <0>        -0.5140
      9 C6         -6.8044   -2.3175   -2.2497 C.2       1 <0>         0.3389
     10 N2         -6.7440   -3.2469   -1.2665 N.pl3     1 <0>        -0.2992
     11 N3         -5.5325   -3.0283   -0.5909 N.2       1 <0>        -0.3479
     12 C7         -7.6979   -4.2338   -0.9832 C.ar      1 <0>         0.0641
     13 C8         -8.2648   -4.9685   -2.0166 C.ar      1 <0>        -0.0577
     14 C9         -9.2039   -5.9408   -1.7378 C.ar      1 <0>        -0.1769
     15 C10        -9.5821   -6.1846   -0.4235 C.ar      1 <0>         0.2329
     16 C11        -9.0150   -5.4496    0.6100 C.ar      1 <0>        -0.1866
     17 C12        -8.0720   -4.4811    0.3313 C.ar      1 <0>        -0.0425
     18 N4        -10.5336   -7.1690   -0.1410 N.pl3     1 <0>        -0.7335
     19 C13       -10.9323   -7.4260    1.2451 C.3       1 <0>         0.1013
     20 C14       -11.9782   -8.5423    1.2763 C.3       1 <0>         0.1505
     21 C15       -13.1486   -8.1703    0.3637 C.3       1 <0>        -0.1359
     22 C16       -12.4783   -8.7228    2.6864 C.2       1 <0>        -0.1937
     23 C17       -12.3315   -9.8757    3.2908 C.2       1 <0>        -0.1687
     24 O3        -11.3876   -9.7611    0.8206 O.3       1 <0>        -0.5515
     25 C18        -7.9000   -2.1570   -3.2304 C.ar      1 <0>        -0.0026
     26 C19        -9.2113   -2.4739   -2.8740 C.ar      1 <0>        -0.0887
     27 C20       -10.2287   -2.3220   -3.7934 C.ar      1 <0>        -0.0683
     28 C21        -9.9509   -1.8572   -5.0665 C.ar      1 <0>        -0.1628
     29 C22        -8.6528   -1.5417   -5.4263 C.ar      1 <0>        -0.0703
     30 C23        -7.6274   -1.6827   -4.5140 C.ar      1 <0>        -0.0657
     31 C24       -11.0671   -1.6942   -6.0658 C.3       1 <0>         0.5076
     32 F1        -11.6000   -0.4047   -5.9635 F         1 <0>        -0.1731
     33 F2        -10.5686   -1.8916   -7.3580 F         1 <0>        -0.1742
     34 F3        -12.0688   -2.6350   -5.8037 F         1 <0>        -0.1750
     35 H1         -0.3581    2.7604    1.8481 H         1 <0>         0.0721
     36 H2         -1.8266    2.6436    0.8491 H         1 <0>         0.0646
     37 H3         -1.8624    2.1169    2.5490 H         1 <0>         0.0626
     38 H4         -0.2396    0.8145    0.3158 H         1 <0>         0.0506
     39 H5         -0.2754    0.2878    2.0157 H         1 <0>         0.0490
     40 H6         -1.1642   -1.3436   -0.3724 H         1 <0>         0.0642
     41 H7         -1.2000   -1.8703    1.3275 H         1 <0>         0.0778
     42 H8         -2.8758   -3.1304    0.0636 H         1 <0>         0.0849
     43 H9         -3.7037   -2.0172    1.1788 H         1 <0>         0.0780
     44 H10        -7.9711   -4.7787   -3.0384 H         1 <0>         0.1302
     45 H11        -9.6450   -6.5118   -2.5415 H         1 <0>         0.1345
     46 H12        -9.3091   -5.6388    1.6318 H         1 <0>         0.1315
     47 H13        -7.6280   -3.9125    1.1351 H         1 <0>         0.1324
     48 H14       -10.9298   -7.6819   -0.8627 H         1 <0>         0.4069
     49 H15       -10.0599   -7.7292    1.8239 H         1 <0>         0.0666
     50 H16       -11.3564   -6.5187    1.6754 H         1 <0>         0.0743
     51 H17       -12.7868   -8.0397   -0.6562 H         1 <0>         0.0653
     52 H18       -13.8936   -8.9655    0.3860 H         1 <0>         0.0690
     53 H19       -13.5990   -7.2406    0.7113 H         1 <0>         0.0755
     54 H20       -12.9577   -7.9017    3.1986 H         1 <0>         0.1200
     55 H21       -12.6899  -10.0051    4.3014 H         1 <0>         0.1044
     56 H22       -11.8520  -10.6968    2.7786 H         1 <0>         0.1056
     57 H23       -10.6374  -10.0581    1.3536 H         1 <0>         0.3793
     58 H24        -9.4293   -2.8376   -1.8807 H         1 <0>         0.1422
     59 H25       -11.2441   -2.5669   -3.5188 H         1 <0>         0.1451
     60 H26        -8.4424   -1.1799   -6.4219 H         1 <0>         0.1471
     61 H27        -6.6151   -1.4315   -4.7945 H         1 <0>         0.1505
@<TRIPOS>BOND
     1    1    2 1
     2    1   35 1
     3    1   36 1
     4    1   37 1
     5    2    3 1
     6    2   38 1
     7    2   39 1
     8    3    4 1
     9    4    5 1
    10    4   40 1
    11    4   41 1
    12    5    6 1
    13    5   42 1
    14    5   43 1
    15    6    7 1
    16    7   11 2
    17    7    8 1
    18    8    9 2
    19    9   10 1
    20    9   25 1
    21   10   11 1
    22   10   12 1
    23   12   17 ar
    24   12   13 ar
    25   13   14 ar
    26   13   44 1
    27   14   15 ar
    28   14   45 1
    29   15   16 ar
    30   15   18 1
    31   16   17 ar
    32   16   46 1
    33   17   47 1
    34   18   19 1
    35   18   48 1
    36   19   20 1
    37   19   49 1
    38   19   50 1
    39   20   21 1
    40   20   22 1
    41   20   24 1
    42   21   51 1
    43   21   52 1
    44   21   53 1
    45   22   23 2
    46   22   54 1
    47   23   55 1
    48   23   56 1
    49   24   57 1
    50   25   30 ar
    51   25   26 ar
    52   26   27 ar
    53   26   58 1
    54   27   28 ar
    55   27   59 1
    56   28   29 ar
    57   28   31 1
    58   29   30 ar
    59   29   60 1
    60   30   61 1
    61   31   32 1
    62   31   33 1
    63   31   34 1
@<TRIPOS>MOLECULE
ZINC30032385
   56    58     0     0     0
SMALL
USER_CHARGES

@<TRIPOS>ATOM
      1 C1          0.8187    0.0783    0.0190 C.3       1 <0>        -0.1497
      2 C2          0.1434   -1.2627   -0.2749 C.3       1 <0>        -0.0869
      3 C3         -1.3486   -1.1185   -0.1194 C.ar      1 <0>        -0.1063
      4 C4         -1.9537   -1.4452    1.0786 C.ar      1 <0>        -0.1014
      5 C5         -3.3225   -1.3132    1.2221 C.ar      1 <0>        -0.1291
      6 C6         -4.0902   -0.8535    0.1675 C.ar      1 <0>        -0.1075
      7 C7         -3.4913   -0.5248   -1.0326 C.ar      1 <0>        -0.1178
      8 C8         -2.1159   -0.6517   -1.1783 C.ar      1 <0>         0.1422
      9 N1         -1.5053   -0.3145   -2.3913 N.am      1 <0>        -0.6708
     10 C9         -2.1471   -0.5408   -3.5547 C.2       1 <0>         0.5191
     11 O1         -3.2850   -0.9606   -3.5478 O.2       1 <0>        -0.5179
     12 C10        -1.4509   -0.2722   -4.8640 C.3       1 <0>        -0.1226
     13 C11        -2.3932   -0.6094   -6.0212 C.3       1 <0>        -0.1000
     14 S1         -1.5552   -0.2862   -7.5972 S.3       1 <0>        -0.1486
     15 C12        -2.7898   -0.7303   -8.8499 C.3       1 <0>        -0.0708
     16 C13        -2.2141   -0.5056  -10.2244 C.2       1 <0>         0.4434
     17 N2         -2.9803   -0.7726  -11.3105 N.am      1 <0>        -0.6323
     18 H1         -3.8835   -1.1031  -11.1848 H         1 <0>         0.4257
     19 C14        -2.5133   -0.5878  -12.5607 C.2       1 <0>         0.5667
     20 O2         -3.2101   -0.8299  -13.5302 O.2       1 <0>        -0.4975
     21 C15        -1.1312   -0.0824  -12.7258 C.2       1 <0>        -0.2656
     22 C16        -0.4252    0.1889  -13.8994 C.2       1 <0>         0.0460
     23 C17         0.8558    0.6552  -13.8289 C.2       1 <0>        -0.2493
     24 S2          1.1482    0.7409  -12.0703 S.3       1 <0>         0.2433
     25 C18        -0.4349    0.1571  -11.5188 C.2       1 <0>         0.1219
     26 N3         -0.9940   -0.0546  -10.3344 N.2       1 <0>        -0.4720
     27 C19         1.7646    0.9996  -14.9244 C.2       1 <0>         0.5590
     28 O3          1.3990    0.8800  -16.0783 O.2       1 <0>        -0.4862
     29 O4          3.0073    1.4494  -14.6537 O.3       1 <0>        -0.3470
     30 C20         3.8401    1.7664  -15.7708 C.3       1 <0>         0.0624
     31 C21         5.2003    2.2564  -15.2701 C.3       1 <0>        -0.1533
     32 C22        -1.0757   -0.0328  -15.2405 C.3       1 <0>        -0.1267
     33 H2          1.8979   -0.0260   -0.0935 H         1 <0>         0.0623
     34 H3          0.4517    0.8307   -0.6791 H         1 <0>         0.0513
     35 H4          0.5877    0.3857    1.0389 H         1 <0>         0.0601
     36 H5          0.3743   -1.5701   -1.2948 H         1 <0>         0.0697
     37 H6          0.5104   -2.0151    0.4233 H         1 <0>         0.0774
     38 H7         -1.3570   -1.8045    1.9040 H         1 <0>         0.1258
     39 H8         -3.7933   -1.5699    2.1596 H         1 <0>         0.1237
     40 H9         -5.1592   -0.7518    0.2826 H         1 <0>         0.1253
     41 H10        -4.0914   -0.1661   -1.8558 H         1 <0>         0.1387
     42 H11        -0.6201    0.0822   -2.3950 H         1 <0>         0.4117
     43 H12        -1.1715    0.7800   -4.9177 H         1 <0>         0.1093
     44 H13        -0.5555   -0.8899   -4.9327 H         1 <0>         0.1095
     45 H14        -2.6727   -1.6616   -5.9674 H         1 <0>         0.0931
     46 H15        -3.2887    0.0083   -5.9524 H         1 <0>         0.0931
     47 H16        -3.0609   -1.7800   -8.7367 H         1 <0>         0.1272
     48 H17        -3.6769   -0.1101   -8.7217 H         1 <0>         0.1270
     49 H18         3.9781    0.8767  -16.3852 H         1 <0>         0.0716
     50 H19         3.3684    2.5488  -16.3653 H         1 <0>         0.0716
     51 H20         5.8356    2.4981  -16.1222 H         1 <0>         0.0826
     52 H21         5.0624    3.1461  -14.6558 H         1 <0>         0.0681
     53 H22         5.6720    1.4740  -14.6757 H         1 <0>         0.0681
     54 H23        -1.5848    0.8790  -15.5526 H         1 <0>         0.0834
     55 H24        -0.3138   -0.2932  -15.9753 H         1 <0>         0.0925
     56 H25        -1.7989   -0.8447  -15.1638 H         1 <0>         0.0864
@<TRIPOS>BOND
     1    1    2 1
     2    1   33 1
     3    1   34 1
     4    1   35 1
     5    2    3 1
     6    2   36 1
     7    2   37 1
     8    3    8 ar
     9    3    4 ar
    10    4    5 ar
    11    4   38 1
    12    5    6 ar
    13    5   39 1
    14    6    7 ar
    15    6   40 1
    16    7    8 ar
    17    7   41 1
    18    8    9 1
    19    9   10 am
    20    9   42 1
    21   10   11 2
    22   10   12 1
    23   12   13 1
    24   12   43 1
    25   12   44 1
    26   13   14 1
    27   13   45 1
    28   13   46 1
    29   14   15 1
    30   15   16 1
    31   15   47 1
    32   15   48 1
    33   16   26 2
    34   16   17 1
    35   17   18 1
    36   17   19 am
    37   19   20 2
    38   19   21 1
    39   21   25 2
    40   21   22 1
    41   22   23 2
    42   22   32 1
    43   23   24 1
    44   23   27 1
    45   24   25 1
    46   25   26 1
    47   27   28 2
    48   27   29 1
    49   29   30 1
    50   30   31 1
    51   30   49 1
    52   30   50 1
    53   31   51 1
    54   31   52 1
    55   31   53 1
    56   32   54 1
    57   32   55 1
    58   32   56 1
@<TRIPOS>MOLECULE
ZINC66064028
   66    69     0     0     0
SMALL
USER_CHARGES

@<TRIPOS>ATOM
      1 C1          1.2198    2.8939   -0.5880 C.ar      1 <0>        -0.1589
      2 C2          2.4682    3.4481   -0.3729 C.ar      1 <0>        -0.0799
      3 C3          3.5844    2.6363   -0.3126 C.ar      1 <0>        -0.1512
      4 C4          3.4519    1.2641   -0.4675 C.ar      1 <0>         0.1303
      5 C5          2.1981    0.7105   -0.6828 C.ar      1 <0>        -0.2110
      6 C6          1.0851    1.5266   -0.7428 C.ar      1 <0>        -0.0800
      7 O1          4.5485    0.4635   -0.4090 O.3       1 <0>        -0.3069
      8 C7          4.3370   -0.9397   -0.5771 C.3       1 <0>         0.0611
      9 C8          5.6766   -1.6725   -0.4809 C.3       1 <0>         0.0660
     10 O2          6.2064   -1.5254    0.8381 O.3       1 <0>        -0.3109
     11 C9          7.4020   -2.1216    1.0934 C.ar      1 <0>         0.0618
     12 C10         8.0530   -2.8273    0.0951 C.ar      1 <0>        -0.1633
     13 C11         9.2682   -3.4334    0.3562 C.ar      1 <0>        -0.1369
     14 C12         9.8372   -3.3370    1.6125 C.ar      1 <0>        -0.1052
     15 C13         9.1942   -2.6342    2.6141 C.ar      1 <0>        -0.1698
     16 C14         7.9774   -2.0191    2.3580 C.ar      1 <0>         0.1961
     17 N1          7.3271   -1.3020    3.3688 N.pl3     1 <0>        -0.7342
     18 C15         7.9340   -1.1955    4.6979 C.3       1 <0>         0.1112
     19 C16         7.0400   -0.3780    5.5944 C.2       1 <0>         0.5100
     20 O3          5.9985    0.0713    5.1653 O.2       1 <0>        -0.5047
     21 N2          7.3979   -0.1463    6.8729 N.am      1 <0>        -0.6701
     22 C17         6.6208    0.6896    7.6739 C.ar      1 <0>         0.1648
     23 C18         5.2368    0.6979    7.5308 C.ar      1 <0>        -0.1226
     24 C19         4.4666    1.5220    8.3200 C.ar      1 <0>        -0.0468
     25 C20         5.0762    2.3504    9.2661 C.ar      1 <0>        -0.1415
     26 C21         6.4665    2.3392    9.4076 C.ar      1 <0>        -0.0737
     27 C22         7.2305    1.5092    8.6185 C.ar      1 <0>        -0.1477
     28 C23         4.2536    3.2355   10.1137 C.2       1 <0>         0.5630
     29 O4          3.2496    2.8050   10.6474 O.2       1 <0>        -0.5332
     30 N3          4.6154    4.5210   10.2959 N.am      1 <0>        -0.6062
     31 C24         5.8703    5.0330    9.7287 C.3       1 <0>         0.0908
     32 C25         5.5612    6.2785    8.8919 C.3       1 <0>        -0.1369
     33 C26         4.8012    7.2905    9.7524 C.3       1 <0>        -0.1214
     34 C27         3.4769    6.6777   10.2138 C.3       1 <0>        -0.1361
     35 C28         3.7595    5.4384   11.0604 C.3       1 <0>         0.1106
     36 H1          0.3479    3.5298   -0.6308 H         1 <0>         0.1240
     37 H2          2.5708    4.5164   -0.2524 H         1 <0>         0.1293
     38 H3          4.5594    3.0697   -0.1453 H         1 <0>         0.1298
     39 H4          2.0925   -0.3574   -0.8041 H         1 <0>         0.1264
     40 H5          0.1089    1.0962   -0.9104 H         1 <0>         0.1248
     41 H6          3.6677   -1.3023    0.2031 H         1 <0>         0.0747
     42 H7          3.8906   -1.1254   -1.5540 H         1 <0>         0.0849
     43 H8          5.5283   -2.7306   -0.6969 H         1 <0>         0.0842
     44 H9          6.3752   -1.2488   -1.2024 H         1 <0>         0.0740
     45 H10         7.6112   -2.9045   -0.8874 H         1 <0>         0.1270
     46 H11         9.7739   -3.9838   -0.4233 H         1 <0>         0.1222
     47 H12        10.7863   -3.8122    1.8119 H         1 <0>         0.1237
     48 H13         9.6408   -2.5607    3.5947 H         1 <0>         0.1269
     49 H14         6.4746   -0.8755    3.1894 H         1 <0>         0.4177
     50 H15         8.0594   -2.1922    5.1210 H         1 <0>         0.0946
     51 H16         8.9068   -0.7108    4.6154 H         1 <0>         0.0949
     52 H17         8.1962   -0.5610    7.2359 H         1 <0>         0.4162
     53 H18         4.7663    0.0575    6.7994 H         1 <0>         0.1456
     54 H19         3.3925    1.5285    8.2079 H         1 <0>         0.1346
     55 H20         6.9408    2.9784   10.1376 H         1 <0>         0.1368
     56 H21         8.3047    1.4973    8.7300 H         1 <0>         0.1349
     57 H22         6.5555    5.2953   10.5348 H         1 <0>         0.0724
     58 H23         6.3230    4.2703    9.0951 H         1 <0>         0.0992
     59 H24         6.4934    6.7238    8.5444 H         1 <0>         0.0770
     60 H25         4.9495    5.9980    8.0344 H         1 <0>         0.0680
     61 H26         5.4032    7.5518   10.6227 H         1 <0>         0.0653
     62 H27         4.6015    8.1877    9.1665 H         1 <0>         0.0671
     63 H28         2.9257    7.4072   10.8071 H         1 <0>         0.0777
     64 H29         2.8849    6.3935    9.3439 H         1 <0>         0.0668
     65 H30         2.8200    4.9430   11.3052 H         1 <0>         0.0935
     66 H31         4.2687    5.7344   11.9775 H         1 <0>         0.0690
@<TRIPOS>BOND
     1    1    6 ar
     2    1    2 ar
     3    1   36 1
     4    2    3 ar
     5    2   37 1
     6    3    4 ar
     7    3   38 1
     8    4    5 ar
     9    4    7 1
    10    5    6 ar
    11    5   39 1
    12    6   40 1
    13    7    8 1
    14    8    9 1
    15    8   41 1
    16    8   42 1
    17    9   10 1
    18    9   43 1
    19    9   44 1
    20   10   11 1
    21   11   16 ar
    22   11   12 ar
    23   12   13 ar
    24   12   45 1
    25   13   14 ar
    26   13   46 1
    27   14   15 ar
    28   14   47 1
    29   15   16 ar
    30   15   48 1
    31   16   17 1
    32   17   18 1
    33   17   49 1
    34   18   19 1
    35   18   50 1
    36   18   51 1
    37   19   20 2
    38   19   21 am
    39   21   22 1
    40   21   52 1
    41   22   27 ar
    42   22   23 ar
    43   23   24 ar
    44   23   53 1
    45   24   25 ar
    46   24   54 1
    47   25   26 ar
    48   25   28 1
    49   26   27 ar
    50   26   55 1
    51   27   56 1
    52   28   29 2
    53   28   30 am
    54   30   35 1
    55   30   31 1
    56   31   32 1
    57   31   57 1
    58   31   58 1
    59   32   33 1
    60   32   59 1
    61   32   60 1
    62   33   34 1
    63   33   61 1
    64   33   62 1
    65   34   35 1
    66   34   63 1
    67   34   64 1
    68   35   65 1
    69   35   66 1
@<TRIPOS>MOLECULE
ZINC12657667
   49    51     0     0     0
SMALL
USER_CHARGES
(Z)-3-(2-furyl)-N-(2-furylmethyl)-2-[[(E)-3-(4-methoxyphenyl)prop-2-enoyl]amino]prop-2-enamide
@<TRIPOS>ATOM
      1 C1         -1.2403   -6.9638    1.1945 C.3       1 <0>         0.0249
      2 O1         -1.9487   -6.3106    2.2497 O.3       1 <0>        -0.3142
      3 C2         -2.0455   -4.9583    2.1822 C.ar      1 <0>         0.1426
      4 C3         -2.7218   -4.2617    3.1772 C.ar      1 <0>        -0.1549
      5 C4         -2.8228   -2.8903    3.1134 C.ar      1 <0>        -0.0504
      6 C5         -2.2434   -2.1973    2.0441 C.ar      1 <0>        -0.1191
      7 C6         -1.5690   -2.9040    1.0416 C.ar      1 <0>        -0.0563
      8 C7         -1.4683   -4.2749    1.1181 C.ar      1 <0>        -0.2127
      9 C8         -2.3482   -0.7329    1.9710 C.2       1 <0>        -0.0010
     10 C9         -1.7886   -0.0668    0.9387 C.2       1 <0>        -0.2218
     11 C10        -1.7961    1.3953    0.9219 C.2       1 <0>         0.5579
     12 O2         -2.3860    2.0110    1.7909 O.2       1 <0>        -0.5164
     13 N1         -1.1454    2.0613   -0.0525 N.am      1 <0>        -0.6606
     14 C11        -1.0676    3.4579   -0.0136 C.2       1 <0>         0.0921
     15 C12         0.1454    4.0701    0.0357 C.2       1 <0>        -0.0523
     16 C13         1.3311    3.3012   -0.0593 C.2       1 <0>        -0.0020
     17 C14         2.6195    3.7748    0.0730 C.2       1 <0>        -0.1643
     18 C15         3.4705    2.6703   -0.0946 C.2       1 <0>        -0.2142
     19 C16         2.6872    1.5928   -0.3170 C.2       1 <0>        -0.0201
     20 O3          1.4013    1.9737   -0.2895 O.3       1 <0>        -0.1663
     21 C17        -2.2935    4.2607   -0.0260 C.2       1 <0>         0.5539
     22 O4         -3.3795    3.7126   -0.0701 O.2       1 <0>        -0.5062
     23 N2         -2.2185    5.6059    0.0115 N.am      1 <0>        -0.7244
     24 C18        -3.4440    6.4084   -0.0009 C.3       1 <0>         0.2060
     25 C19        -3.0868    7.8717    0.0474 C.2       1 <0>        -0.0426
     26 C20        -2.8705    8.6642   -1.0177 C.2       1 <0>        -0.1803
     27 C21        -2.5660    9.9505   -0.5161 C.2       1 <0>        -0.2185
     28 C22        -2.6144    9.8671    0.8256 C.2       1 <0>        -0.0255
     29 O5         -2.9360    8.6070    1.1611 O.3       1 <0>        -0.1703
     30 H1         -1.2375   -8.0396    1.3702 H         1 <0>         0.1029
     31 H2         -1.7289   -6.7523    0.2434 H         1 <0>         0.0579
     32 H3         -0.2139   -6.5979    1.1650 H         1 <0>         0.0577
     33 H4         -3.1684   -4.7974    4.0018 H         1 <0>         0.1363
     34 H5         -3.3484   -2.3500    3.8869 H         1 <0>         0.1373
     35 H6         -1.1244   -2.3744    0.2121 H         1 <0>         0.1308
     36 H7         -0.9440   -4.8207    0.3476 H         1 <0>         0.1324
     37 H8         -2.8728   -0.1898    2.7432 H         1 <0>         0.1369
     38 H9         -1.3353   -0.6139    0.1253 H         1 <0>         0.1294
     39 H10        -0.7311    1.5726   -0.7808 H         1 <0>         0.4129
     40 H11         0.2049    5.1427    0.1472 H         1 <0>         0.1617
     41 H12         2.9159    4.7950    0.2673 H         1 <0>         0.1560
     42 H13         4.5497    2.6806   -0.0533 H         1 <0>         0.1540
     43 H14         3.0394    0.5858   -0.4858 H         1 <0>         0.2069
     44 H15        -1.3531    6.0426    0.0467 H         1 <0>         0.4015
     45 H16        -4.0048    6.2012   -0.9123 H         1 <0>         0.1027
     46 H17        -4.0535    6.1544    0.8664 H         1 <0>         0.0895
     47 H18        -2.9194    8.3735   -2.0567 H         1 <0>         0.1518
     48 H19        -2.3379   10.8310   -1.0983 H         1 <0>         0.1519
     49 H20        -2.4310   10.6772    1.5158 H         1 <0>         0.2062
@<TRIPOS>BOND
     1    1    2 1
     2    1   30 1
     3    1   31 1
     4    1   32 1
     5    2    3 1
     6    3    8 ar
     7    3    4 ar
     8    4    5 ar
     9    4   33 1
    10    5    6 ar
    11    5   34 1
    12    6    7 ar
    13    6    9 1
    14    7    8 ar
    15    7   35 1
    16    8   36 1
    17    9   10 2
    18    9   37 1
    19   10   11 1
    20   10   38 1
    21   11   12 2
    22   11   13 am
    23   13   14 1
    24   13   39 1
    25   14   15 2
    26   14   21 1
    27   15   16 1
    28   15   40 1
    29   16   20 1
    30   16   17 2
    31   17   18 1
    32   17   41 1
    33   18   19 2
    34   18   42 1
    35   19   20 1
    36   19   43 1
    37   21   22 2
    38   21   23 am
    39   23   24 1
    40   23   44 1
    41   24   25 1
    42   24   45 1
    43   24   46 1
    44   25   29 1
    45   25   26 2
    46   26   27 1
    47   26   47 1
    48   27   28 2
    49   27   48 1
    50   28   29 1
    51   28   49 1
@<TRIPOS>MOLECULE
ZINC41634905
   50    52     0     0     0
SMALL
USER_CHARGES

@<TRIPOS>ATOM
      1 C1          0.5341    1.4892    1.2743 C.3       1 <0>        -0.1963
      2 C2          0.4344    0.2199    0.4258 C.3       1 <0>        -0.0062
      3 N1         -0.9580   -0.2478    0.4061 N.4       1 <0>        -0.3872
      4 C3         -0.9921   -1.6684    0.0338 C.3       1 <0>         0.0038
      5 C4         -2.3418   -2.2681    0.4336 C.3       1 <0>         0.0558
      6 O1         -3.2454   -2.1858   -0.6704 O.3       1 <0>        -0.5264
      7 C5         -1.7233    0.5339   -0.5744 C.3       1 <0>         0.2447
      8 H1         -1.3680    0.3043   -1.5790 H         1 <0>         0.1437
      9 C6         -1.5379    2.0040   -0.2997 C.ar      1 <0>        -0.1474
     10 C7         -1.8636    2.5208    0.9407 C.ar      1 <0>        -0.0579
     11 C8         -1.6951    3.8681    1.1948 C.ar      1 <0>        -0.2082
     12 C9         -1.1981    4.7028    0.2044 C.ar      1 <0>         0.1486
     13 C10        -0.8716    4.1817   -1.0392 C.ar      1 <0>        -0.1496
     14 C11        -1.0371    2.8327   -1.2867 C.ar      1 <0>        -0.0541
     15 O2         -1.0317    6.0287    0.4518 O.3       1 <0>        -0.3070
     16 C12        -1.2940    6.4782    1.7827 C.3       1 <0>         0.0773
     17 C13        -0.5030    7.7595    2.0534 C.3       1 <0>        -0.1508
     18 C14        -2.7897    6.7592    1.9406 C.3       1 <0>        -0.1839
     19 C15        -3.1848    0.1830   -0.4660 C.2       1 <0>        -0.4730
     20 C16        -4.0228   -0.2483   -1.4160 C.2       1 <0>         0.5208
     21 N2         -5.3373   -0.5188   -1.1201 N.pl3     1 <0>        -0.3637
     22 C17        -5.7383   -0.3292    0.1670 C.2       1 <0>         0.2427
     23 S1         -4.2519    0.2260    0.9661 S.3       1 <0>         0.0576
     24 N3         -7.0038   -0.6280    0.2798 N.2       1 <0>        -0.5067
     25 C18        -7.4713   -1.0169   -0.9046 C.2       1 <0>         0.2080
     26 N4         -6.5075   -0.9697   -1.7845 N.2       1 <0>        -0.2844
     27 O3         -3.5693   -0.4202   -2.6870 O.3       1 <0>        -0.6447
     28 H2          1.5675    1.6363    1.5880 H         1 <0>         0.0895
     29 H3          0.2075    2.3464    0.6856 H         1 <0>         0.0991
     30 H4         -0.1018    1.3891    2.1540 H         1 <0>         0.0728
     31 H5          0.7593    0.4367   -0.5918 H         1 <0>         0.1252
     32 H6          1.0716   -0.5540    0.8536 H         1 <0>         0.1205
     33 H7         -0.8563   -1.7651   -1.0434 H         1 <0>         0.1368
     34 H8         -0.1918   -2.1986    0.5500 H         1 <0>         0.1292
     35 H9         -2.2062   -3.3124    0.7151 H         1 <0>         0.0722
     36 H10        -2.7495   -1.7139    1.2790 H         1 <0>         0.0695
     37 H11        -4.1327   -2.5186   -0.4781 H         1 <0>         0.3714
     38 H12        -2.2505    1.8706    1.7114 H         1 <0>         0.1192
     39 H13        -1.9503    4.2714    2.1637 H         1 <0>         0.1355
     40 H14        -0.4845    4.8294   -1.8119 H         1 <0>         0.1365
     41 H15        -0.7789    2.4258   -2.2532 H         1 <0>         0.1363
     42 H16        -0.9921    5.7080    2.4924 H         1 <0>         0.0745
     43 H17        -0.8049    8.5297    1.3437 H         1 <0>         0.0688
     44 H18        -0.7031    8.1024    3.0686 H         1 <0>         0.0790
     45 H19         0.5625    7.5593    1.9409 H         1 <0>         0.0653
     46 H20        -3.3533    5.8463    1.7477 H         1 <0>         0.0646
     47 H21        -2.9898    7.1020    2.9557 H         1 <0>         0.0744
     48 H22        -3.0916    7.5294    1.2308 H         1 <0>         0.0694
     49 H23        -8.4871   -1.3236   -1.1057 H         1 <0>         0.2279
     50 H24        -1.3654   -0.1301    1.3217 H         1 <0>         0.4068
@<TRIPOS>BOND
     1    1    2 1
     2    1   28 1
     3    1   29 1
     4    1   30 1
     5    2    3 1
     6    2   31 1
     7    2   32 1
     8    3    4 1
     9    3    7 1
    10    3   50 1
    11    4    5 1
    12    4   33 1
    13    4   34 1
    14    5    6 1
    15    5   35 1
    16    5   36 1
    17    6   37 1
    18    7    8 1
    19    7    9 1
    20    7   19 1
    21    9   14 ar
    22    9   10 ar
    23   10   11 ar
    24   10   38 1
    25   11   12 ar
    26   11   39 1
    27   12   13 ar
    28   12   15 1
    29   13   14 ar
    30   13   40 1
    31   14   41 1
    32   15   16 1
    33   16   17 1
    34   16   18 1
    35   16   42 1
    36   17   43 1
    37   17   44 1
    38   17   45 1
    39   18   46 1
    40   18   47 1
    41   18   48 1
    42   19   23 1
    43   19   20 2
    44   20   21 1
    45   20   27 1
    46   21   26 1
    47   21   22 1
    48   22   23 1
    49   22   24 2
    50   24   25 1
    51   25   26 2
    52   25   49 1
@<TRIPOS>MOLECULE
ZINC54100882
   56    57     0     0     0
SMALL
USER_CHARGES

@<TRIPOS>ATOM
      1 C1         -0.0207    1.5254    0.0212 C.3       1 <0>        -0.1615
      2 C2          0.0005   -0.0044    0.0107 C.3       1 <0>         0.1368
      3 C3          0.7411   -0.5128    1.2492 C.3       1 <0>        -0.1644
      4 N1         -1.3738   -0.5119    0.0209 N.am      1 <0>        -0.7302
      5 C4         -1.6445   -1.7343   -0.4779 C.2       1 <0>         0.5136
      6 O1         -0.7504   -2.4142   -0.9353 O.2       1 <0>        -0.5178
      7 C5         -3.0581   -2.2563   -0.4673 C.3       1 <0>         0.0357
      8 N2         -3.0886   -3.5995   -1.0615 N.3       1 <0>        -0.5193
      9 C6         -2.3479   -4.5591   -0.2317 C.3       1 <0>         0.0372
     10 C7         -2.2488   -5.8981   -0.9702 C.3       1 <0>         0.1383
     11 N3         -3.6043   -6.3225   -1.3520 N.am      1 <0>        -0.6320
     12 C8         -4.4583   -5.3625   -2.0678 C.3       1 <0>         0.1180
     13 C9         -4.4704   -4.0446   -1.2860 C.3       1 <0>         0.0412
     14 C10        -4.0518   -7.5584   -1.0542 C.2       1 <0>         0.7079
     15 O2         -3.3033   -8.3695   -0.5441 O.2       1 <0>        -0.5857
     16 N4         -5.3291   -7.8953   -1.3218 N.am      1 <0>        -0.7489
     17 C11        -5.8471   -9.1985   -0.8980 C.3       1 <0>         0.1419
     18 C12        -7.3114   -9.3277   -1.3222 C.3       1 <0>        -0.0874
     19 C13        -7.8443  -10.6682   -0.8862 C.ar      1 <0>        -0.1068
     20 C14        -7.7388  -11.7598   -1.7282 C.ar      1 <0>        -0.0773
     21 C15        -8.2270  -12.9896   -1.3311 C.ar      1 <0>        -0.1315
     22 C16        -8.8230  -13.1289   -0.0860 C.ar      1 <0>         0.1041
     23 C17        -8.9271  -12.0322    0.7571 C.ar      1 <0>        -0.1876
     24 C18        -8.4328  -10.8057    0.3574 C.ar      1 <0>        -0.0743
     25 O3         -9.3043  -14.3376    0.3068 O.3       1 <0>        -0.3207
     26 C19        -9.9051  -14.4070    1.6015 C.3       1 <0>         0.4117
     27 F1         -8.9652  -14.0433    2.5718 F         1 <0>        -0.1975
     28 F2        -10.9953  -13.5320    1.6572 F         1 <0>        -0.1982
     29 H1          1.0018    1.9030    0.0135 H         1 <0>         0.0737
     30 H2         -0.5483    1.8875   -0.8612 H         1 <0>         0.0620
     31 H3         -0.5306    1.8755    0.9186 H         1 <0>         0.0607
     32 H4          0.5104   -0.3546   -0.8868 H         1 <0>         0.0889
     33 H5          0.7562   -1.6026    1.2417 H         1 <0>         0.0599
     34 H6          1.7636   -0.1352    1.2415 H         1 <0>         0.0666
     35 H7          0.2312   -0.1626    2.1467 H         1 <0>         0.0559
     36 H8         -2.0889    0.0319    0.3868 H         1 <0>         0.3989
     37 H9         -3.4198   -2.3051    0.5598 H         1 <0>         0.0644
     38 H10        -3.6964   -1.5886   -1.0460 H         1 <0>         0.1064
     39 H11        -1.3461   -4.1754   -0.0383 H         1 <0>         0.1062
     40 H12        -2.8715   -4.7028    0.7134 H         1 <0>         0.0339
     41 H13        -1.6371   -5.7787   -1.8644 H         1 <0>         0.0767
     42 H14        -1.8021   -6.6456   -0.3147 H         1 <0>         0.0967
     43 H15        -4.0590   -5.1916   -3.0675 H         1 <0>         0.0809
     44 H16        -5.4724   -5.7560   -2.1378 H         1 <0>         0.0806
     45 H17        -4.9645   -4.1955   -0.3262 H         1 <0>         0.0412
     46 H18        -5.0080   -3.2878   -1.8573 H         1 <0>         0.0902
     47 H19        -5.9053   -7.2749   -1.7951 H         1 <0>         0.3947
     48 H20        -5.2623   -9.9912   -1.3647 H         1 <0>         0.0703
     49 H21        -5.7741   -9.2833    0.1862 H         1 <0>         0.0673
     50 H22        -7.8962   -8.5350   -0.8555 H         1 <0>         0.0795
     51 H23        -7.3845   -9.2428   -2.4064 H         1 <0>         0.0814
     52 H24        -7.2748  -11.6509   -2.6973 H         1 <0>         0.1347
     53 H25        -8.1450  -13.8419   -1.9894 H         1 <0>         0.1362
     54 H26        -9.3907  -12.1380    1.7268 H         1 <0>         0.1341
     55 H27        -8.5097   -9.9525    1.0152 H         1 <0>         0.1293
     56 H28       -10.2462  -15.4250    1.7896 H         1 <0>         0.1833
@<TRIPOS>BOND
     1    1    2 1
     2    1   29 1
     3    1   30 1
     4    1   31 1
     5    2    3 1
     6    2    4 1
     7    2   32 1
     8    3   33 1
     9    3   34 1
    10    3   35 1
    11    4    5 am
    12    4   36 1
    13    5    6 2
    14    5    7 1
    15    7    8 1
    16    7   37 1
    17    7   38 1
    18    8   13 1
    19    8    9 1
    20    9   10 1
    21    9   39 1
    22    9   40 1
    23   10   11 1
    24   10   41 1
    25   10   42 1
    26   11   12 1
    27   11   14 am
    28   12   13 1
    29   12   43 1
    30   12   44 1
    31   13   45 1
    32   13   46 1
    33   14   15 2
    34   14   16 am
    35   16   17 1
    36   16   47 1
    37   17   18 1
    38   17   48 1
    39   17   49 1
    40   18   19 1
    41   18   50 1
    42   18   51 1
    43   19   24 ar
    44   19   20 ar
    45   20   21 ar
    46   20   52 1
    47   21   22 ar
    48   21   53 1
    49   22   23 ar
    50   22   25 1
    51   23   24 ar
    52   23   54 1
    53   24   55 1
    54   25   26 1
    55   26   27 1
    56   26   28 1
    57   26   56 1
@<TRIPOS>MOLECULE
ZINC66086220
   53    55     0     0     0
SMALL
USER_CHARGES

@<TRIPOS>ATOM
      1 C1         -0.0187    1.5258    0.0104 C.3       1 <0>        -0.1740
      2 C2          0.0021   -0.0041    0.0020 C.3       1 <0>         0.1124
      3 N1         -1.3723   -0.5112    0.0124 N.pl3     1 <0>        -0.6148
      4 C3         -2.0716   -0.7579   -1.2510 C.3       1 <0>         0.1122
      5 C4         -1.8159   -2.1971   -1.7029 C.3       1 <0>        -0.1743
      6 C5         -2.0132   -0.7583    1.2217 C.ar      1 <0>         0.2678
      7 C6         -1.3476   -0.5172    2.4223 C.ar      1 <0>        -0.2147
      8 C7         -1.9673   -0.7564    3.6145 C.ar      1 <0>        -0.0180
      9 C8         -3.2778   -1.2457    3.6384 C.ar      1 <0>        -0.2352
     10 C9         -3.9527   -1.4897    2.4319 C.ar      1 <0>         0.2284
     11 C10        -3.3166   -1.2392    1.2287 C.ar      1 <0>        -0.2434
     12 O1         -5.2236   -1.9642    2.4454 O.3       1 <0>        -0.4787
     13 C11        -3.9464   -1.5042    4.9241 C.2       1 <0>         0.5757
     14 O2         -5.0858   -1.9297    4.9424 O.2       1 <0>        -0.5031
     15 N2         -3.2960   -1.2695    6.0810 N.am      1 <0>        -0.6379
     16 C12        -3.9323   -1.5156    7.3047 C.2       1 <0>         0.3031
     17 C13        -5.2361   -2.0095    7.4718 C.2       1 <0>        -0.2645
     18 C14        -5.4760   -2.1069    8.7991 C.2       1 <0>         0.0631
     19 N3         -4.3696   -1.6918    9.4513 N.pl3     1 <0>        -0.3695
     20 N4         -3.4121   -1.3302    8.4951 N.2       1 <0>        -0.3242
     21 C15        -4.1983   -1.6344   10.9051 C.3       1 <0>         0.1473
     22 C16        -2.9529   -2.4288   11.3037 C.3       1 <0>        -0.0936
     23 C17        -2.7767   -2.3697   12.7992 C.ar      1 <0>        -0.0412
     24 C18        -2.0347   -1.3567   13.3869 C.ar      1 <0>        -0.1670
     25 C19        -1.8948   -1.3350   14.7617 C.ar      1 <0>         0.1020
     26 N5         -2.4567   -2.2629   15.5116 N.ar      1 <0>        -0.4863
     27 C20        -3.1691   -3.2409   14.9871 C.ar      1 <0>         0.1018
     28 C21        -3.3576   -3.3239   13.6205 C.ar      1 <0>        -0.1694
     29 H1          1.0039    1.9031    0.0027 H         1 <0>         0.0675
     30 H2         -0.5459    1.8868   -0.8726 H         1 <0>         0.0576
     31 H3         -0.5289    1.8773    0.9072 H         1 <0>         0.0602
     32 H4          0.5123   -0.3556   -0.8948 H         1 <0>         0.0783
     33 H5          0.5293   -0.3651    0.8851 H         1 <0>         0.0799
     34 H6         -3.1417   -0.6062   -1.1097 H         1 <0>         0.0794
     35 H7         -1.7041   -0.0678   -2.0105 H         1 <0>         0.0783
     36 H8         -0.7458   -2.3488   -1.8443 H         1 <0>         0.0575
     37 H9         -2.1835   -2.8871   -0.9434 H         1 <0>         0.0607
     38 H10        -2.3362   -2.3807   -2.6429 H         1 <0>         0.0676
     39 H11        -0.3358   -0.1395    2.4092 H         1 <0>         0.1321
     40 H12        -1.4452   -0.5680    4.5409 H         1 <0>         0.1276
     41 H13        -3.8312   -1.4207    0.2967 H         1 <0>         0.1373
     42 H14        -5.9010   -1.2741    2.4548 H         1 <0>         0.3984
     43 H15        -2.3874   -0.9303    6.0664 H         1 <0>         0.4116
     44 H16        -5.9251   -2.2660    6.6806 H         1 <0>         0.1734
     45 H17        -6.3907   -2.4545    9.2562 H         1 <0>         0.1772
     46 H18        -4.0822   -0.5963   11.2166 H         1 <0>         0.0867
     47 H19        -5.0742   -2.0638   11.3914 H         1 <0>         0.1000
     48 H20        -3.0691   -3.4669   10.9923 H         1 <0>         0.0839
     49 H21        -2.0770   -1.9994   10.8174 H         1 <0>         0.0933
     50 H22        -1.5715   -0.5943   12.7781 H         1 <0>         0.1366
     51 H23        -1.3184   -0.5493   15.2273 H         1 <0>         0.1575
     52 H24        -3.6139   -3.9831   15.6334 H         1 <0>         0.1574
     53 H25        -3.9462   -4.1244   13.1973 H         1 <0>         0.1358
@<TRIPOS>BOND
     1    1    2 1
     2    1   29 1
     3    1   30 1
     4    1   31 1
     5    2    3 1
     6    2   32 1
     7    2   33 1
     8    3    4 1
     9    3    6 1
    10    4    5 1
    11    4   34 1
    12    4   35 1
    13    5   36 1
    14    5   37 1
    15    5   38 1
    16    6   11 ar
    17    6    7 ar
    18    7    8 ar
    19    7   39 1
    20    8    9 ar
    21    8   40 1
    22    9   10 ar
    23    9   13 1
    24   10   11 ar
    25   10   12 1
    26   11   41 1
    27   12   42 1
    28   13   14 2
    29   13   15 am
    30   15   16 1
    31   15   43 1
    32   16   20 2
    33   16   17 1
    34   17   18 2
    35   17   44 1
    36   18   19 1
    37   18   45 1
    38   19   20 1
    39   19   21 1
    40   21   22 1
    41   21   46 1
    42   21   47 1
    43   22   23 1
    44   22   48 1
    45   22   49 1
    46   23   28 ar
    47   23   24 ar
    48   24   25 ar
    49   24   50 1
    50   25   26 ar
    51   25   51 1
    52   26   27 ar
    53   27   28 ar
    54   27   52 1
    55   28   53 1
@<TRIPOS>MOLECULE
ZINC67645398
   50    52     0     0     0
SMALL
USER_CHARGES

@<TRIPOS>ATOM
      1 C1         -0.0173    1.4248    0.0099 C.3       1 <0>         0.0340
      2 O1          0.0021   -0.0041    0.0020 O.3       1 <0>        -0.3498
      3 C2         -1.1897   -0.6319    0.0100 C.2       1 <0>         0.5064
      4 O2         -2.2173    0.0157    0.0233 O.2       1 <0>        -0.5024
      5 C3         -1.2470   -2.1081    0.0026 C.ar      1 <0>        -0.1277
      6 C4         -0.0678   -2.8556   -0.0069 C.ar      1 <0>        -0.0579
      7 C5         -0.1285   -4.2337   -0.0138 C.ar      1 <0>        -0.1260
      8 C6         -1.3544   -4.8753   -0.0113 C.ar      1 <0>        -0.0464
      9 C7         -2.5269   -4.1407   -0.0023 C.ar      1 <0>        -0.1240
     10 C8         -2.4807   -2.7620    0.0109 C.ar      1 <0>        -0.0506
     11 C9         -1.4129   -6.3812   -0.0189 C.3       1 <0>        -0.0973
     12 C10        -1.4258   -6.8983    1.4210 C.3       1 <0>         0.1430
     13 N1         -1.4826   -8.3622    1.4137 N.am      1 <0>        -0.7464
     14 C11        -1.5032   -9.0416    2.5774 C.2       1 <0>         0.7052
     15 O3         -1.4746   -8.4397    3.6334 O.2       1 <0>        -0.5844
     16 N2         -1.5555  -10.3884    2.5707 N.am      1 <0>        -0.7446
     17 C12        -1.5779  -11.1269    3.8357 C.3       1 <0>         0.1789
     18 C13        -1.6366  -12.6060    3.5529 C.ar      1 <0>        -0.0750
     19 C14        -2.8611  -13.2355    3.4237 C.ar      1 <0>        -0.0898
     20 C15        -2.9194  -14.5912    3.1645 C.ar      1 <0>        -0.0879
     21 C16        -1.7475  -15.3227    3.0334 C.ar      1 <0>         0.0950
     22 C17        -0.5176  -14.6882    3.1635 C.ar      1 <0>         0.1042
     23 C18        -0.4663  -13.3293    3.4175 C.ar      1 <0>        -0.1171
     24 F1          0.6259  -15.3965    3.0371 F         1 <0>        -0.1241
     25 N3         -1.8039  -16.6999    2.7705 N.pl3     1 <0>        -0.4215
     26 C19        -1.1186  -17.3712    1.7914 C.2       1 <0>        -0.0449
     27 C20        -1.4638  -18.6689    1.8935 C.2       1 <0>        -0.0204
     28 N4         -2.3354  -18.7919    2.9054 N.2       1 <0>        -0.4823
     29 C21        -2.5433  -17.6202    3.4418 C.2       1 <0>         0.1934
     30 H1          1.0053    1.8021    0.0021 H         1 <0>         0.1051
     31 H2         -0.5445    1.7859   -0.8732 H         1 <0>         0.0624
     32 H3         -0.5275    1.7763    0.9067 H         1 <0>         0.0626
     33 H4          0.8897   -2.3560   -0.0092 H         1 <0>         0.1404
     34 H5          0.7828   -4.8131   -0.0215 H         1 <0>         0.1339
     35 H6         -3.4805   -4.6478   -0.0012 H         1 <0>         0.1350
     36 H7         -3.3966   -2.1898    0.0228 H         1 <0>         0.1397
     37 H8         -2.3187   -6.7070   -0.5301 H         1 <0>         0.0852
     38 H9         -0.5401   -6.7760   -0.5389 H         1 <0>         0.0853
     39 H10        -0.5200   -6.5724    1.9323 H         1 <0>         0.0714
     40 H11        -2.2986   -6.5034    1.9411 H         1 <0>         0.0715
     41 H12        -1.5054   -8.8424    0.5712 H         1 <0>         0.3975
     42 H13        -1.5783  -10.8686    1.7282 H         1 <0>         0.3982
     43 H14        -0.6756  -10.9013    4.4042 H         1 <0>         0.0829
     44 H15        -2.4543  -10.8323    4.4130 H         1 <0>         0.0852
     45 H16        -3.7733  -12.6665    3.5261 H         1 <0>         0.1456
     46 H17        -3.8765  -15.0814    3.0642 H         1 <0>         0.1462
     47 H18         0.4885  -12.8340    3.5145 H         1 <0>         0.1498
     48 H19        -0.4336  -16.9419    1.0752 H         1 <0>         0.1763
     49 H20        -1.1017  -19.4717    1.2683 H         1 <0>         0.1765
     50 H21        -3.1960  -17.4164    4.2778 H         1 <0>         0.2100
@<TRIPOS>BOND
     1    1    2 1
     2    1   30 1
     3    1   31 1
     4    1   32 1
     5    2    3 1
     6    3    4 2
     7    3    5 1
     8    5   10 ar
     9    5    6 ar
    10    6    7 ar
    11    6   33 1
    12    7    8 ar
    13    7   34 1
    14    8    9 ar
    15    8   11 1
    16    9   10 ar
    17    9   35 1
    18   10   36 1
    19   11   12 1
    20   11   37 1
    21   11   38 1
    22   12   13 1
    23   12   39 1
    24   12   40 1
    25   13   14 am
    26   13   41 1
    27   14   15 2
    28   14   16 am
    29   16   17 1
    30   16   42 1
    31   17   18 1
    32   17   43 1
    33   17   44 1
    34   18   23 ar
    35   18   19 ar
    36   19   20 ar
    37   19   45 1
    38   20   21 ar
    39   20   46 1
    40   21   22 ar
    41   21   25 1
    42   22   23 ar
    43   22   24 1
    44   23   47 1
    45   25   29 1
    46   25   26 1
    47   26   27 2
    48   26   48 1
    49   27   28 1
    50   27   49 1
    51   28   29 2
    52   29   50 1
@<TRIPOS>MOLECULE
ZINC08930510
   48    49     0     0     0
SMALL
USER_CHARGES
(2-chloro-3-pyridyl)carbamoylmethyl 2-(4-isopropoxybenzoyl)aminoacetate
@<TRIPOS>ATOM
      1 C1         -3.6171    1.5864   -0.3972 C.3       1 <0>        -0.1830
      2 C2         -2.8225    1.4169   -1.6936 C.3       1 <0>         0.0742
      3 C3         -2.9615    2.6800   -2.5458 C.3       1 <0>        -0.1504
      4 O1         -1.4445    1.2011   -1.3829 O.3       1 <0>        -0.3052
      5 C4         -1.0666   -0.0736   -1.1109 C.ar      1 <0>         0.1655
      6 C5         -2.0247   -1.0767   -1.0225 C.ar      1 <0>        -0.2214
      7 C6         -1.6452   -2.3714   -0.7466 C.ar      1 <0>        -0.0120
      8 C7         -0.2950   -2.6760   -0.5554 C.ar      1 <0>        -0.1815
      9 C8          0.6651   -1.6647   -0.6452 C.ar      1 <0>        -0.0420
     10 C9          0.2776   -0.3726   -0.9214 C.ar      1 <0>        -0.1615
     11 C10         0.1160   -4.0623   -0.2590 C.2       1 <0>         0.5722
     12 O2         -0.7208   -4.9410   -0.1809 O.2       1 <0>        -0.5326
     13 N1          1.4189   -4.3542   -0.0750 N.am      1 <0>        -0.7248
     14 C11         1.8268   -5.7302    0.2192 C.3       1 <0>         0.1307
     15 C12         3.3242   -5.7869    0.3794 C.2       1 <0>         0.4660
     16 O3          3.9830   -4.7811    0.2601 O.2       1 <0>        -0.4998
     17 O4          3.9260   -6.9547    0.6547 O.3       1 <0>        -0.3247
     18 C13         5.3710   -6.9345    0.7955 C.3       1 <0>         0.0509
     19 C14         5.8654   -8.3249    1.1010 C.2       1 <0>         0.5196
     20 O5          5.0775   -9.2426    1.1912 O.2       1 <0>        -0.4865
     21 N2          7.1832   -8.5487    1.2740 N.am      1 <0>        -0.6579
     22 C15         7.6547   -9.8558    1.4448 C.ar      1 <0>         0.1193
     23 C16         6.8687  -10.9441    1.0765 C.ar      1 <0>        -0.0860
     24 C17         7.3804  -12.2185    1.2611 C.ar      1 <0>        -0.1414
     25 C18         8.6407  -12.3677    1.8087 C.ar      1 <0>         0.0989
     26 N3          9.3594  -11.3166    2.1524 N.ar      1 <0>        -0.4534
     27 C19         8.9123  -10.0863    1.9901 C.ar      1 <0>         0.1424
     28 Cl1         9.9044   -8.7420    2.4616 Cl        1 <0>        -0.0263
     29 H1         -3.2311    2.4424    0.1563 H         1 <0>         0.0695
     30 H2         -4.6682    1.7510   -0.6341 H         1 <0>         0.0754
     31 H3         -3.5182    0.6866    0.2099 H         1 <0>         0.0643
     32 H4         -3.2086    0.5609   -2.2471 H         1 <0>         0.0772
     33 H5         -2.3954    2.5593   -3.4694 H         1 <0>         0.0663
     34 H6         -4.0126    2.8446   -2.7827 H         1 <0>         0.0797
     35 H7         -2.5754    3.5360   -1.9923 H         1 <0>         0.0687
     36 H8         -3.0676   -0.8413   -1.1748 H         1 <0>         0.1388
     37 H9         -2.3903   -3.1502   -0.6777 H         1 <0>         0.1409
     38 H10         1.7097   -1.8962   -0.4977 H         1 <0>         0.1339
     39 H11         1.0190    0.4096   -0.9910 H         1 <0>         0.1392
     40 H12         2.0864   -3.6533   -0.1373 H         1 <0>         0.4117
     41 H13         1.3499   -6.0612    1.1418 H         1 <0>         0.1201
     42 H14         1.5241   -6.3820   -0.6003 H         1 <0>         0.1201
     43 H15         5.8217   -6.5845   -0.1332 H         1 <0>         0.1143
     44 H16         5.6475   -6.2637    1.6089 H         1 <0>         0.1132
     45 H17         7.8049   -7.8042    1.2801 H         1 <0>         0.4191
     46 H18         5.8855  -10.7985    0.6539 H         1 <0>         0.1766
     47 H19         6.7994  -13.0856    0.9835 H         1 <0>         0.1509
     48 H20         9.0424  -13.3591    1.9576 H         1 <0>         0.1708
@<TRIPOS>BOND
     1    1    2 1
     2    1   29 1
     3    1   30 1
     4    1   31 1
     5    2    3 1
     6    2    4 1
     7    2   32 1
     8    3   33 1
     9    3   34 1
    10    3   35 1
    11    4    5 1
    12    5   10 ar
    13    5    6 ar
    14    6    7 ar
    15    6   36 1
    16    7    8 ar
    17    7   37 1
    18    8    9 ar
    19    8   11 1
    20    9   10 ar
    21    9   38 1
    22   10   39 1
    23   11   12 2
    24   11   13 am
    25   13   14 1
    26   13   40 1
    27   14   15 1
    28   14   41 1
    29   14   42 1
    30   15   16 2
    31   15   17 1
    32   17   18 1
    33   18   19 1
    34   18   43 1
    35   18   44 1
    36   19   20 2
    37   19   21 am
    38   21   22 1
    39   21   45 1
    40   22   27 ar
    41   22   23 ar
    42   23   24 ar
    43   23   46 1
    44   24   25 ar
    45   24   47 1
    46   25   26 ar
    47   25   48 1
    48   26   27 ar
    49   27   28 1
@<TRIPOS>MOLECULE
ZINC15978069
   50    51     0     0     0
SMALL
USER_CHARGES
(E)-N'-[2-(2-cyanophenoxy)acetyl]-3-(3-ethoxy-4-methoxy-phenyl)prop-2-enehydrazide
@<TRIPOS>ATOM
      1 C1         -0.0127    1.0858    0.0080 C.3       1 <0>        -0.1524
      2 C2         -0.7288    1.5792    1.2668 C.3       1 <0>         0.0514
      3 O1         -0.0377    1.1059    2.4245 O.3       1 <0>        -0.3036
      4 C3         -0.5479    1.4577    3.6351 C.ar      1 <0>         0.1003
      5 C4         -1.6814    2.2434    3.7044 C.ar      1 <0>        -0.1452
      6 C5         -2.2068    2.5988    4.9520 C.ar      1 <0>        -0.0849
      7 C6         -1.5738    2.1654    6.1225 C.ar      1 <0>        -0.0886
      8 C7         -0.4402    1.3867    6.0441 C.ar      1 <0>        -0.1782
      9 C8          0.0771    1.0298    4.8058 C.ar      1 <0>         0.1194
     10 O2          1.1953    0.2622    4.7348 O.3       1 <0>        -0.3021
     11 C9          1.7849   -0.1413    5.9724 C.3       1 <0>         0.0235
     12 C10        -3.4166    3.4299    5.0328 C.2       1 <0>         0.0107
     13 C11        -3.9185    3.7761    6.2370 C.2       1 <0>        -0.2208
     14 C12        -5.1222    4.6030    6.3173 C.2       1 <0>         0.5557
     15 O3         -5.6714    4.9790    5.2982 O.2       1 <0>        -0.5441
     16 N1         -5.6234    4.9486    7.5197 N.am      1 <0>        -0.5163
     17 N2         -6.7764    5.7407    7.5967 N.am      1 <0>        -0.5186
     18 C13        -7.2776    6.0863    8.7991 C.2       1 <0>         0.5154
     19 O4         -6.7304    5.7117    9.8145 O.2       1 <0>        -0.5083
     20 C14        -8.5178    6.9383    8.8818 C.3       1 <0>         0.0508
     21 O5         -8.8482    7.1668   10.2532 O.3       1 <0>        -0.2834
     22 C15        -9.9473    7.9221   10.5046 C.ar      1 <0>         0.1729
     23 C16       -10.6917    8.4391    9.4555 C.ar      1 <0>        -0.2115
     24 C17       -11.8131    9.2032    9.7126 C.ar      1 <0>        -0.0471
     25 C18       -12.1967    9.4677   11.0171 C.ar      1 <0>        -0.1539
     26 C19       -11.4652    8.9665   12.0722 C.ar      1 <0>        -0.0307
     27 C20       -10.3317    8.1877   11.8261 C.ar      1 <0>        -0.0536
     28 C21        -9.5668    7.6642   12.9177 C.1       1 <0>         0.2546
     29 N3         -8.9600    7.2489   13.7836 N.1       1 <0>        -0.4064
     30 H1          0.0021   -0.0041    0.0020 H         1 <0>         0.0672
     31 H2          1.0099    1.4631    0.0003 H         1 <0>         0.0672
     32 H3         -0.5399    1.4469   -0.8751 H         1 <0>         0.0797
     33 H4         -0.7436    2.6691    1.2728 H         1 <0>         0.0629
     34 H5         -1.7514    1.2020    1.2746 H         1 <0>         0.0629
     35 H6         -2.1636    2.5793    2.7983 H         1 <0>         0.1419
     36 H7         -1.9740    2.4411    7.0870 H         1 <0>         0.1347
     37 H8          0.0473    1.0524    6.9480 H         1 <0>         0.1412
     38 H9          2.6683   -0.7480    5.7733 H         1 <0>         0.1036
     39 H10         2.0717    0.7418    6.5433 H         1 <0>         0.0577
     40 H11         1.0643   -0.7257    6.5446 H         1 <0>         0.0577
     41 H12        -3.9039    3.7635    4.1285 H         1 <0>         0.1387
     42 H13        -3.4313    3.4425    7.1413 H         1 <0>         0.1366
     43 H14        -5.1857    4.6490    8.3319 H         1 <0>         0.4352
     44 H15        -7.2140    6.0403    6.7845 H         1 <0>         0.4347
     45 H16        -8.3365    7.8929    8.3879 H         1 <0>         0.1076
     46 H17        -9.3443    6.4257    8.3896 H         1 <0>         0.1076
     47 H18       -10.3966    8.2407    8.4357 H         1 <0>         0.1401
     48 H19       -12.3919    9.6002    8.8919 H         1 <0>         0.1367
     49 H20       -13.0728   10.0696   11.2082 H         1 <0>         0.1383
     50 H21       -11.7676    9.1758   13.0876 H         1 <0>         0.1426
@<TRIPOS>BOND
     1    1    2 1
     2    1   30 1
     3    1   31 1
     4    1   32 1
     5    2    3 1
     6    2   33 1
     7    2   34 1
     8    3    4 1
     9    4    9 ar
    10    4    5 ar
    11    5    6 ar
    12    5   35 1
    13    6    7 ar
    14    6   12 1
    15    7    8 ar
    16    7   36 1
    17    8    9 ar
    18    8   37 1
    19    9   10 1
    20   10   11 1
    21   11   38 1
    22   11   39 1
    23   11   40 1
    24   12   13 2
    25   12   41 1
    26   13   14 1
    27   13   42 1
    28   14   15 2
    29   14   16 am
    30   16   17 1
    31   16   43 1
    32   17   18 am
    33   17   44 1
    34   18   19 2
    35   18   20 1
    36   20   21 1
    37   20   45 1
    38   20   46 1
    39   21   22 1
    40   22   27 ar
    41   22   23 ar
    42   23   24 ar
    43   23   47 1
    44   24   25 ar
    45   24   48 1
    46   25   26 ar
    47   25   49 1
    48   26   27 ar
    49   26   50 1
    50   27   28 1
    51   28   29 3
@<TRIPOS>MOLECULE
ZINC02621645
   47    49     0     0     0
SMALL
USER_CHARGES

@<TRIPOS>ATOM
      1 C1         -0.0164    1.3570    0.0095 C.ar      1 <0>        -0.1083
      2 C2          1.1559    2.1003    0.0023 C.ar      1 <0>        -0.0966
      3 C3          2.3751    1.4492   -0.0129 C.ar      1 <0>        -0.0641
      4 C4          2.4044    0.0758   -0.0205 C.ar      1 <0>        -0.1678
      5 C5          1.2262   -0.7047   -0.0135 C.ar      1 <0>         0.0805
      6 C6          0.0021   -0.0041    0.0020 C.ar      1 <0>        -0.0607
      7 N1          1.4635   -2.0326   -0.0233 N.2       1 <0>        -0.5103
      8 C7          2.6693   -2.5212   -0.0378 C.2       1 <0>         0.1051
      9 S1          3.6694   -1.1675   -0.0399 S.3       1 <0>         0.0857
     10 C8          3.0782   -3.9717   -0.0496 C.3       1 <0>        -0.0361
     11 C9          3.2023   -4.4548   -1.4960 C.3       1 <0>        -0.1052
     12 C10         3.6174   -5.9274   -1.5079 C.3       1 <0>        -0.1108
     13 C11         3.7396   -6.4033   -2.9325 C.2       1 <0>         0.4668
     14 O1          3.5175   -5.6428   -3.8447 O.2       1 <0>        -0.5012
     15 O2          4.0952   -7.6722   -3.1881 O.3       1 <0>        -0.3296
     16 C12         4.1916   -8.0548   -4.5615 C.3       1 <0>         0.0511
     17 C13         4.5991   -9.5029   -4.6521 C.2       1 <0>         0.5190
     18 O3          4.7883  -10.1438   -3.6406 O.2       1 <0>        -0.4384
     19 N2          4.7532  -10.0854   -5.8577 N.am      1 <0>        -0.6875
     20 C14         5.1177  -11.3804   -5.9387 C.2       1 <0>         0.6995
     21 O4          5.3073  -12.0229   -4.9247 O.2       1 <0>        -0.5232
     22 N3          5.2718  -11.9629   -7.1443 N.am      1 <0>        -0.7348
     23 C15         5.6680  -13.3706   -7.2324 C.3       1 <0>         0.2204
     24 C16         5.7696  -13.7741   -8.6808 C.2       1 <0>        -0.0460
     25 C17         6.8742  -13.6937   -9.4441 C.2       1 <0>        -0.1765
     26 C18         6.5220  -14.1743  -10.7263 C.2       1 <0>        -0.2190
     27 C19         5.2232  -14.5196  -10.6697 C.2       1 <0>        -0.0231
     28 O5          4.7742  -14.2805   -9.4268 O.3       1 <0>        -0.1709
     29 H1         -0.9661    1.8710    0.0259 H         1 <0>         0.1356
     30 H2          1.1157    3.1795    0.0081 H         1 <0>         0.1397
     31 H3          3.2953    2.0145   -0.0190 H         1 <0>         0.1351
     32 H4         -0.9285   -0.5522    0.0083 H         1 <0>         0.1334
     33 H5          4.0384   -4.0826    0.4542 H         1 <0>         0.0999
     34 H6          2.3252   -4.5656    0.4686 H         1 <0>         0.1057
     35 H7          2.2421   -4.3439   -1.9997 H         1 <0>         0.0830
     36 H8          3.9552   -3.8609   -2.0141 H         1 <0>         0.0801
     37 H9          4.5776   -6.0383   -1.0041 H         1 <0>         0.1156
     38 H10         2.8644   -6.5213   -0.9898 H         1 <0>         0.1160
     39 H11         3.2244   -7.9186   -5.0454 H         1 <0>         0.1077
     40 H12         4.9375   -7.4356   -5.0597 H         1 <0>         0.1078
     41 H13         4.6019   -9.5726   -6.6670 H         1 <0>         0.4131
     42 H14         5.1205  -11.4501   -7.9536 H         1 <0>         0.4030
     43 H15         6.6351  -13.5068   -6.7485 H         1 <0>         0.1043
     44 H16         4.9220  -13.9898   -6.7342 H         1 <0>         0.0901
     45 H17         7.8440  -13.3310   -9.1368 H         1 <0>         0.1525
     46 H18         7.1711  -14.2493  -11.5862 H         1 <0>         0.1525
     47 H19         4.6412  -14.9243  -11.4845 H         1 <0>         0.2068
@<TRIPOS>BOND
     1    1    6 ar
     2    1    2 ar
     3    1   29 1
     4    2    3 ar
     5    2   30 1
     6    3    4 ar
     7    3   31 1
     8    4    9 1
     9    4    5 ar
    10    5    6 ar
    11    5    7 1
    12    6   32 1
    13    7    8 2
    14    8    9 1
    15    8   10 1
    16   10   11 1
    17   10   33 1
    18   10   34 1
    19   11   12 1
    20   11   35 1
    21   11   36 1
    22   12   13 1
    23   12   37 1
    24   12   38 1
    25   13   14 2
    26   13   15 1
    27   15   16 1
    28   16   17 1
    29   16   39 1
    30   16   40 1
    31   17   18 2
    32   17   19 am
    33   19   20 am
    34   19   41 1
    35   20   21 2
    36   20   22 am
    37   22   23 1
    38   22   42 1
    39   23   24 1
    40   23   43 1
    41   23   44 1
    42   24   28 1
    43   24   25 2
    44   25   26 1
    45   25   45 1
    46   26   27 2
    47   26   46 1
    48   27   28 1
    49   27   47 1
@<TRIPOS>MOLECULE
ZINC13152346
   60    62     0     0     0
SMALL
USER_CHARGES

@<TRIPOS>ATOM
      1 C1         -0.0184    1.5028    0.0103 C.3       1 <0>        -0.0732
      2 C2          0.0021   -0.0041    0.0020 C.2       1 <0>         0.0741
      3 C3          0.0080   -0.8179   -1.1355 C.2       1 <0>        -0.2690
      4 C4          0.0282   -2.1072   -0.7249 C.2       1 <0>         0.0815
      5 N1          0.0348   -2.1090    0.6245 N.pl3     1 <0>        -0.3663
      6 N2          0.0231   -0.7768    1.0576 N.2       1 <0>        -0.2844
      7 C5          0.0550   -3.2948    1.4847 C.3       1 <0>         0.1045
      8 C6          1.5043   -3.6881    1.7771 C.3       1 <0>         0.0963
      9 H1          2.0407   -3.8233    0.8379 H         1 <0>         0.1128
     10 C7          1.5277   -4.9961    2.5706 C.3       1 <0>         0.0297
     11 O1          2.8800   -5.4244    2.7432 O.3       1 <0>        -0.3014
     12 C8          3.0784   -6.5797    3.4325 C.ar      1 <0>         0.0934
     13 C9          1.9928   -7.2876    3.9266 C.ar      1 <0>        -0.1682
     14 C10         2.1944   -8.4611    4.6268 C.ar      1 <0>        -0.1082
     15 C11         3.4823   -8.9317    4.8354 C.ar      1 <0>         0.0935
     16 C12         4.5678   -8.2242    4.3406 C.ar      1 <0>        -0.1683
     17 C13         4.3660   -7.0530    3.6367 C.ar      1 <0>        -0.1082
     18 O2          3.6808  -10.0865    5.5255 O.3       1 <0>        -0.3015
     19 C14         5.0334  -10.5120    5.7029 C.3       1 <0>         0.0297
     20 C15         5.0567  -11.8198    6.4965 C.3       1 <0>         0.0963
     21 H2          4.5168  -11.6857    7.4339 H         1 <0>         0.1129
     22 C16         6.5059  -12.2101    6.7940 C.3       1 <0>         0.1045
     23 N3          6.5255  -13.3958    7.6543 N.pl3     1 <0>        -0.3663
     24 C17         6.5220  -13.3976    9.0038 C.2       1 <0>         0.0815
     25 C18         6.5443  -14.6867    9.4145 C.2       1 <0>        -0.2689
     26 C19         6.5620  -15.5006    8.2771 C.2       1 <0>         0.0741
     27 N4          6.5452  -14.7279    7.2214 N.2       1 <0>        -0.2845
     28 C20         6.5898  -17.0073    8.2690 C.3       1 <0>        -0.0732
     29 C21         6.4981  -12.1818    9.8939 C.3       1 <0>        -0.0949
     30 O3          4.4327  -12.8527    5.7311 O.3       1 <0>        -0.5359
     31 O4          2.1331   -2.6566    2.5404 O.3       1 <0>        -0.5359
     32 C22         0.0406   -3.3230   -1.6152 C.3       1 <0>        -0.0949
     33 H3          1.0042    1.8801    0.0026 H         1 <0>         0.0770
     34 H4         -0.5455    1.8639   -0.8728 H         1 <0>         0.0773
     35 H5         -0.5286    1.8543    0.9071 H         1 <0>         0.0718
     36 H6         -0.0023   -0.4776   -2.1604 H         1 <0>         0.1467
     37 H7         -0.4573   -3.0732    2.4209 H         1 <0>         0.1029
     38 H8         -0.4503   -4.1183    0.9801 H         1 <0>         0.1045
     39 H9          1.0695   -4.8370    3.5467 H         1 <0>         0.0706
     40 H10         0.9709   -5.7601    2.0280 H         1 <0>         0.0745
     41 H11         0.9900   -6.9212    3.7641 H         1 <0>         0.1340
     42 H12         1.3491   -9.0120    5.0121 H         1 <0>         0.1354
     43 H13         5.5707   -8.5905    4.5034 H         1 <0>         0.1341
     44 H14         5.2111   -6.5040    3.2482 H         1 <0>         0.1354
     45 H15         5.4953  -10.6701    4.7283 H         1 <0>         0.0706
     46 H16         5.5866   -9.7467    6.2473 H         1 <0>         0.0746
     47 H17         7.0219  -12.4307    5.8595 H         1 <0>         0.1030
     48 H18         7.0076  -11.3855    7.3003 H         1 <0>         0.1044
     49 H19         6.5483  -15.0271   10.4395 H         1 <0>         0.1467
     50 H20         5.5690  -17.3895    8.2646 H         1 <0>         0.0770
     51 H21         7.1123  -17.3563    7.3783 H         1 <0>         0.0718
     52 H22         7.1082  -17.3659    9.1582 H         1 <0>         0.0773
     53 H23         5.4648  -11.9069   10.1058 H         1 <0>         0.0812
     54 H24         7.0135  -12.4052   10.8280 H         1 <0>         0.0877
     55 H25         6.9986  -11.3539    9.3917 H         1 <0>         0.0687
     56 H26         4.8615  -13.0266    4.8820 H         1 <0>         0.3770
     57 H27         1.7077   -2.4819    3.3911 H         1 <0>         0.3770
     58 H28         1.0711   -3.6021   -1.8348 H         1 <0>         0.0812
     59 H29        -0.4595   -4.1489   -1.1092 H         1 <0>         0.0686
     60 H30        -0.4810   -3.0976   -2.5454 H         1 <0>         0.0877
@<TRIPOS>BOND
     1    1    2 1
     2    1   33 1
     3    1   34 1
     4    1   35 1
     5    2    6 2
     6    2    3 1
     7    3    4 2
     8    3   36 1
     9    4    5 1
    10    4   32 1
    11    5    6 1
    12    5    7 1
    13    7    8 1
    14    7   37 1
    15    7   38 1
    16    8    9 1
    17    8   10 1
    18    8   31 1
    19   10   11 1
    20   10   39 1
    21   10   40 1
    22   11   12 1
    23   12   17 ar
    24   12   13 ar
    25   13   14 ar
    26   13   41 1
    27   14   15 ar
    28   14   42 1
    29   15   16 ar
    30   15   18 1
    31   16   17 ar
    32   16   43 1
    33   17   44 1
    34   18   19 1
    35   19   20 1
    36   19   45 1
    37   19   46 1
    38   20   21 1
    39   20   22 1
    40   20   30 1
    41   22   23 1
    42   22   47 1
    43   22   48 1
    44   23   27 1
    45   23   24 1
    46   24   25 2
    47   24   29 1
    48   25   26 1
    49   25   49 1
    50   26   27 2
    51   26   28 1
    52   28   50 1
    53   28   51 1
    54   28   52 1
    55   29   53 1
    56   29   54 1
    57   29   55 1
    58   30   56 1
    59   31   57 1
    60   32   58 1
    61   32   59 1
    62   32   60 1
@<TRIPOS>MOLECULE
ZINC67569766
   58    60     0     0     0
SMALL
USER_CHARGES

@<TRIPOS>ATOM
      1 C1         -2.4210    0.8287   -1.9021 C.3       1 <0>        -0.1506
      2 C2         -1.8970   -0.5540   -1.5090 C.3       1 <0>        -0.1243
      3 C3         -0.6904   -0.9088   -2.3802 C.3       1 <0>         0.0596
      4 O1         -0.2010   -2.2002   -2.0130 O.3       1 <0>        -0.3160
      5 C4          0.8770   -2.6689   -2.6961 C.ar      1 <0>         0.1154
      6 C5          1.4548   -1.9005   -3.6938 C.ar      1 <0>        -0.1930
      7 C6          2.5512   -2.3782   -4.3872 C.ar      1 <0>        -0.0862
      8 C7          3.0749   -3.6229   -4.0884 C.ar      1 <0>        -0.1391
      9 C8          2.5051   -4.3958   -3.0950 C.ar      1 <0>        -0.0810
     10 C9          1.4073   -3.9210   -2.3907 C.ar      1 <0>         0.1041
     11 N1          0.8317   -4.6992   -1.3809 N.am      1 <0>        -0.6311
     12 C10         0.7970   -6.0411   -1.5014 C.2       1 <0>         0.5075
     13 O2          1.3364   -6.5799   -2.4460 O.2       1 <0>        -0.5034
     14 C11         0.0949   -6.8652   -0.4729 C.2       1 <0>         0.5119
     15 O3         -0.4445   -6.3266    0.4716 O.2       1 <0>        -0.5117
     16 N2          0.0601   -8.2072   -0.5933 N.am      1 <0>        -0.6990
     17 C12        -0.6287   -9.0156    0.4157 C.3       1 <0>         0.1183
     18 C13        -0.5199  -10.4959    0.0444 C.3       1 <0>        -0.1287
     19 C14        -1.2392  -11.3402    1.0983 C.3       1 <0>        -0.0273
     20 C15        -1.1320  -12.7982    0.7326 C.2       1 <0>         0.1716
     21 N3         -1.9663  -13.4751   -0.0115 N.2       1 <0>        -0.2891
     22 N4         -1.5606  -14.6921   -0.1215 N.2       1 <0>        -0.2920
     23 C16        -0.4506  -14.8431    0.5430 C.2       1 <0>         0.1816
     24 N5         -0.1520  -13.6498    1.1077 N.pl3     1 <0>        -0.4657
     25 C17         0.9955  -13.3553    1.9664 C.3       1 <0>         0.1020
     26 C18         2.1532  -14.2902    1.6058 C.3       1 <0>        -0.1413
     27 C19         2.0575  -15.5714    2.4330 C.3       1 <0>        -0.1255
     28 C20         0.7559  -16.3073    2.1300 C.3       1 <0>        -0.1246
     29 C21         0.3735  -16.0985    0.6667 C.3       1 <0>        -0.0379
     30 H1         -1.6359    1.5702   -1.7546 H         1 <0>         0.0581
     31 H2         -2.7199    0.8195   -2.9503 H         1 <0>         0.0580
     32 H3         -3.2807    1.0814   -1.2814 H         1 <0>         0.0661
     33 H4         -1.5982   -0.5448   -0.4608 H         1 <0>         0.0746
     34 H5         -2.6822   -1.2955   -1.6564 H         1 <0>         0.0742
     35 H6         -0.9892   -0.9180   -3.4284 H         1 <0>         0.0640
     36 H7          0.0948   -0.1673   -2.2327 H         1 <0>         0.0643
     37 H8          1.0484   -0.9282   -3.9301 H         1 <0>         0.1338
     38 H9          3.0000   -1.7778   -5.1648 H         1 <0>         0.1291
     39 H10         3.9314   -3.9918   -4.6332 H         1 <0>         0.1307
     40 H11         2.9162   -5.3674   -2.8638 H         1 <0>         0.1468
     41 H12         0.4576   -4.2731   -0.5940 H         1 <0>         0.4259
     42 H13         0.4911   -8.6377   -1.3482 H         1 <0>         0.4148
     43 H14        -0.1683   -8.8505    1.3898 H         1 <0>         0.0780
     44 H15        -1.6792   -8.7276    0.4569 H         1 <0>         0.0815
     45 H16        -0.9803  -10.6610   -0.9296 H         1 <0>         0.0845
     46 H17         0.5306  -10.7839    0.0033 H         1 <0>         0.0718
     47 H18        -0.7788  -11.1751    2.0723 H         1 <0>         0.0868
     48 H19        -2.2897  -11.0522    1.1394 H         1 <0>         0.1066
     49 H20         1.3042  -12.3204    1.8184 H         1 <0>         0.0962
     50 H21         0.7174  -13.5064    3.0094 H         1 <0>         0.0909
     51 H22         2.1023  -14.5384    0.5457 H         1 <0>         0.0815
     52 H23         3.1000  -13.7927    1.8161 H         1 <0>         0.0899
     53 H24         2.9010  -16.2186    2.1926 H         1 <0>         0.0751
     54 H25         2.0895  -15.3186    3.4928 H         1 <0>         0.0707
     55 H26         0.8877  -17.3721    2.3219 H         1 <0>         0.0826
     56 H27        -0.0376  -15.9193    2.7687 H         1 <0>         0.0644
     57 H28        -0.2052  -16.9509    0.3109 H         1 <0>         0.1018
     58 H29         1.2813  -15.9987    0.0718 H         1 <0>         0.0927
@<TRIPOS>BOND
     1    1    2 1
     2    1   30 1
     3    1   31 1
     4    1   32 1
     5    2    3 1
     6    2   33 1
     7    2   34 1
     8    3    4 1
     9    3   35 1
    10    3   36 1
    11    4    5 1
    12    5   10 ar
    13    5    6 ar
    14    6    7 ar
    15    6   37 1
    16    7    8 ar
    17    7   38 1
    18    8    9 ar
    19    8   39 1
    20    9   10 ar
    21    9   40 1
    22   10   11 1
    23   11   12 am
    24   11   41 1
    25   12   13 2
    26   12   14 1
    27   14   15 2
    28   14   16 am
    29   16   17 1
    30   16   42 1
    31   17   18 1
    32   17   43 1
    33   17   44 1
    34   18   19 1
    35   18   45 1
    36   18   46 1
    37   19   20 1
    38   19   47 1
    39   19   48 1
    40   20   24 1
    41   20   21 2
    42   21   22 1
    43   22   23 2
    44   23   29 1
    45   23   24 1
    46   24   25 1
    47   25   26 1
    48   25   49 1
    49   25   50 1
    50   26   27 1
    51   26   51 1
    52   26   52 1
    53   27   28 1
    54   27   53 1
    55   27   54 1
    56   28   29 1
    57   28   55 1
    58   28   56 1
    59   29   57 1
    60   29   58 1
@<TRIPOS>MOLECULE
ZINC11402374
   58    60     0     0     0
SMALL
USER_CHARGES
ethyl 4-methyl-5-(methylcarbamoyl)-2-[2-(2-norbornan-2-ylacetyl)oxyacetyl]amino-thiophene-3-carboxylate
@<TRIPOS>ATOM
      1 C1         -8.7657    1.6750   -2.4494 C.3       1 <0>        -0.1537
      2 C2         -8.1992    1.4951   -1.0395 C.3       1 <0>         0.0578
      3 O1         -6.8139    1.0687   -1.1253 O.3       1 <0>        -0.3482
      4 C3         -6.1633    0.8638    0.0379 C.2       1 <0>         0.5321
      5 O2         -6.7387    1.0370    1.0951 O.2       1 <0>        -0.4882
      6 C4         -4.7612    0.4320    0.0280 C.2       1 <0>        -0.2158
      7 C5         -3.7262    1.3553    0.0327 C.2       1 <0>         0.0244
      8 C6         -2.4454    0.8744    0.0184 C.2       1 <0>        -0.2934
      9 S1         -2.6893   -0.8915    0.0106 S.3       1 <0>         0.2933
     10 C7         -4.4223   -0.9252    0.0193 C.2       1 <0>         0.1017
     11 N1         -5.2618   -2.0220    0.0173 N.am      1 <0>        -0.6126
     12 C8         -4.7446   -3.2665    0.0080 C.2       1 <0>         0.5126
     13 O3         -3.5422   -3.4234    0.0013 O.2       1 <0>        -0.4666
     14 C9         -5.6606   -4.4632    0.0058 C.3       1 <0>         0.0555
     15 O4         -4.8678   -5.6796   -0.0047 O.3       1 <0>        -0.3341
     16 C10        -5.5370   -6.8432   -0.0079 C.2       1 <0>         0.4649
     17 O5         -6.7452   -6.8452   -0.0021 O.2       1 <0>        -0.4972
     18 C11        -4.7813   -8.1470   -0.0187 C.3       1 <0>        -0.1059
     19 C12        -5.7736   -9.3116   -0.0203 C.3       1 <0>        -0.0788
     20 H1         -6.4600   -9.2237   -0.8625 H         1 <0>         0.0834
     21 C13        -6.5573   -9.3537    1.3114 C.3       1 <0>        -0.1088
     22 C14        -6.1978  -10.7361    1.9368 C.3       1 <0>        -0.1080
     23 H2         -6.3786  -10.8364    3.0070 H         1 <0>         0.0978
     24 C15        -6.9160  -11.7762    1.0237 C.3       1 <0>        -0.1230
     25 C16        -6.1324  -11.7340   -0.3081 C.3       1 <0>        -0.1209
     26 C17        -5.0145  -10.6725   -0.0742 C.3       1 <0>        -0.0983
     27 H3         -4.1647  -10.7174   -0.7554 H         1 <0>         0.1019
     28 C18        -4.7146  -10.8979    1.4498 C.3       1 <0>        -0.1255
     29 C19        -1.1873    1.6238    0.0165 C.2       1 <0>         0.6099
     30 O6         -1.2038    2.8409    0.0232 O.2       1 <0>        -0.5204
     31 N2         -0.0111    0.9658    0.0074 N.am      1 <0>        -0.7308
     32 C20         1.2475    1.7155   -0.0006 C.3       1 <0>         0.0882
     33 C21        -4.0029    2.8366    0.0492 C.3       1 <0>        -0.1169
     34 H4         -8.1855    2.4295   -2.9805 H         1 <0>         0.0691
     35 H5         -8.7094    0.7285   -2.9870 H         1 <0>         0.0670
     36 H6         -9.8056    1.9950   -2.3850 H         1 <0>         0.0830
     37 H7         -8.7794    0.7405   -0.5084 H         1 <0>         0.0718
     38 H8         -8.2554    2.4416   -0.5019 H         1 <0>         0.0742
     39 H9         -6.2237   -1.8965    0.0226 H         1 <0>         0.4257
     40 H10        -6.2852   -4.4443    0.8989 H         1 <0>         0.1140
     41 H11        -6.2938   -4.4345   -0.8810 H         1 <0>         0.1142
     42 H12        -4.1589   -8.1988   -0.9120 H         1 <0>         0.1104
     43 H13        -4.1503   -8.2085    0.8679 H         1 <0>         0.1105
     44 H14        -6.2356   -8.5447    1.9673 H         1 <0>         0.0587
     45 H15        -7.6289   -9.2865    1.1240 H         1 <0>         0.0699
     46 H16        -6.8615  -12.7712    1.4654 H         1 <0>         0.0627
     47 H17        -7.9552  -11.4884    0.8644 H         1 <0>         0.0643
     48 H18        -5.6926  -12.7084   -0.5211 H         1 <0>         0.0654
     49 H19        -6.7862  -11.4265   -1.1241 H         1 <0>         0.0650
     50 H20        -4.0638  -10.1241    1.8572 H         1 <0>         0.0694
     51 H21        -4.3264  -11.8972    1.6466 H         1 <0>         0.0715
     52 H22         0.0021   -0.0041    0.0020 H         1 <0>         0.4005
     53 H23         2.0855    1.0186   -0.0124 H         1 <0>         0.0795
     54 H24         1.2883    2.3477   -0.8877 H         1 <0>         0.0644
     55 H25         1.3053    2.3381    0.8922 H         1 <0>         0.0643
     56 H26        -4.0777    3.2037   -0.9744 H         1 <0>         0.0842
     57 H27        -4.9403    3.0254    0.5723 H         1 <0>         0.0629
     58 H28        -3.1906    3.3522    0.5617 H         1 <0>         0.1011
@<TRIPOS>BOND
     1    1    2 1
     2    1   34 1
     3    1   35 1
     4    1   36 1
     5    2    3 1
     6    2   37 1
     7    2   38 1
     8    3    4 1
     9    4    5 2
    10    4    6 1
    11    6   10 2
    12    6    7 1
    13    7    8 2
    14    7   33 1
    15    8    9 1
    16    8   29 1
    17    9   10 1
    18   10   11 1
    19   11   12 am
    20   11   39 1
    21   12   13 2
    22   12   14 1
    23   14   15 1
    24   14   40 1
    25   14   41 1
    26   15   16 1
    27   16   17 2
    28   16   18 1
    29   18   19 1
    30   18   42 1
    31   18   43 1
    32   19   20 1
    33   19   26 1
    34   19   21 1
    35   21   22 1
    36   21   44 1
    37   21   45 1
    38   22   23 1
    39   22   28 1
    40   22   24 1
    41   24   25 1
    42   24   46 1
    43   24   47 1
    44   25   26 1
    45   25   48 1
    46   25   49 1
    47   26   27 1
    48   26   28 1
    49   28   50 1
    50   28   51 1
    51   29   30 2
    52   29   31 am
    53   31   32 1
    54   31   52 1
    55   32   53 1
    56   32   54 1
    57   32   55 1
    58   33   56 1
    59   33   57 1
    60   33   58 1
@<TRIPOS>MOLECULE
ZINC16160825
   55    57     0     0     0
SMALL
USER_CHARGES
[2-[(3-amino-3-oxo-propyl)-phenyl-amino]-2-oxo-ethyl] 2-[(4-methylphenoxy)methyl]thiazole-4-carboxylate
@<TRIPOS>ATOM
      1 C1          1.9361   -3.7194    1.2701 C.3       1 <0>        -0.1122
      2 C2          0.7573   -2.7859    1.1686 C.ar      1 <0>        -0.1209
      3 C3         -0.5142   -3.2459    1.4576 C.ar      1 <0>        -0.0800
      4 C4         -1.5963   -2.3921    1.3657 C.ar      1 <0>        -0.1424
      5 C5         -1.4064   -1.0722    0.9831 C.ar      1 <0>         0.1235
      6 C6         -0.1296   -0.6131    0.6937 C.ar      1 <0>        -0.2038
      7 C7          0.9492   -1.4709    0.7871 C.ar      1 <0>        -0.0796
      8 O1         -2.4700   -0.2318    0.8865 O.3       1 <0>        -0.3084
      9 C8         -2.1998    1.1134    0.4871 C.3       1 <0>         0.1544
     10 C9         -3.4897    1.8909    0.4357 C.2       1 <0>         0.0551
     11 N1         -4.0693    2.5738    1.3883 N.2       1 <0>        -0.4315
     12 C10        -5.2200    3.2056    1.1501 C.2       1 <0>         0.0083
     13 C11        -5.7545    3.0960   -0.1093 C.2       1 <0>        -0.1571
     14 S1         -4.5773    2.0956   -0.8992 S.3       1 <0>         0.1895
     15 C12        -5.8934    3.9862    2.1995 C.2       1 <0>         0.5476
     16 O2         -6.9435    4.5492    1.9589 O.2       1 <0>        -0.4961
     17 O3         -5.3460    4.0772    3.4280 O.3       1 <0>        -0.3094
     18 C13        -6.0654    4.8639    4.4137 C.3       1 <0>         0.0495
     19 C14        -5.3080    4.8514    5.7165 C.2       1 <0>         0.5236
     20 O4         -4.2203    4.3187    5.7805 O.2       1 <0>        -0.4919
     21 N2         -5.8393    5.4322    6.8105 N.am      1 <0>        -0.5673
     22 C15        -5.0567    5.5212    8.0457 C.3       1 <0>         0.1324
     23 C16        -4.2612    6.8281    8.0524 C.3       1 <0>        -0.1605
     24 C17        -3.4561    6.9196    9.3231 C.2       1 <0>         0.5238
     25 O5         -3.5131    6.0275   10.1426 O.2       1 <0>        -0.5406
     26 N3         -2.6729    7.9930    9.5487 N.am      1 <0>        -0.8553
     27 C18        -7.1384    5.9502    6.7665 C.ar      1 <0>         0.1175
     28 C19        -7.4188    7.0598    5.9800 C.ar      1 <0>        -0.1270
     29 C20        -8.7034    7.5652    5.9343 C.ar      1 <0>        -0.1025
     30 C21        -9.7074    6.9741    6.6791 C.ar      1 <0>        -0.1136
     31 C22        -9.4301    5.8728    7.4680 C.ar      1 <0>        -0.1034
     32 C23        -8.1489    5.3592    7.5137 C.ar      1 <0>        -0.1154
     33 H1          2.0933   -4.2118    0.3105 H         1 <0>         0.0692
     34 H2          2.8272   -3.1515    1.5375 H         1 <0>         0.0656
     35 H3          1.7402   -4.4700    2.0359 H         1 <0>         0.0661
     36 H4         -0.6615   -4.2736    1.7550 H         1 <0>         0.1306
     37 H5         -2.5892   -2.7517    1.5918 H         1 <0>         0.1318
     38 H6          0.0208    0.4141    0.3960 H         1 <0>         0.1293
     39 H7          1.9434   -1.1139    0.5622 H         1 <0>         0.1265
     40 H8         -1.5244    1.5772    1.2060 H         1 <0>         0.1033
     41 H9         -1.7361    1.1133   -0.4994 H         1 <0>         0.0962
     42 H10        -6.6659    3.5203   -0.5041 H         1 <0>         0.2173
     43 H11        -6.1619    5.8902    4.0594 H         1 <0>         0.1065
     44 H12        -7.0569    4.4373    4.5658 H         1 <0>         0.1041
     45 H13        -5.7286    5.5004    8.9038 H         1 <0>         0.0934
     46 H14        -4.3693    4.6771    8.1020 H         1 <0>         0.1020
     47 H15        -3.5893    6.8489    7.1944 H         1 <0>         0.1001
     48 H16        -4.9486    7.6722    7.9962 H         1 <0>         0.0988
     49 H17        -2.6274    8.7066    8.8933 H         1 <0>         0.4024
     50 H18        -2.1547    8.0519   10.3666 H         1 <0>         0.4039
     51 H19        -6.6341    7.5246    5.4015 H         1 <0>         0.1263
     52 H20        -8.9230    8.4256    5.3196 H         1 <0>         0.1306
     53 H21       -10.7102    7.3737    6.6448 H         1 <0>         0.1286
     54 H22       -10.2164    5.4136    8.0489 H         1 <0>         0.1308
     55 H23        -7.9329    4.4990    8.1301 H         1 <0>         0.1300
@<TRIPOS>BOND
     1    1    2 1
     2    1   33 1
     3    1   34 1
     4    1   35 1
     5    2    7 ar
     6    2    3 ar
     7    3    4 ar
     8    3   36 1
     9    4    5 ar
    10    4   37 1
    11    5    6 ar
    12    5    8 1
    13    6    7 ar
    14    6   38 1
    15    7   39 1
    16    8    9 1
    17    9   10 1
    18    9   40 1
    19    9   41 1
    20   10   14 1
    21   10   11 2
    22   11   12 1
    23   12   13 2
    24   12   15 1
    25   13   14 1
    26   13   42 1
    27   15   16 2
    28   15   17 1
    29   17   18 1
    30   18   19 1
    31   18   43 1
    32   18   44 1
    33   19   20 2
    34   19   21 am
    35   21   22 1
    36   21   27 1
    37   22   23 1
    38   22   45 1
    39   22   46 1
    40   23   24 1
    41   23   47 1
    42   23   48 1
    43   24   25 2
    44   24   26 am
    45   26   49 1
    46   26   50 1
    47   27   32 ar
    48   27   28 ar
    49   28   29 ar
    50   28   51 1
    51   29   30 ar
    52   29   52 1
    53   30   31 ar
    54   30   53 1
    55   31   32 ar
    56   31   54 1
    57   32   55 1
@<TRIPOS>MOLECULE
ZINC36220240
   61    63     0     0     0
SMALL
USER_CHARGES

@<TRIPOS>ATOM
      1 C1         -0.9585    1.5079    0.9643 C.3       1 <0>        -0.1544
      2 C2         -0.9419   -0.0220    0.9631 C.3       1 <0>        -0.1112
      3 C3          0.3226   -0.5189    1.6668 C.3       1 <0>        -0.1394
      4 C4          0.3389   -2.0258    1.6656 C.2       1 <0>         0.5121
      5 O1         -0.5713   -2.6417    1.1525 O.2       1 <0>        -0.5145
      6 N1          1.3648   -2.6890    2.2348 N.am      1 <0>        -0.6775
      7 C5          1.3338   -4.0853    2.3202 C.ar      1 <0>         0.1454
      8 C6          0.7581   -4.8323    1.3006 C.ar      1 <0>        -0.1042
      9 C7          0.7291   -6.2102    1.3879 C.ar      1 <0>        -0.0962
     10 C8          1.2720   -6.8464    2.4894 C.ar      1 <0>        -0.0919
     11 C9          1.8454   -6.1056    3.5063 C.ar      1 <0>        -0.0908
     12 C10         1.8836   -4.7274    3.4218 C.ar      1 <0>        -0.1272
     13 C11         2.4355   -6.8029    4.7049 C.3       1 <0>         0.1320
     14 H1          2.4285   -6.1481    5.5762 H         1 <0>         0.1241
     15 C12         3.8673   -7.3049    4.4026 C.3       1 <0>         0.0794
     16 H2          4.6123   -6.6190    4.8059 H         1 <0>         0.1300
     17 N2          3.9021   -8.5972    5.1155 N.am      1 <0>        -0.6042
     18 C13         2.6346   -8.9291    5.4251 C.2       1 <0>         0.6508
     19 O2          2.3338   -9.9315    6.0425 O.2       1 <0>        -0.4991
     20 O3          1.7371   -8.0329    4.9800 O.3       1 <0>        -0.3109
     21 C14         5.1009   -9.3784    5.4298 C.3       1 <0>         0.1921
     22 C15         5.6347   -8.9599    6.7755 C.ar      1 <0>        -0.1061
     23 C16         6.5557   -7.9326    6.8648 C.ar      1 <0>        -0.1004
     24 C17         7.0457   -7.5482    8.0987 C.ar      1 <0>        -0.1091
     25 C18         6.6155   -8.1911    9.2444 C.ar      1 <0>        -0.1026
     26 C19         5.6941   -9.2190    9.1557 C.ar      1 <0>        -0.0358
     27 C20         5.1993   -9.5993    7.9207 C.ar      1 <0>        -0.0842
     28 Cl1         5.1533  -10.0269   10.5940 Cl        1 <0>        -0.0642
     29 C21         4.0663   -7.4989    2.9214 C.2       1 <0>         0.5117
     30 O4          3.9927   -8.6096    2.4400 O.2       1 <0>        -0.5146
     31 N3          4.3261   -6.4380    2.1318 N.am      1 <0>        -0.7117
     32 C22         4.5196   -6.6266    0.6919 C.3       1 <0>         0.1256
     33 C23         4.7980   -5.2739    0.0333 C.3       1 <0>         0.0482
     34 O5          6.0387   -4.7552    0.5167 O.3       1 <0>        -0.3890
     35 C24         6.3946   -3.4876   -0.0389 C.3       1 <0>         0.0308
     36 H3         -0.0796    1.8812    0.4386 H         1 <0>         0.0552
     37 H4         -1.8593    1.8619    0.4630 H         1 <0>         0.0602
     38 H5         -0.9483    1.8706    1.9921 H         1 <0>         0.0556
     39 H6         -1.8208   -0.3952    1.4888 H         1 <0>         0.0709
     40 H7         -0.9521   -0.3846   -0.0647 H         1 <0>         0.0704
     41 H8          1.2014   -0.1456    1.1411 H         1 <0>         0.0971
     42 H9          0.3327   -0.1562    2.6946 H         1 <0>         0.0982
     43 H10         2.1247   -2.1984    2.5852 H         1 <0>         0.4116
     44 H11         0.3333   -4.3361    0.4405 H         1 <0>         0.1412
     45 H12         0.2815   -6.7916    0.5954 H         1 <0>         0.1306
     46 H13         1.2477   -7.9241    2.5555 H         1 <0>         0.1285
     47 H14         2.3363   -4.1495    4.2140 H         1 <0>         0.1320
     48 H15         4.8482  -10.4384    5.4528 H         1 <0>         0.1038
     49 H16         5.8596   -9.2023    4.6672 H         1 <0>         0.0990
     50 H17         6.8927   -7.4305    5.9699 H         1 <0>         0.1282
     51 H18         7.7652   -6.7457    8.1678 H         1 <0>         0.1346
     52 H19         6.9990   -7.8912   10.2084 H         1 <0>         0.1349
     53 H20         4.4765  -10.3988    7.8512 H         1 <0>         0.1396
     54 H21         4.3850   -5.5497    2.5168 H         1 <0>         0.4024
     55 H22         5.3649   -7.2937    0.5231 H         1 <0>         0.0789
     56 H23         3.6198   -7.0633    0.2585 H         1 <0>         0.0855
     57 H24         4.8539   -5.4009   -1.0479 H         1 <0>         0.0682
     58 H25         3.9942   -4.5791    0.2765 H         1 <0>         0.0572
     59 H26         7.3478   -3.1628    0.3783 H         1 <0>         0.0884
     60 H27         6.4836   -3.5775   -1.1215 H         1 <0>         0.0435
     61 H28         5.6240   -2.7557    0.2028 H         1 <0>         0.0413
@<TRIPOS>BOND
     1    1    2 1
     2    1   36 1
     3    1   37 1
     4    1   38 1
     5    2    3 1
     6    2   39 1
     7    2   40 1
     8    3    4 1
     9    3   41 1
    10    3   42 1
    11    4    5 2
    12    4    6 am
    13    6    7 1
    14    6   43 1
    15    7   12 ar
    16    7    8 ar
    17    8    9 ar
    18    8   44 1
    19    9   10 ar
    20    9   45 1
    21   10   11 ar
    22   10   46 1
    23   11   12 ar
    24   11   13 1
    25   12   47 1
    26   13   14 1
    27   13   20 1
    28   13   15 1
    29   15   16 1
    30   15   17 1
    31   15   29 1
    32   17   18 am
    33   17   21 1
    34   18   19 2
    35   18   20 1
    36   21   22 1
    37   21   48 1
    38   21   49 1
    39   22   27 ar
    40   22   23 ar
    41   23   24 ar
    42   23   50 1
    43   24   25 ar
    44   24   51 1
    45   25   26 ar
    46   25   52 1
    47   26   27 ar
    48   26   28 1
    49   27   53 1
    50   29   30 2
    51   29   31 am
    52   31   32 1
    53   31   54 1
    54   32   33 1
    55   32   55 1
    56   32   56 1
    57   33   34 1
    58   33   57 1
    59   33   58 1
    60   34   35 1
    61   35   59 1
    62   35   60 1
    63   35   61 1
@<TRIPOS>MOLECULE
ZINC39653926
   56    57     0     0     0
SMALL
USER_CHARGES

@<TRIPOS>ATOM
      1 C1         -0.0184    1.5028    0.0103 C.3       1 <0>        -0.1049
      2 C2          0.0021   -0.0041    0.0020 C.2       1 <0>         0.0038
      3 C3          0.0083   -0.8391   -1.1358 C.2       1 <0>        -0.2177
      4 C4          0.0281   -2.1470   -0.6831 C.2       1 <0>         0.1384
      5 N1          0.0340   -2.1374    0.6579 N.pl3     1 <0>        -0.5166
      6 H1          0.0477   -2.9243    1.2249 H         1 <0>         0.4265
      7 C5          0.0243   -0.8315    1.1040 C.2       1 <0>        -0.0996
      8 C6          0.0324   -0.4147    2.4568 C.2       1 <0>         0.4230
      9 O1          0.0193    0.7688    2.7275 O.2       1 <0>        -0.4184
     10 C7          0.0572   -1.4400    3.5609 C.3       1 <0>         0.0156
     11 O2          0.0612   -0.7769    4.8267 O.3       1 <0>        -0.3194
     12 C8          0.0826   -1.5533    5.9214 C.2       1 <0>         0.4664
     13 O3          0.0975   -2.7562    5.8087 O.2       1 <0>        -0.5008
     14 C9          0.0881   -0.9248    7.2911 C.3       1 <0>         0.1635
     15 H2          0.9709   -0.2944    7.3980 H         1 <0>         0.1335
     16 C10        -1.1709   -0.0733    7.4665 C.3       1 <0>        -0.1030
     17 C11        -2.4054   -0.9768    7.4407 C.3       1 <0>        -0.1511
     18 C12        -1.1059    0.6633    8.8059 C.3       1 <0>        -0.1401
     19 N2          0.1124   -1.9763    8.3108 N.am      1 <0>        -0.7117
     20 C13         0.6147   -1.7170    9.5343 C.2       1 <0>         0.5659
     21 O4          1.0476   -0.6105    9.7917 O.2       1 <0>        -0.5088
     22 C14         0.6392   -2.7771   10.5624 C.ar      1 <0>        -0.1770
     23 C15         0.1482   -4.0511   10.2686 C.ar      1 <0>        -0.0568
     24 C16         0.1744   -5.0363   11.2326 C.ar      1 <0>        -0.1383
     25 C17         0.6855   -4.7667   12.4908 C.ar      1 <0>        -0.0594
     26 C18         1.1733   -3.5090   12.7914 C.ar      1 <0>        -0.1645
     27 C19         1.1595   -2.5119   11.8329 C.ar      1 <0>         0.1633
     28 F1          1.6416   -1.2841   12.1251 F         1 <0>        -0.1126
     29 C20         0.0402   -3.3775   -1.5529 C.3       1 <0>        -0.1050
     30 C21        -0.0043   -0.4008   -2.5418 C.2       1 <0>         0.5450
     31 O5          1.0428   -0.2054   -3.1268 O.2       1 <0>        -0.4910
     32 O6         -1.1770   -0.2165   -3.1796 O.3       1 <0>        -0.3461
     33 C22        -1.1145    0.2092   -4.5423 C.3       1 <0>         0.0304
     34 H3          1.0042    1.8801    0.0026 H         1 <0>         0.0823
     35 H4         -0.5455    1.8639   -0.8728 H         1 <0>         0.0690
     36 H5         -0.5286    1.8543    0.9071 H         1 <0>         0.0918
     37 H6         -0.8252   -2.0756    3.4865 H         1 <0>         0.1024
     38 H7          0.9546   -2.0519    3.4685 H         1 <0>         0.1023
     39 H8         -1.2347    0.6523    6.6556 H         1 <0>         0.0981
     40 H9         -2.3416   -1.7024    8.2516 H         1 <0>         0.0593
     41 H10        -3.3023   -0.3702    7.5657 H         1 <0>         0.0673
     42 H11        -2.4517   -1.5016    6.4865 H         1 <0>         0.0491
     43 H12        -2.0028    1.2699    8.9309 H         1 <0>         0.0573
     44 H13        -1.0421   -0.0623    9.6169 H         1 <0>         0.0583
     45 H14        -0.2264    1.3070    8.8243 H         1 <0>         0.0670
     46 H15        -0.2329   -2.8592    8.1055 H         1 <0>         0.4089
     47 H16        -0.2517   -4.2640    9.2882 H         1 <0>         0.1356
     48 H17        -0.2053   -6.0216   11.0056 H         1 <0>         0.1382
     49 H18         0.7027   -5.5431   13.2414 H         1 <0>         0.1404
     50 H19         1.5699   -3.3056   13.7752 H         1 <0>         0.1451
     51 H20         1.0707   -3.6605   -1.7678 H         1 <0>         0.0920
     52 H21        -0.4601   -4.1947   -1.0333 H         1 <0>         0.0830
     53 H22        -0.4812   -3.1675   -2.4868 H         1 <0>         0.0903
     54 H23        -2.1252    0.3192   -4.9353 H         1 <0>         0.1047
     55 H24        -0.5959    1.1662   -4.6006 H         1 <0>         0.0628
     56 H25        -0.5748   -0.5330   -5.1304 H         1 <0>         0.0623
@<TRIPOS>BOND
     1    1    2 1
     2    1   34 1
     3    1   35 1
     4    1   36 1
     5    2    7 2
     6    2    3 1
     7    3    4 2
     8    3   30 1
     9    4    5 1
    10    4   29 1
    11    5    6 1
    12    5    7 1
    13    7    8 1
    14    8    9 2
    15    8   10 1
    16   10   11 1
    17   10   37 1
    18   10   38 1
    19   11   12 1
    20   12   13 2
    21   12   14 1
    22   14   15 1
    23   14   16 1
    24   14   19 1
    25   16   17 1
    26   16   18 1
    27   16   39 1
    28   17   40 1
    29   17   41 1
    30   17   42 1
    31   18   43 1
    32   18   44 1
    33   18   45 1
    34   19   20 am
    35   19   46 1
    36   20   21 2
    37   20   22 1
    38   22   27 ar
    39   22   23 ar
    40   23   24 ar
    41   23   47 1
    42   24   25 ar
    43   24   48 1
    44   25   26 ar
    45   25   49 1
    46   26   27 ar
    47   26   50 1
    48   27   28 1
    49   29   51 1
    50   29   52 1
    51   29   53 1
    52   30   31 2
    53   30   32 1
    54   32   33 1
    55   33   54 1
    56   33   55 1
    57   33   56 1
@<TRIPOS>MOLECULE
ZINC59893312
   52    54     0     0     0
SMALL
USER_CHARGES

@<TRIPOS>ATOM
      1 C1         -0.0173    1.4248    0.0099 C.3       1 <0>         0.0201
      2 O1          0.0021   -0.0041    0.0020 O.3       1 <0>        -0.2964
      3 C2         -1.2012   -0.6379    0.0101 C.ar      1 <0>         0.1448
      4 C3         -2.3700    0.0996    0.0194 C.ar      1 <0>        -0.1701
      5 C4         -3.6062   -0.5525    0.0273 C.ar      1 <0>        -0.0486
      6 C5         -3.6566   -1.9492    0.0257 C.ar      1 <0>        -0.1774
      7 C6         -2.4846   -2.6817    0.0163 C.ar      1 <0>         0.1428
      8 C7         -1.2544   -2.0294    0.0031 C.ar      1 <0>         0.0616
      9 O2         -0.1038   -2.7520   -0.0117 O.3       1 <0>        -0.2821
     10 C8          0.4577   -3.1038    1.2543 C.3       1 <0>         0.0448
     11 C9          1.7210   -3.8973    1.0406 C.2       1 <0>         0.5214
     12 O3          2.1028   -4.1378   -0.0852 O.2       1 <0>        -0.5162
     13 N1          2.4264   -4.3396    2.1003 N.am      1 <0>        -0.8530
     14 O4         -2.5330   -4.0409    0.0151 O.3       1 <0>        -0.2971
     15 C10        -3.8284   -4.6440    0.0239 C.3       1 <0>         0.0206
     16 C11        -4.8550    0.2318    0.0378 C.2       1 <0>         0.5130
     17 O5         -4.8099    1.4461    0.0396 O.2       1 <0>        -0.4938
     18 O6         -6.0462   -0.3981    0.0453 O.3       1 <0>        -0.3445
     19 C12        -7.2149    0.4242    0.0553 C.3       1 <0>         0.0672
     20 C13        -8.4620   -0.4621    0.0628 C.3       1 <0>        -0.1144
     21 C14        -9.7133    0.4182    0.0734 C.3       1 <0>        -0.0327
     22 C15       -10.9417   -0.4547    0.0808 C.2       1 <0>         0.1030
     23 N2        -11.5876   -0.9138    1.1128 N.2       1 <0>        -0.5088
     24 C16       -12.6828   -1.6913    0.9875 C.ar      1 <0>         0.0795
     25 C17       -13.4991   -2.2719    1.9806 C.ar      1 <0>        -0.0602
     26 C18       -14.5724   -3.0348    1.6356 C.ar      1 <0>        -0.1081
     27 C19       -14.9018   -3.2684    0.3076 C.ar      1 <0>        -0.0953
     28 C20       -14.1258   -2.7159   -0.6940 C.ar      1 <0>        -0.0643
     29 C21       -13.0404   -1.9445   -0.3562 C.ar      1 <0>        -0.1670
     30 S1        -11.7922   -1.0500   -1.2439 S.3       1 <0>         0.0885
     31 H1          1.0053    1.8021    0.0021 H         1 <0>         0.1079
     32 H2         -0.5445    1.7859   -0.8732 H         1 <0>         0.0623
     33 H3         -0.5275    1.7763    0.9067 H         1 <0>         0.0609
     34 H4         -2.3281    1.1788    0.0211 H         1 <0>         0.1533
     35 H5         -4.6105   -2.4556    0.0321 H         1 <0>         0.1533
     36 H6          0.6883   -2.1974    1.8141 H         1 <0>         0.0866
     37 H7         -0.2583   -3.7048    1.8150 H         1 <0>         0.0867
     38 H8          2.1210   -4.1473    3.0007 H         1 <0>         0.4022
     39 H9          3.2395   -4.8504    1.9627 H         1 <0>         0.4083
     40 H10        -4.3682   -4.3324    0.9182 H         1 <0>         0.0606
     41 H11        -4.3812   -4.3305   -0.8617 H         1 <0>         0.0621
     42 H12        -3.7241   -5.7289    0.0220 H         1 <0>         0.1071
     43 H13        -7.2099    1.0519    0.9463 H         1 <0>         0.0761
     44 H14        -7.2228    1.0550   -0.8336 H         1 <0>         0.0760
     45 H15        -8.4670   -1.0899   -0.8283 H         1 <0>         0.0824
     46 H16        -8.4540   -1.0930    0.9516 H         1 <0>         0.0848
     47 H17        -9.7083    1.0460    0.9645 H         1 <0>         0.1060
     48 H18        -9.7212    1.0491   -0.8154 H         1 <0>         0.1004
     49 H19       -13.2704   -2.1101    3.0237 H         1 <0>         0.1336
     50 H20       -15.1823   -3.4690    2.4140 H         1 <0>         0.1360
     51 H21       -15.7580   -3.8778    0.0586 H         1 <0>         0.1402
     52 H22       -14.3702   -2.8889   -1.7317 H         1 <0>         0.1355
@<TRIPOS>BOND
     1    1    2 1
     2    1   31 1
     3    1   32 1
     4    1   33 1
     5    2    3 1
     6    3    8 ar
     7    3    4 ar
     8    4    5 ar
     9    4   34 1
    10    5    6 ar
    11    5   16 1
    12    6    7 ar
    13    6   35 1
    14    7    8 ar
    15    7   14 1
    16    8    9 1
    17    9   10 1
    18   10   11 1
    19   10   36 1
    20   10   37 1
    21   11   12 2
    22   11   13 am
    23   13   38 1
    24   13   39 1
    25   14   15 1
    26   15   40 1
    27   15   41 1
    28   15   42 1
    29   16   17 2
    30   16   18 1
    31   18   19 1
    32   19   20 1
    33   19   43 1
    34   19   44 1
    35   20   21 1
    36   20   45 1
    37   20   46 1
    38   21   22 1
    39   21   47 1
    40   21   48 1
    41   22   30 1
    42   22   23 2
    43   23   24 1
    44   24   29 ar
    45   24   25 ar
    46   25   26 ar
    47   25   49 1
    48   26   27 ar
    49   26   50 1
    50   27   28 ar
    51   27   51 1
    52   28   29 ar
    53   28   52 1
    54   29   30 1
@<TRIPOS>MOLECULE
ZINC16785276
   45    46     0     0     0
SMALL
USER_CHARGES
N-[2-[(4-methylsulfonyl-2-nitro-phenyl)amino]ethyl]-3-(3-thienyl)propanamide
@<TRIPOS>ATOM
      1 C1        -10.3359    8.0773   -9.3322 C.3       1 <0>        -0.6506
      2 S1         -9.3803    9.5921   -9.0444 S.o2      1 <0>         2.5083
      3 O1        -10.2550   10.6774   -8.7683 O.2       1 <0>        -0.9306
      4 O2         -8.3559    9.7176  -10.0212 O.2       1 <0>        -0.9311
      5 C2         -8.5254    9.3073   -7.5303 C.ar      1 <0>        -0.7161
      6 C3         -7.2687    8.7298   -7.5455 C.ar      1 <0>         0.0627
      7 C4         -6.5958    8.5056   -6.3608 C.ar      1 <0>        -0.2109
      8 C5         -7.1824    8.8609   -5.1526 C.ar      1 <0>         0.3212
      9 C6         -8.4468    9.4353   -5.1405 C.ar      1 <0>        -0.1337
     10 C7         -9.1121    9.6620   -6.3296 C.ar      1 <0>         0.0863
     11 N1         -9.0782    9.8098   -3.8553 N.pl3     1 <0>         0.0330
     12 O3         -8.9320    9.1010   -2.8756 O.2       1 <0>        -0.1742
     13 O4         -9.7439   10.8267   -3.7773 O.3       1 <0>        -0.1347
     14 N2         -6.5044    8.6356   -3.9524 N.pl3     1 <0>        -0.7142
     15 C8         -5.2324    7.9089   -3.9549 C.3       1 <0>         0.1021
     16 C9         -4.7042    7.8004   -2.5230 C.3       1 <0>         0.1069
     17 N3         -3.4321    7.0737   -2.5255 N.am      1 <0>        -0.7322
     18 C10        -2.7780    6.8563   -1.3674 C.2       1 <0>         0.5153
     19 O5         -3.2424    7.2622   -0.3231 O.2       1 <0>        -0.5301
     20 C11        -1.4694    6.1088   -1.3700 C.3       1 <0>        -0.1325
     21 C12        -0.9413    6.0003    0.0619 C.3       1 <0>        -0.0491
     22 C13         0.3673    5.2528    0.0593 C.2       1 <0>        -0.1236
     23 C14         0.3895    3.8770    0.1912 C.2       1 <0>        -0.1551
     24 C15         1.5837    3.2357    0.1899 C.2       1 <0>        -0.1695
     25 S2          2.7295    4.5894   -0.0153 S.3       1 <0>         0.0318
     26 C16         1.5397    5.9190   -0.0781 C.2       1 <0>        -0.1712
     27 H1        -11.0257    7.9198   -8.5031 H         1 <0>         0.1319
     28 H2        -10.8993    8.1739  -10.2603 H         1 <0>         0.1369
     29 H3         -9.6568    7.2279   -9.4062 H         1 <0>         0.1329
     30 H4         -6.8134    8.4535   -8.4851 H         1 <0>         0.1613
     31 H5         -5.6147    8.0543   -6.3734 H         1 <0>         0.1545
     32 H6        -10.0936   10.1124   -6.3212 H         1 <0>         0.1664
     33 H7         -6.8759    8.9602   -3.1172 H         1 <0>         0.4181
     34 H8         -4.5090    8.4449   -4.5693 H         1 <0>         0.0817
     35 H9         -5.3855    6.9096   -4.3623 H         1 <0>         0.0839
     36 H10        -5.4276    7.2644   -1.9086 H         1 <0>         0.0819
     37 H11        -4.5510    8.7996   -2.1155 H         1 <0>         0.0780
     38 H12        -3.0607    6.7490   -3.3607 H         1 <0>         0.4038
     39 H13        -0.7460    6.6448   -1.9844 H         1 <0>         0.0971
     40 H14        -1.6226    5.1095   -1.7774 H         1 <0>         0.0971
     41 H15        -1.6646    5.4643    0.6763 H         1 <0>         0.0804
     42 H16        -0.7881    6.9996    0.4694 H         1 <0>         0.0807
     43 H17        -0.5307    3.3216    0.2966 H         1 <0>         0.1340
     44 H18         1.7886    2.1795    0.2838 H         1 <0>         0.1860
     45 H19         1.7100    6.9790   -0.1956 H         1 <0>         0.1850
@<TRIPOS>BOND
     1    1    2 1
     2    1   27 1
     3    1   28 1
     4    1   29 1
     5    2    3 2
     6    2    4 2
     7    2    5 1
     8    5   10 ar
     9    5    6 ar
    10    6    7 ar
    11    6   30 1
    12    7    8 ar
    13    7   31 1
    14    8    9 ar
    15    8   14 1
    16    9   10 ar
    17    9   11 1
    18   10   32 1
    19   11   12 2
    20   11   13 1
    21   14   15 1
    22   14   33 1
    23   15   16 1
    24   15   34 1
    25   15   35 1
    26   16   17 1
    27   16   36 1
    28   16   37 1
    29   17   18 am
    30   17   38 1
    31   18   19 2
    32   18   20 1
    33   20   21 1
    34   20   39 1
    35   20   40 1
    36   21   22 1
    37   21   41 1
    38   21   42 1
    39   22   26 2
    40   22   23 1
    41   23   24 2
    42   23   43 1
    43   24   25 1
    44   24   44 1
    45   25   26 1
    46   26   45 1
@<TRIPOS>MOLECULE
ZINC54899383
   55    57     0     0     0
SMALL
USER_CHARGES

@<TRIPOS>ATOM
      1 C1          2.3248   -4.9111   -0.8771 C.3       1 <0>        -0.0769
      2 C2          1.3925   -3.7821   -0.5208 C.2       1 <0>         0.1118
      3 C3          0.7521   -2.8661   -1.4583 C.ar      1 <0>        -0.2050
      4 C4          0.7718   -2.7244   -2.8507 C.ar      1 <0>         0.0091
      5 C5          0.0152   -1.7075   -3.4123 C.ar      1 <0>         0.0388
      6 C6         -0.7300   -0.8713   -2.5812 C.ar      1 <0>         0.1655
      7 N1         -0.7316   -1.0253   -1.2761 N.ar      1 <0>        -0.4823
      8 C7         -0.0259   -1.9818   -0.6850 C.ar      1 <0>         0.3064
      9 N2          0.1455   -2.3533    0.6223 N.pl3     1 <0>        -0.3930
     10 N3          1.0088   -3.4518    0.6792 N.2       1 <0>        -0.2354
     11 C8         -0.4801   -1.7052    1.7776 C.3       1 <0>         0.1114
     12 N4         -0.0003   -1.5216   -4.7991 N.am      1 <0>        -0.6326
     13 C9          0.1124   -2.5826   -5.6226 C.2       1 <0>         0.5079
     14 O1          0.1310   -3.7067   -5.1650 O.2       1 <0>        -0.5008
     15 C10         0.2144   -2.3752   -7.0980 C.2       1 <0>         0.5108
     16 O2          0.1957   -1.2512   -7.5555 O.2       1 <0>        -0.5127
     17 N5          0.3270   -3.4361   -7.9215 N.am      1 <0>        -0.6977
     18 C11         0.4270   -3.2327   -9.3689 C.3       1 <0>         0.1171
     19 C12         0.5443   -4.5887  -10.0676 C.3       1 <0>        -0.1312
     20 C13         0.6487   -4.3762  -11.5792 C.3       1 <0>        -0.1365
     21 C14         0.7660   -5.7323  -12.2779 C.3       1 <0>         0.1244
     22 N6          0.8660   -5.5289  -13.7253 N.pl3     1 <0>        -0.6339
     23 C15         2.1797   -5.3672  -14.3532 C.3       1 <0>         0.0921
     24 C16        -0.2912   -5.4890  -14.5065 C.ar      1 <0>         0.2138
     25 C17        -1.5379   -5.6363  -13.9119 C.ar      1 <0>        -0.1979
     26 C18        -2.6801   -5.5959  -14.6873 C.ar      1 <0>        -0.0733
     27 C19        -2.5836   -5.4095  -16.0541 C.ar      1 <0>        -0.1791
     28 C20        -1.3440   -5.2625  -16.6492 C.ar      1 <0>        -0.0728
     29 C21        -0.1982   -5.2961  -15.8790 C.ar      1 <0>        -0.1986
     30 H1          1.7473   -5.8204   -1.0438 H         1 <0>         0.0873
     31 H2          2.8728   -4.6573   -1.7845 H         1 <0>         0.0834
     32 H3          3.0288   -5.0724   -0.0607 H         1 <0>         0.0832
     33 H4          1.3590   -3.3872   -3.4690 H         1 <0>         0.1523
     34 H5         -1.3187   -0.0793   -3.0200 H         1 <0>         0.1725
     35 H6         -1.4371   -2.1827    1.9879 H         1 <0>         0.0721
     36 H7          0.1723   -1.8011    2.6455 H         1 <0>         0.0894
     37 H8         -0.6410   -0.6495    1.5589 H         1 <0>         0.0911
     38 H9         -0.0921   -0.6291   -5.1678 H         1 <0>         0.4265
     39 H10         0.3419   -4.3344   -7.5558 H         1 <0>         0.4146
     40 H11        -0.4640   -2.7160   -9.7255 H         1 <0>         0.0767
     41 H12         1.3089   -2.6319   -9.5912 H         1 <0>         0.0761
     42 H13         1.4353   -5.1054   -9.7109 H         1 <0>         0.0747
     43 H14        -0.3376   -5.1895   -9.8452 H         1 <0>         0.0750
     44 H15        -0.2423   -3.8595  -11.9359 H         1 <0>         0.0718
     45 H16         1.5306   -3.7755  -11.8015 H         1 <0>         0.0692
     46 H17         1.6570   -6.2490  -11.9212 H         1 <0>         0.0754
     47 H18        -0.1159   -6.3331  -12.0555 H         1 <0>         0.0773
     48 H19         2.5642   -6.3437  -14.6478 H         1 <0>         0.0484
     49 H20         2.0855   -4.7328  -15.2346 H         1 <0>         0.0686
     50 H21         2.8667   -4.9049  -13.6445 H         1 <0>         0.0662
     51 H22        -1.6140   -5.7827  -12.8446 H         1 <0>         0.1206
     52 H23        -3.6497   -5.7104  -14.2256 H         1 <0>         0.1197
     53 H24        -3.4783   -5.3790  -16.6582 H         1 <0>         0.1174
     54 H25        -1.2721   -5.1170  -17.7170 H         1 <0>         0.1200
     55 H26         0.7694   -5.1768  -16.3438 H         1 <0>         0.1210
@<TRIPOS>BOND
     1    1    2 1
     2    1   30 1
     3    1   31 1
     4    1   32 1
     5    2   10 2
     6    2    3 1
     7    3    8 ar
     8    3    4 ar
     9    4    5 ar
    10    4   33 1
    11    5    6 ar
    12    5   12 1
    13    6    7 ar
    14    6   34 1
    15    7    8 ar
    16    8    9 1
    17    9   10 1
    18    9   11 1
    19   11   35 1
    20   11   36 1
    21   11   37 1
    22   12   13 am
    23   12   38 1
    24   13   14 2
    25   13   15 1
    26   15   16 2
    27   15   17 am
    28   17   18 1
    29   17   39 1
    30   18   19 1
    31   18   40 1
    32   18   41 1
    33   19   20 1
    34   19   42 1
    35   19   43 1
    36   20   21 1
    37   20   44 1
    38   20   45 1
    39   21   22 1
    40   21   46 1
    41   21   47 1
    42   22   23 1
    43   22   24 1
    44   23   48 1
    45   23   49 1
    46   23   50 1
    47   24   29 ar
    48   24   25 ar
    49   25   26 ar
    50   25   51 1
    51   26   27 ar
    52   26   52 1
    53   27   28 ar
    54   27   53 1
    55   28   29 ar
    56   28   54 1
    57   29   55 1
@<TRIPOS>MOLECULE
ZINC61475379
   44    46     0     0     0
SMALL
USER_CHARGES

@<TRIPOS>ATOM
      1 C1         -0.0167    1.3784    0.0096 C.ar      1 <0>        -0.1576
      2 C2          1.1698    2.0883    0.0021 C.ar      1 <0>        -0.0815
      3 C3          2.3773    1.4175   -0.0134 C.ar      1 <0>        -0.1519
      4 C4          2.3989    0.0304   -0.0210 C.ar      1 <0>         0.1295
      5 C5          1.2070   -0.6796   -0.0130 C.ar      1 <0>        -0.2078
      6 C6          0.0021   -0.0041    0.0020 C.ar      1 <0>        -0.0803
      7 O1          3.5855   -0.6319   -0.0368 O.3       1 <0>        -0.3170
      8 C7          3.5315   -2.0598   -0.0438 C.3       1 <0>         0.0760
      9 C8          4.9536   -2.6239   -0.0615 C.3       1 <0>        -0.1313
     10 C9          4.8966   -4.1298   -0.0689 C.2       1 <0>         0.5222
     11 O2          3.8241   -4.6962   -0.0609 O.2       1 <0>        -0.5391
     12 N1          6.0374   -4.8473   -0.0845 N.am      1 <0>        -0.5191
     13 N2          5.9844   -6.2473   -0.0914 N.am      1 <0>        -0.5281
     14 C10         7.1253   -6.9647   -0.1070 C.2       1 <0>         0.5191
     15 O3          8.1977   -6.3984   -0.1150 O.2       1 <0>        -0.5127
     16 C11         7.0683   -8.4706   -0.1144 C.3       1 <0>        -0.0574
     17 C12         8.4690   -9.0263   -0.1318 C.2       1 <0>         0.0629
     18 C13         8.8625   -9.9154    0.8222 C.2       1 <0>        -0.1890
     19 S1         10.5517  -10.2146    0.3163 S.3       1 <0>         0.0969
     20 C14        10.5487   -9.1278   -1.1036 C.2       1 <0>         0.1448
     21 N3          9.3089   -8.6593   -1.0672 N.2       1 <0>        -0.4306
     22 C15        11.6343   -8.8350   -2.0631 C.ar      1 <0>         0.3984
     23 N4         11.4112   -7.9794   -3.0533 N.ar      1 <0>        -0.4764
     24 C16        12.3608   -7.6958   -3.9274 C.ar      1 <0>         0.1535
     25 C17        13.6012   -8.3039   -3.8008 C.ar      1 <0>        -0.2173
     26 C18        13.8010   -9.1930   -2.7547 C.ar      1 <0>         0.1564
     27 N5         12.8115   -9.4296   -1.9114 N.ar      1 <0>        -0.5034
     28 H1         -0.9596    1.9047    0.0260 H         1 <0>         0.1243
     29 H2          1.1525    3.1682    0.0080 H         1 <0>         0.1299
     30 H3          3.3038    1.9724   -0.0200 H         1 <0>         0.1309
     31 H4          1.2211   -1.7595   -0.0193 H         1 <0>         0.1299
     32 H5         -0.9260   -0.5563    0.0082 H         1 <0>         0.1255
     33 H6          3.0134   -2.4083    0.8497 H         1 <0>         0.0740
     34 H7          2.9951   -2.3988   -0.9302 H         1 <0>         0.0741
     35 H8          5.4716   -2.2755   -0.9550 H         1 <0>         0.1138
     36 H9          5.4899   -2.2850    0.8248 H         1 <0>         0.1135
     37 H10         6.8951   -4.3944   -0.0909 H         1 <0>         0.4344
     38 H11         5.1267   -6.7002   -0.0850 H         1 <0>         0.4321
     39 H12         6.5503   -8.8191    0.7791 H         1 <0>         0.1191
     40 H13         6.5320   -8.8096   -1.0007 H         1 <0>         0.1186
     41 H14         8.3083  -10.3256    1.6535 H         1 <0>         0.2068
     42 H15        12.1733   -6.9991   -4.7312 H         1 <0>         0.1777
     43 H16        14.3944   -8.0900   -4.5018 H         1 <0>         0.1566
     44 H17        14.7553   -9.6829   -2.6287 H         1 <0>         0.1793
@<TRIPOS>BOND
     1    1    6 ar
     2    1    2 ar
     3    1   28 1
     4    2    3 ar
     5    2   29 1
     6    3    4 ar
     7    3   30 1
     8    4    5 ar
     9    4    7 1
    10    5    6 ar
    11    5   31 1
    12    6   32 1
    13    7    8 1
    14    8    9 1
    15    8   33 1
    16    8   34 1
    17    9   10 1
    18    9   35 1
    19    9   36 1
    20   10   11 2
    21   10   12 am
    22   12   13 1
    23   12   37 1
    24   13   14 am
    25   13   38 1
    26   14   15 2
    27   14   16 1
    28   16   17 1
    29   16   39 1
    30   16   40 1
    31   17   21 1
    32   17   18 2
    33   18   19 1
    34   18   41 1
    35   19   20 1
    36   20   21 2
    37   20   22 1
    38   22   27 ar
    39   22   23 ar
    40   23   24 ar
    41   24   25 ar
    42   24   42 1
    43   25   26 ar
    44   25   43 1
    45   26   27 ar
    46   26   44 1
@<TRIPOS>MOLECULE
ZINC67099166
   51    53     0     0     0
SMALL
USER_CHARGES

@<TRIPOS>ATOM
      1 C1          0.4666    1.3047    0.0204 C.3       1 <0>        -0.1465
      2 C2          0.3334   -0.2162   -0.0796 C.3       1 <0>        -0.0924
      3 C3          1.1790   -0.8751    1.0120 C.3       1 <0>        -0.1525
      4 C4         -1.1331   -0.6127    0.1023 C.3       1 <0>        -0.0364
      5 C5         -1.2834   -2.0960   -0.1177 C.2       1 <0>         0.2961
      6 N1         -1.1912   -3.0180    0.8000 N.2       1 <0>        -0.5282
      7 C6         -1.3777   -4.2264    0.2573 C.2       1 <0>         0.2556
      8 N2         -1.5920   -4.0868   -1.0194 N.2       1 <0>        -0.3168
      9 O1         -1.5404   -2.6935   -1.2881 O.3       1 <0>        -0.0991
     10 C7         -1.3446   -5.5360    1.0021 C.3       1 <0>         0.1633
     11 O2         -2.6573   -5.8506    1.4710 O.3       1 <0>        -0.2220
     12 N3         -2.7361   -7.0691    2.1881 N.2       1 <0>        -0.4165
     13 C8         -3.8771   -7.4686    2.6680 C.2       1 <0>         0.4291
     14 C9         -5.1175   -6.7296    2.3403 C.ar      1 <0>        -0.0634
     15 C10        -6.1967   -6.7471    3.2243 C.ar      1 <0>        -0.1298
     16 C11        -7.3514   -6.0571    2.9164 C.ar      1 <0>        -0.0823
     17 C12        -7.4430   -5.3477    1.7331 C.ar      1 <0>        -0.1906
     18 C13        -6.3744   -5.3252    0.8476 C.ar      1 <0>         0.1273
     19 C14        -5.2088   -6.0096    1.1505 C.ar      1 <0>        -0.1008
     20 O3         -6.4697   -4.6267   -0.3144 O.3       1 <0>        -0.3059
     21 C15        -7.6984   -3.9396   -0.5594 C.3       1 <0>         0.1065
     22 C16        -7.6197   -3.2267   -1.8848 C.ar      1 <0>        -0.1517
     23 C17        -7.1441   -1.9260   -1.9552 C.ar      1 <0>        -0.0498
     24 C18        -7.0895   -1.3097   -3.1958 C.ar      1 <0>        -0.1742
     25 C19        -7.5078   -2.0073   -4.3134 C.ar      1 <0>         0.1105
     26 N4         -7.9548   -3.2433   -4.2087 N.ar      1 <0>        -0.4850
     27 C20        -8.0150   -3.8629   -3.0460 C.ar      1 <0>         0.1259
     28 N5         -3.9316   -8.5849    3.4853 N.pl3     1 <0>        -0.8252
     29 H1          1.5114    1.5872   -0.1092 H         1 <0>         0.0641
     30 H2         -0.1358    1.7741   -0.7573 H         1 <0>         0.0601
     31 H3          0.1193    1.6363    0.9989 H         1 <0>         0.0613
     32 H4          0.6807   -0.5478   -1.0581 H         1 <0>         0.0781
     33 H5          0.8317   -0.5435    1.9905 H         1 <0>         0.0628
     34 H6          1.0841   -1.9586    0.9408 H         1 <0>         0.0568
     35 H7          2.2238   -0.5926    0.8824 H         1 <0>         0.0596
     36 H8         -1.4549   -0.3609    1.1128 H         1 <0>         0.1151
     37 H9         -1.7473   -0.0742   -0.6194 H         1 <0>         0.1055
     38 H10        -0.9984   -6.3250    0.3346 H         1 <0>         0.0873
     39 H11        -0.6656   -5.4542    1.8509 H         1 <0>         0.0945
     40 H12        -6.1286   -7.3009    4.1491 H         1 <0>         0.1295
     41 H13        -8.1861   -6.0715    3.6016 H         1 <0>         0.1327
     42 H14        -8.3492   -4.8097    1.4970 H         1 <0>         0.1320
     43 H15        -4.3748   -5.9889    0.4646 H         1 <0>         0.1459
     44 H16        -8.5182   -4.6577   -0.5813 H         1 <0>         0.0773
     45 H17        -7.8729   -3.2131    0.2342 H         1 <0>         0.0745
     46 H18        -6.8243   -1.4053   -1.0647 H         1 <0>         0.1356
     47 H19        -6.7250   -0.2973   -3.2878 H         1 <0>         0.1400
     48 H20        -7.4684   -1.5343   -5.2835 H         1 <0>         0.1602
     49 H21        -8.3820   -4.8776   -3.0003 H         1 <0>         0.1572
     50 H22        -3.1189   -9.0690    3.6999 H         1 <0>         0.4108
     51 H23        -4.7825   -8.8829    3.8432 H         1 <0>         0.4142
@<TRIPOS>BOND
     1    1    2 1
     2    1   29 1
     3    1   30 1
     4    1   31 1
     5    2    3 1
     6    2    4 1
     7    2   32 1
     8    3   33 1
     9    3   34 1
    10    3   35 1
    11    4    5 1
    12    4   36 1
    13    4   37 1
    14    5    9 1
    15    5    6 2
    16    6    7 1
    17    7    8 2
    18    7   10 1
    19    8    9 1
    20   10   11 1
    21   10   38 1
    22   10   39 1
    23   11   12 1
    24   12   13 2
    25   13   14 1
    26   13   28 1
    27   14   19 ar
    28   14   15 ar
    29   15   16 ar
    30   15   40 1
    31   16   17 ar
    32   16   41 1
    33   17   18 ar
    34   17   42 1
    35   18   19 ar
    36   18   20 1
    37   19   43 1
    38   20   21 1
    39   21   22 1
    40   21   44 1
    41   21   45 1
    42   22   27 ar
    43   22   23 ar
    44   23   24 ar
    45   23   46 1
    46   24   25 ar
    47   24   47 1
    48   25   26 ar
    49   25   48 1
    50   26   27 ar
    51   27   49 1
    52   28   50 1
    53   28   51 1
@<TRIPOS>MOLECULE
ZINC67569942
   58    60     0     0     0
SMALL
USER_CHARGES

@<TRIPOS>ATOM
      1 C1         -1.0357    1.8467   -2.2125 C.3       1 <0>        -0.1531
      2 C2         -0.6169    0.4733   -1.6839 C.3       1 <0>         0.0762
      3 C3          0.4690    0.6457   -0.6200 C.3       1 <0>        -0.1763
      4 O1         -1.7491   -0.1807   -1.1073 O.3       1 <0>        -0.3126
      5 C4         -1.8162   -1.5319   -1.2419 C.ar      1 <0>         0.1120
      6 C5         -0.7612   -2.2264   -1.8114 C.ar      1 <0>        -0.1928
      7 C6         -0.8307   -3.6004   -1.9472 C.ar      1 <0>        -0.0901
      8 C7         -1.9517   -4.2862   -1.5159 C.ar      1 <0>        -0.1363
      9 C8         -3.0083   -3.6016   -0.9469 C.ar      1 <0>        -0.0919
     10 C9         -2.9440   -2.2227   -0.8022 C.ar      1 <0>         0.1091
     11 N1         -4.0101   -1.5278   -0.2216 N.am      1 <0>        -0.6290
     12 C10        -5.2524   -2.0494   -0.2550 C.2       1 <0>         0.5062
     13 O2         -5.4661   -3.0688   -0.8783 O.2       1 <0>        -0.5015
     14 C11        -6.3660   -1.3730    0.4747 C.2       1 <0>         0.5116
     15 O3         -6.1524   -0.3538    1.0979 O.2       1 <0>        -0.5117
     16 N2         -7.6083   -1.8945    0.4412 N.am      1 <0>        -0.6987
     17 C12        -8.7008   -1.2311    1.1571 C.3       1 <0>         0.1182
     18 C13        -9.9954   -2.0218    0.9580 C.3       1 <0>        -0.1287
     19 C14       -11.1364   -1.3289    1.7057 C.3       1 <0>        -0.0273
     20 C15       -12.4115   -2.1077    1.5096 C.2       1 <0>         0.1716
     21 N3        -13.2813   -1.9433    0.5482 N.2       1 <0>        -0.2891
     22 N4        -14.2454   -2.7855    0.6864 N.2       1 <0>        -0.2920
     23 C16       -14.0311   -3.5244    1.7374 C.2       1 <0>         0.1816
     24 N5        -12.8673   -3.1112    2.2915 N.pl3     1 <0>        -0.4657
     25 C17       -12.2446   -3.6398    3.5054 C.3       1 <0>         0.1020
     26 C18       -12.6463   -5.1064    3.6854 C.3       1 <0>        -0.1413
     27 C19       -13.9390   -5.1908    4.4957 C.3       1 <0>        -0.1255
     28 C20       -15.0761   -4.4853    3.7629 C.3       1 <0>        -0.1246
     29 C21       -14.8958   -4.6445    2.2552 C.3       1 <0>        -0.0379
     30 H1         -0.1721    2.3455   -2.6523 H         1 <0>         0.0781
     31 H2         -1.8093    1.7238   -2.9704 H         1 <0>         0.0645
     32 H3         -1.4240    2.4491   -1.3913 H         1 <0>         0.0683
     33 H4         -0.2286   -0.1291   -2.5051 H         1 <0>         0.0787
     34 H5          0.7674   -0.3327   -0.2434 H         1 <0>         0.0620
     35 H6          1.3326    1.1446   -1.0598 H         1 <0>         0.0739
     36 H7          0.0807    1.2481    0.2012 H         1 <0>         0.0685
     37 H8          0.1155   -1.6942   -2.1497 H         1 <0>         0.1362
     38 H9         -0.0075   -4.1399   -2.3917 H         1 <0>         0.1283
     39 H10        -2.0013   -5.3596   -1.6245 H         1 <0>         0.1302
     40 H11        -3.8824   -4.1398   -0.6110 H         1 <0>         0.1514
     41 H12        -3.8553   -0.6706    0.2051 H         1 <0>         0.4272
     42 H13        -7.7791   -2.7092   -0.0568 H         1 <0>         0.4149
     43 H14        -8.4633   -1.1845    2.2199 H         1 <0>         0.0781
     44 H15        -8.8289   -0.2207    0.7688 H         1 <0>         0.0817
     45 H16       -10.2329   -2.0684   -0.1048 H         1 <0>         0.0846
     46 H17        -9.8674   -3.0322    1.3464 H         1 <0>         0.0718
     47 H18       -10.8989   -1.2823    2.7685 H         1 <0>         0.0868
     48 H19       -11.2644   -0.3185    1.3174 H         1 <0>         0.1066
     49 H20       -11.1604   -3.5678    3.4189 H         1 <0>         0.0962
     50 H21       -12.5800   -3.0626    4.3671 H         1 <0>         0.0909
     51 H22       -12.8007   -5.5628    2.7077 H         1 <0>         0.0815
     52 H23       -11.8532   -5.6377    4.2116 H         1 <0>         0.0899
     53 H24       -14.2023   -6.2379    4.6450 H         1 <0>         0.0751
     54 H25       -13.7873   -4.7168    5.4654 H         1 <0>         0.0707
     55 H26       -16.0281   -4.9236    4.0624 H         1 <0>         0.0825
     56 H27       -15.0691   -3.4253    4.0168 H         1 <0>         0.0645
     57 H28       -15.8671   -4.6131    1.7616 H         1 <0>         0.1018
     58 H29       -14.4134   -5.6007    2.0528 H         1 <0>         0.0927
@<TRIPOS>BOND
     1    1    2 1
     2    1   30 1
     3    1   31 1
     4    1   32 1
     5    2    3 1
     6    2    4 1
     7    2   33 1
     8    3   34 1
     9    3   35 1
    10    3   36 1
    11    4    5 1
    12    5   10 ar
    13    5    6 ar
    14    6    7 ar
    15    6   37 1
    16    7    8 ar
    17    7   38 1
    18    8    9 ar
    19    8   39 1
    20    9   10 ar
    21    9   40 1
    22   10   11 1
    23   11   12 am
    24   11   41 1
    25   12   13 2
    26   12   14 1
    27   14   15 2
    28   14   16 am
    29   16   17 1
    30   16   42 1
    31   17   18 1
    32   17   43 1
    33   17   44 1
    34   18   19 1
    35   18   45 1
    36   18   46 1
    37   19   20 1
    38   19   47 1
    39   19   48 1
    40   20   24 1
    41   20   21 2
    42   21   22 1
    43   22   23 2
    44   23   29 1
    45   23   24 1
    46   24   25 1
    47   25   26 1
    48   25   49 1
    49   25   50 1
    50   26   27 1
    51   26   51 1
    52   26   52 1
    53   27   28 1
    54   27   53 1
    55   27   54 1
    56   28   29 1
    57   28   55 1
    58   28   56 1
    59   29   57 1
    60   29   58 1
@<TRIPOS>MOLECULE
ZINC32584633
   45    46     0     0     0
SMALL
USER_CHARGES
ethyl (E)-2-cyano-3-[3-methoxy-4-(pyridine-3-carbonylamino)anilino]prop-2-enoate
@<TRIPOS>ATOM
      1 C1          9.6035    4.0213   -0.1590 C.3       1 <0>        -0.1567
      2 C2          8.3977    3.0798   -0.1423 C.3       1 <0>         0.0634
      3 O1          7.1739    3.8610   -0.1193 O.3       1 <0>        -0.3550
      4 C3          6.0115    3.1775   -0.1025 C.2       1 <0>         0.5418
      5 O2          6.0210    1.9614   -0.1068 O.2       1 <0>        -0.5221
      6 C4          4.7362    3.9006   -0.0788 C.2       1 <0>        -0.2460
      7 C5          3.5467    3.2012   -0.0616 C.2       1 <0>         0.2920
      8 N1          2.3709    3.8679   -0.0398 N.pl3     1 <0>        -0.6328
      9 C6          1.1652    3.1591   -0.0223 C.ar      1 <0>         0.1681
     10 C7          1.1765    1.7698   -0.0273 C.ar      1 <0>        -0.1716
     11 C8         -0.0126    1.0677   -0.0095 C.ar      1 <0>        -0.0595
     12 C9         -1.2215    1.7485    0.0071 C.ar      1 <0>         0.1106
     13 C10        -1.2355    3.1419    0.0170 C.ar      1 <0>         0.1365
     14 C11        -0.0426    3.8444   -0.0004 C.ar      1 <0>        -0.2195
     15 O3         -2.4191    3.8107    0.0389 O.3       1 <0>        -0.3141
     16 C12        -2.3576    5.2384    0.0428 C.3       1 <0>         0.0229
     17 N2         -2.4280    1.0351    0.0187 N.am      1 <0>        -0.6679
     18 C13        -2.4632   -0.2214    0.5050 C.2       1 <0>         0.5676
     19 O4         -1.4739   -0.6999    1.0250 O.2       1 <0>        -0.5178
     20 C14        -3.7045   -1.0177    0.4059 C.ar      1 <0>        -0.1902
     21 C15        -3.7524   -2.3264    0.9020 C.ar      1 <0>        -0.0132
     22 C16        -4.9398   -3.0274    0.7888 C.ar      1 <0>        -0.1768
     23 C17        -6.0283   -2.4227    0.1856 C.ar      1 <0>         0.1268
     24 N3         -5.9526   -1.1896   -0.2772 N.ar      1 <0>        -0.4857
     25 C18        -4.8467   -0.4801   -0.1886 C.ar      1 <0>         0.1375
     26 C19         4.7250    5.3325   -0.0737 C.1       1 <0>         0.2626
     27 N4          4.7161    6.4685   -0.0696 N.1       1 <0>        -0.4289
     28 H1         10.5306    3.4295   -0.1764 H         1 <0>         0.0824
     29 H2          9.5883    4.6525    0.7417 H         1 <0>         0.0669
     30 H3          9.5585    4.6588   -1.0543 H         1 <0>         0.0669
     31 H4          8.4129    2.4486   -1.0430 H         1 <0>         0.0732
     32 H5          8.4426    2.4423    0.7530 H         1 <0>         0.0732
     33 H6          3.5553    2.1012   -0.0656 H         1 <0>         0.1943
     34 H7          2.3623    4.9679   -0.0358 H         1 <0>         0.4426
     35 H8          2.1164    1.2382   -0.0447 H         1 <0>         0.1397
     36 H9         -0.0016   -0.0123   -0.0131 H         1 <0>         0.1622
     37 H10        -0.0512    4.9243    0.0028 H         1 <0>         0.1403
     38 H11        -3.3778    5.6493    0.0611 H         1 <0>         0.1076
     39 H12        -1.8387    5.5855   -0.8629 H         1 <0>         0.0600
     40 H13        -1.8090    5.5793    0.9332 H         1 <0>         0.0597
     41 H14        -3.3460    1.5007   -0.3691 H         1 <0>         0.4394
     42 H15        -2.8858   -2.7756    1.3642 H         1 <0>         0.1500
     43 H16        -5.0149   -4.0376    1.1632 H         1 <0>         0.1467
     44 H17        -6.9551   -2.9693    0.0919 H         1 <0>         0.1648
     45 H18        -4.8237    0.5266   -0.5790 H         1 <0>         0.1580
@<TRIPOS>BOND
     1    1    2 1
     2    1   28 1
     3    1   29 1
     4    1   30 1
     5    2    3 1
     6    2   31 1
     7    2   32 1
     8    3    4 1
     9    4    5 2
    10    4    6 1
    11    6    7 2
    12    6   26 1
    13    7    8 1
    14    7   33 1
    15    8    9 1
    16    8   34 1
    17    9   14 ar
    18    9   10 ar
    19   10   11 ar
    20   10   35 1
    21   11   12 ar
    22   11   36 1
    23   12   13 ar
    24   12   17 1
    25   13   14 ar
    26   13   15 1
    27   14   37 1
    28   15   16 1
    29   16   38 1
    30   16   39 1
    31   16   40 1
    32   17   18 am
    33   17   41 1
    34   18   19 2
    35   18   20 1
    36   20   25 ar
    37   20   21 ar
    38   21   22 ar
    39   21   42 1
    40   22   23 ar
    41   22   43 1
    42   23   24 ar
    43   23   44 1
    44   24   25 ar
    45   25   45 1
    46   26   27 3
@<TRIPOS>MOLECULE
ZINC39958269
   46    47     0     0     0
SMALL
USER_CHARGES

@<TRIPOS>ATOM
      1 C1          0.3469    2.1731    0.5871 C.3       1 <0>        -0.1458
      2 C2          0.5637    0.6586    0.5999 C.3       1 <0>        -0.0310
      3 C3          1.2126    0.2549    1.8987 C.2       1 <0>         0.2394
      4 N1          0.5649   -0.0887    3.0125 N.2       1 <0>        -0.5405
      5 C4          1.4328   -0.3832    3.9575 C.2       1 <0>         0.2457
      6 H1          3.5145   -0.3707    3.9032 H         1 <0>         0.4465
      7 N2          2.6723   -0.2267    3.4440 N.pl3     1 <0>        -0.4600
      8 N3          2.4990    0.1805    2.1113 N.2       1 <0>        -0.3024
      9 S1          1.0464   -0.8902    5.6001 S.3       1 <0>         0.0874
     10 C5         -0.7671   -0.8991    5.6415 C.3       1 <0>        -0.1444
     11 C6         -1.2363   -1.3212    7.0100 C.2       1 <0>         0.5420
     12 O1         -0.4270   -1.5896    7.8725 O.2       1 <0>        -0.5036
     13 N4         -2.5553   -1.4005    7.2754 N.am      1 <0>        -0.6974
     14 C7         -3.0114   -1.8108    8.6058 C.3       1 <0>         0.1973
     15 H2         -2.1960   -1.7729    9.3282 H         1 <0>         0.1466
     16 C8         -4.2198   -0.9517    9.0759 C.3       1 <0>        -0.0060
     17 H3         -4.8846   -0.7595    8.2338 H         1 <0>         0.1417
     18 C9         -4.9721   -1.7376   10.1626 C.3       1 <0>        -0.0794
     19 H4         -5.9350   -1.2629   10.3514 H         1 <0>         0.1233
     20 C10        -5.2005   -3.1957    9.6967 C.3       1 <0>        -0.0407
     21 H5         -6.1479   -3.2878    9.1656 H         1 <0>         0.1559
     22 S2         -3.7830   -3.4833    8.5591 S.3       1 <0>        -0.2153
     23 C11        -5.1518   -4.1444   10.8666 C.2       1 <0>         0.4836
     24 O2         -6.1427   -4.3356   11.5311 O.2       1 <0>        -0.4929
     25 O3         -4.0076   -4.7770   11.1705 O.3       1 <0>        -0.3271
     26 C12        -4.0337   -5.6618   12.2924 C.3       1 <0>         0.0575
     27 C13        -2.6495   -6.2855   12.4823 C.3       1 <0>        -0.1522
     28 C14        -4.1463   -1.7407   11.4507 C.3       1 <0>        -0.1739
     29 C15        -3.7373    0.3240    9.6295 C.1       1 <0>         0.2056
     30 N5         -3.3650    1.3086   10.0568 N.1       1 <0>        -0.3932
     31 H6          1.3077    2.6785    0.6857 H         1 <0>         0.0575
     32 H7         -0.1224    2.4651   -0.3523 H         1 <0>         0.0698
     33 H8         -0.2988    2.4548    1.4189 H         1 <0>         0.0591
     34 H9         -0.3971    0.1532    0.5013 H         1 <0>         0.0930
     35 H10         1.2094    0.3769   -0.2318 H         1 <0>         0.0896
     36 H11        -1.1405    0.1011    5.4219 H         1 <0>         0.1328
     37 H12        -1.1441   -1.5994    4.8961 H         1 <0>         0.1351
     38 H13        -3.2026   -1.1858    6.5856 H         1 <0>         0.4157
     39 H14        -4.3072   -5.1045   13.1883 H         1 <0>         0.0685
     40 H15        -4.7662   -6.4496   12.1168 H         1 <0>         0.0694
     41 H16        -1.9170   -5.4976   12.6579 H         1 <0>         0.0682
     42 H17        -2.6694   -6.9604   13.3380 H         1 <0>         0.0802
     43 H18        -2.3760   -6.8427   11.5863 H         1 <0>         0.0693
     44 H19        -3.9264   -0.7142   11.7438 H         1 <0>         0.0737
     45 H20        -4.7111   -2.2318   12.2432 H         1 <0>         0.0735
     46 H21        -3.2132   -2.2785   11.2828 H         1 <0>         0.0783
@<TRIPOS>BOND
     1    1    2 1
     2    1   31 1
     3    1   32 1
     4    1   33 1
     5    2   34 1
     6    2   35 1
     7    2    3 1
     8    3    4 1
     9    3    8 2
    10    4    5 2
    11    5    9 1
    12    5    7 1
    13    6    7 1
    14    7    8 1
    15    9   10 1
    16   10   11 1
    17   10   36 1
    18   10   37 1
    19   11   12 2
    20   11   13 am
    21   13   14 1
    22   13   38 1
    23   14   15 1
    24   14   22 1
    25   14   16 1
    26   16   17 1
    27   16   18 1
    28   16   29 1
    29   18   19 1
    30   18   20 1
    31   18   28 1
    32   20   21 1
    33   20   22 1
    34   20   23 1
    35   23   24 2
    36   23   25 1
    37   25   26 1
    38   26   27 1
    39   26   39 1
    40   26   40 1
    41   27   41 1
    42   27   42 1
    43   27   43 1
    44   28   44 1
    45   28   45 1
    46   28   46 1
    47   29   30 3
@<TRIPOS>MOLECULE
ZINC52681238
   53    54     0     0     0
SMALL
USER_CHARGES

@<TRIPOS>ATOM
      1 C1         -0.4678    1.5352   -0.4008 C.3       1 <0>        -0.1531
      2 C2         -0.5108    0.0077   -0.4772 C.3       1 <0>         0.0534
      3 O1          0.6333   -0.4660   -1.1904 O.3       1 <0>        -0.3150
      4 C3          0.7485   -1.8114   -1.3489 C.ar      1 <0>         0.1290
      5 C4         -0.2239   -2.6561   -0.8326 C.ar      1 <0>        -0.1974
      6 C5         -0.1079   -4.0222   -0.9930 C.ar      1 <0>        -0.0711
      7 C6          0.9830   -4.5514   -1.6715 C.ar      1 <0>         0.0932
      8 C7          1.9558   -3.7051   -2.1879 C.ar      1 <0>        -0.0601
      9 C8          1.8351   -2.3385   -2.0314 C.ar      1 <0>        -0.1374
     10 C9          3.1395   -4.2778   -2.9241 C.3       1 <0>        -0.1202
     11 N1          1.1017   -5.9355   -1.8341 N.am      1 <0>        -0.6364
     12 C10         0.6734   -6.7672   -0.8639 C.2       1 <0>         0.5062
     13 O2          0.1107   -6.3199    0.1143 O.2       1 <0>        -0.5009
     14 C11         0.8911   -8.2390   -0.9922 C.2       1 <0>         0.5115
     15 O3          1.4536   -8.6862   -1.9701 O.2       1 <0>        -0.5138
     16 N2          0.4627   -9.0706   -0.0220 N.am      1 <0>        -0.6956
     17 C12         0.6763  -10.5145   -0.1478 C.3       1 <0>         0.1716
     18 C13         0.1086  -11.2135    1.0605 C.ar      1 <0>        -0.2107
     19 C14         0.8974  -11.4264    2.1829 C.ar      1 <0>        -0.0171
     20 C15         0.3365  -12.0717    3.2710 C.ar      1 <0>        -0.1902
     21 C16        -0.9889  -12.4823    3.2038 C.ar      1 <0>         0.3360
     22 N3         -1.7084  -12.2616    2.1163 N.ar      1 <0>        -0.5419
     23 C17        -1.2031  -11.6439    1.0654 C.ar      1 <0>         0.1666
     24 O4         -1.5506  -13.1160    4.2639 O.3       1 <0>        -0.2953
     25 C18        -2.9170  -13.5131    4.1329 C.3       1 <0>         0.0729
     26 C19        -3.3720  -14.2068    5.4184 C.3       1 <0>         0.0591
     27 O5         -3.3523  -13.2703    6.4976 O.3       1 <0>        -0.3866
     28 C20        -3.7625  -13.8197    7.7514 C.3       1 <0>         0.0303
     29 H1          0.4387    1.8476    0.1177 H         1 <0>         0.0668
     30 H2         -0.4708    1.9496   -1.4090 H         1 <0>         0.0668
     31 H3         -1.3404    1.8965    0.1432 H         1 <0>         0.0793
     32 H4         -0.5077   -0.4068    0.5309 H         1 <0>         0.0631
     33 H5         -1.4172   -0.3048   -0.9957 H         1 <0>         0.0629
     34 H6         -1.0716   -2.2446   -0.3049 H         1 <0>         0.1325
     35 H7         -0.8646   -4.6795   -0.5909 H         1 <0>         0.1431
     36 H8          2.5892   -1.6800   -2.4367 H         1 <0>         0.1372
     37 H9          2.9040   -4.3564   -3.9854 H         1 <0>         0.0783
     38 H10         4.0014   -3.6241   -2.7906 H         1 <0>         0.0768
     39 H11         3.3692   -5.2673   -2.5286 H         1 <0>         0.0685
     40 H12         1.4923   -6.2968   -2.6452 H         1 <0>         0.4225
     41 H13         0.0131   -8.7132    0.7597 H         1 <0>         0.4152
     42 H14         0.1774  -10.8787   -1.0460 H         1 <0>         0.0877
     43 H15         1.7447  -10.7191   -0.2174 H         1 <0>         0.0868
     44 H16         1.9254  -11.0962    2.2062 H         1 <0>         0.1451
     45 H17         0.9215  -12.2541    4.1603 H         1 <0>         0.1461
     46 H18        -1.8222  -11.4770    0.1963 H         1 <0>         0.1621
     47 H19        -3.5357  -12.6333    3.9562 H         1 <0>         0.0777
     48 H20        -3.0164  -14.2017    3.2937 H         1 <0>         0.0844
     49 H21        -4.3846  -14.5881    5.2867 H         1 <0>         0.0746
     50 H22        -2.6986  -15.0340    5.6428 H         1 <0>         0.0613
     51 H23        -4.7832  -14.1930    7.6681 H         1 <0>         0.0426
     52 H24        -3.0972  -14.6389    8.0243 H         1 <0>         0.0433
     53 H25        -3.7199  -13.0463    8.5183 H         1 <0>         0.0883
@<TRIPOS>BOND
     1    1    2 1
     2    1   29 1
     3    1   30 1
     4    1   31 1
     5    2    3 1
     6    2   32 1
     7    2   33 1
     8    3    4 1
     9    4    9 ar
    10    4    5 ar
    11    5    6 ar
    12    5   34 1
    13    6    7 ar
    14    6   35 1
    15    7    8 ar
    16    7   11 1
    17    8    9 ar
    18    8   10 1
    19    9   36 1
    20   10   37 1
    21   10   38 1
    22   10   39 1
    23   11   12 am
    24   11   40 1
    25   12   13 2
    26   12   14 1
    27   14   15 2
    28   14   16 am
    29   16   17 1
    30   16   41 1
    31   17   18 1
    32   17   42 1
    33   17   43 1
    34   18   23 ar
    35   18   19 ar
    36   19   20 ar
    37   19   44 1
    38   20   21 ar
    39   20   45 1
    40   21   22 ar
    41   21   24 1
    42   22   23 ar
    43   23   46 1
    44   24   25 1
    45   25   26 1
    46   25   47 1
    47   25   48 1
    48   26   27 1
    49   26   49 1
    50   26   50 1
    51   27   28 1
    52   28   51 1
    53   28   52 1
    54   28   53 1
@<TRIPOS>MOLECULE
ZINC63617533
   49    51     0     0     0
SMALL
USER_CHARGES

@<TRIPOS>ATOM
      1 C1         -0.0281    1.5007    0.0348 C.3       1 <0>        -0.1125
      2 C2         -0.0091   -0.0291    0.0166 C.3       1 <0>        -0.0400
      3 H1          0.5112   -0.3963   -0.8681 H         1 <0>         0.1511
      4 C3         -1.4210   -0.5845    0.0784 C.2       1 <0>        -0.1450
      5 C4         -1.4402   -1.2878    1.2127 C.2       1 <0>        -0.0425
      6 N1         -0.2414   -1.2299    1.8339 N.2       1 <0>        -0.1700
      7 N2          0.6125   -0.5570    1.2431 N.2       1 <0>        -0.1463
      8 C5         -2.5406   -0.3870   -0.9108 C.3       1 <0>         0.1848
      9 N3         -3.2414    0.8643   -0.6118 N.am      1 <0>        -0.7306
     10 C6         -4.2861    1.2496   -1.3711 C.2       1 <0>         0.5155
     11 O1         -4.6461    0.5605   -2.3019 O.2       1 <0>        -0.5314
     12 C7         -5.0070    2.5368   -1.0635 C.3       1 <0>        -0.1380
     13 C8         -6.1437    2.7373   -2.0678 C.3       1 <0>        -0.1057
     14 C9         -6.8755    4.0441   -1.7555 C.3       1 <0>        -0.0923
     15 C10        -8.0122    4.2446   -2.7598 C.3       1 <0>         0.0421
     16 H2         -7.6417    4.2185   -3.7845 H         1 <0>         0.1493
     17 N4         -8.7584    5.4944   -2.4876 N.2       1 <0>        -0.1213
     18 N5         -9.9727    5.4937   -2.4376 N.2       1 <0>        -0.1277
     19 C11       -10.7372    4.2429   -2.6476 C.3       1 <0>         0.0040
     20 H3        -11.1900    4.2159   -3.6387 H         1 <0>         0.1641
     21 S1         -9.3648    3.0111   -2.5011 S.3       1 <0>        -0.2435
     22 C12       -11.7723    4.0447   -1.5704 C.2       1 <0>         0.5455
     23 O2        -11.6187    3.1804   -0.7334 O.2       1 <0>        -0.4821
     24 N6        -12.8686    4.8278   -1.5370 N.am      1 <0>        -0.6562
     25 C13       -13.8756    4.5820   -0.5971 C.ar      1 <0>         0.1377
     26 C14       -15.2068    4.7923   -0.9324 C.ar      1 <0>        -0.1396
     27 C15       -16.1984    4.5488   -0.0024 C.ar      1 <0>        -0.1017
     28 C16       -15.8669    4.0962    1.2615 C.ar      1 <0>        -0.1295
     29 C17       -14.5424    3.8862    1.5986 C.ar      1 <0>        -0.1016
     30 C18       -13.5465    4.1219    0.6711 C.ar      1 <0>        -0.1187
     31 H4          0.9949    1.8768    0.0331 H         1 <0>         0.0818
     32 H5         -0.5517    1.8680   -0.8478 H         1 <0>         0.0768
     33 H6         -0.5411    1.8470    0.9320 H         1 <0>         0.0632
     34 H7         -2.2975   -1.8298    1.5837 H         1 <0>         0.1780
     35 H8         -2.1304   -0.3416   -1.9196 H         1 <0>         0.0874
     36 H9         -3.2393   -1.2206   -0.8399 H         1 <0>         0.0890
     37 H10        -2.9535    1.4155    0.1327 H         1 <0>         0.4031
     38 H11        -5.4172    2.4914   -0.0547 H         1 <0>         0.0992
     39 H12        -4.3083    3.3704   -1.1344 H         1 <0>         0.0998
     40 H13        -5.7334    2.7827   -3.0766 H         1 <0>         0.0783
     41 H14        -6.8424    1.9037   -1.9969 H         1 <0>         0.0787
     42 H15        -7.2858    3.9987   -0.7467 H         1 <0>         0.0846
     43 H16        -6.1768    4.8777   -1.8264 H         1 <0>         0.0986
     44 H17       -12.9596    5.5618   -2.1646 H         1 <0>         0.4173
     45 H18       -15.4663    5.1462   -1.9192 H         1 <0>         0.1274
     46 H19       -17.2338    4.7125   -0.2624 H         1 <0>         0.1285
     47 H20       -16.6442    3.9065    1.9869 H         1 <0>         0.1253
     48 H21       -14.2867    3.5329    2.5866 H         1 <0>         0.1273
     49 H22       -12.5125    3.9529    0.9334 H         1 <0>         0.1377
@<TRIPOS>BOND
     1    1    2 1
     2    1   31 1
     3    1   32 1
     4    1   33 1
     5    2    3 1
     6    2    7 1
     7    2    4 1
     8    4    5 2
     9    4    8 1
    10    5    6 1
    11    5   34 1
    12    6    7 2
    13    8    9 1
    14    8   35 1
    15    8   36 1
    16    9   10 am
    17    9   37 1
    18   10   11 2
    19   10   12 1
    20   12   13 1
    21   12   38 1
    22   12   39 1
    23   13   14 1
    24   13   40 1
    25   13   41 1
    26   14   15 1
    27   14   42 1
    28   14   43 1
    29   15   16 1
    30   15   21 1
    31   15   17 1
    32   17   18 2
    33   18   19 1
    34   19   20 1
    35   19   21 1
    36   19   22 1
    37   22   23 2
    38   22   24 am
    39   24   25 1
    40   24   44 1
    41   25   30 ar
    42   25   26 ar
    43   26   27 ar
    44   26   45 1
    45   27   28 ar
    46   27   46 1
    47   28   29 ar
    48   28   47 1
    49   29   30 ar
    50   29   48 1
    51   30   49 1
@<TRIPOS>MOLECULE
ZINC67147044
   47    49     0     0     0
SMALL
USER_CHARGES

@<TRIPOS>ATOM
      1 C1         -0.0167    1.3785    0.0096 C.ar      1 <0>        -0.1749
      2 C2          1.1816    2.0721    0.0019 C.ar      1 <0>        -0.0325
      3 C3          2.3713    1.3394   -0.0134 C.ar      1 <0>        -0.0941
      4 C4          2.3056   -0.0522   -0.0202 C.ar      1 <0>         0.1584
      5 N1          1.1416   -0.6686   -0.0129 N.ar      1 <0>        -0.4837
      6 C5          0.0021   -0.0041    0.0020 C.ar      1 <0>         0.1252
      7 C6          3.6837    2.0325   -0.0227 C.2       1 <0>         0.3018
      8 N2          4.8875    1.4329   -0.0429 N.2       1 <0>        -0.5331
      9 C7          5.8324    2.3294   -0.0466 C.2       1 <0>         0.3002
     10 O1          5.2663    3.5430   -0.0289 O.3       1 <0>        -0.0968
     11 N3          3.8625    3.3304   -0.0183 N.2       1 <0>        -0.3318
     12 C8          7.3128    2.0485   -0.0669 C.3       1 <0>        -0.0231
     13 C9          7.7964    1.9658   -1.5161 C.3       1 <0>        -0.1392
     14 C10         9.2768    1.6848   -1.5364 C.2       1 <0>         0.5216
     15 O2          9.8852    1.5628   -0.4944 O.2       1 <0>        -0.5342
     16 N4          9.9247    1.5692   -2.7126 N.am      1 <0>        -0.7232
     17 C11        11.3639    1.2961   -2.7323 C.3       1 <0>         0.0903
     18 C12        11.8475    1.2134   -4.1815 C.3       1 <0>         0.0994
     19 H1         11.2570    0.4721   -4.7199 H         1 <0>         0.1196
     20 C13        13.3219    0.8057   -4.2047 C.3       1 <0>         0.0278
     21 O3         13.7423    0.6152   -5.5571 O.3       1 <0>        -0.2996
     22 C14        15.0360    0.2476   -5.7554 C.ar      1 <0>         0.1190
     23 C15        15.8809    0.0686   -4.6700 C.ar      1 <0>        -0.1821
     24 C16        17.1954   -0.3049   -4.8729 C.ar      1 <0>        -0.1122
     25 C17        17.6696   -0.5002   -6.1590 C.ar      1 <0>         0.0615
     26 C18        16.8275   -0.3214   -7.2433 C.ar      1 <0>        -0.1119
     27 C19        15.5108    0.0456   -7.0429 C.ar      1 <0>        -0.1205
     28 F1         18.9554   -0.8650   -6.3560 F         1 <0>        -0.1392
     29 O4         11.6961    2.4890   -4.8077 O.3       1 <0>        -0.5466
     30 H2         -0.9558    1.9116    0.0259 H         1 <0>         0.1474
     31 H3          1.1964    3.1519    0.0072 H         1 <0>         0.1445
     32 H4          3.2175   -0.6309   -0.0320 H         1 <0>         0.1720
     33 H5         -0.9307   -0.5484    0.0084 H         1 <0>         0.1660
     34 H6          7.8419    2.8507    0.4475 H         1 <0>         0.1162
     35 H7          7.5100    1.1020    0.4365 H         1 <0>         0.1257
     36 H8          7.2672    1.1636   -2.0305 H         1 <0>         0.1092
     37 H9          7.5992    2.9123   -2.0195 H         1 <0>         0.1066
     38 H10         9.4381    1.6668   -3.5460 H         1 <0>         0.4091
     39 H11        11.8930    2.0983   -2.2180 H         1 <0>         0.0785
     40 H12        11.5610    0.3496   -2.2290 H         1 <0>         0.0843
     41 H13        13.9230    1.5898   -3.7444 H         1 <0>         0.0725
     42 H14        13.4507   -0.1237   -3.6499 H         1 <0>         0.0782
     43 H15        15.5114    0.2215   -3.6668 H         1 <0>         0.1372
     44 H16        17.8535   -0.4443   -4.0280 H         1 <0>         0.1395
     45 H17        17.1988   -0.4737   -8.2460 H         1 <0>         0.1443
     46 H18        14.8527    0.1803   -7.8887 H         1 <0>         0.1430
     47 H19        12.1951    3.1986   -4.3805 H         1 <0>         0.3797
@<TRIPOS>BOND
     1    1    6 ar
     2    1    2 ar
     3    1   30 1
     4    2    3 ar
     5    2   31 1
     6    3    4 ar
     7    3    7 1
     8    4    5 ar
     9    4   32 1
    10    5    6 ar
    11    6   33 1
    12    7   11 2
    13    7    8 1
    14    8    9 2
    15    9   10 1
    16    9   12 1
    17   10   11 1
    18   12   13 1
    19   12   34 1
    20   12   35 1
    21   13   14 1
    22   13   36 1
    23   13   37 1
    24   14   15 2
    25   14   16 am
    26   16   17 1
    27   16   38 1
    28   17   18 1
    29   17   39 1
    30   17   40 1
    31   18   19 1
    32   18   20 1
    33   18   29 1
    34   20   21 1
    35   20   41 1
    36   20   42 1
    37   21   22 1
    38   22   27 ar
    39   22   23 ar
    40   23   24 ar
    41   23   43 1
    42   24   25 ar
    43   24   44 1
    44   25   26 ar
    45   25   28 1
    46   26   27 ar
    47   26   45 1
    48   27   46 1
    49   29   47 1
@<TRIPOS>MOLECULE
ZINC08942831
   57    59     0     0     0
SMALL
USER_CHARGES
N-[2-(5-isobutylamino-3-methylsulfanyl-2,4,8,9-tetrazabicyclo[4.3.0]nona-1,3,5,7-tetraen-9-yl)ethyl]-2-(m-tolyl)acetamide
@<TRIPOS>ATOM
      1 C1         -5.8539   -6.3494    6.7201 C.3       1 <0>        -0.1154
      2 C2         -4.5437   -6.5227    5.9960 C.ar      1 <0>        -0.0853
      3 C3         -3.4758   -7.1261    6.6341 C.ar      1 <0>        -0.1195
      4 C4         -2.2743   -7.2855    5.9699 C.ar      1 <0>        -0.1143
      5 C5         -2.1414   -6.8451    4.6661 C.ar      1 <0>        -0.1108
      6 C6         -3.2075   -6.2376    4.0299 C.ar      1 <0>        -0.0665
      7 C7         -4.4097   -6.0790    4.6940 C.ar      1 <0>        -0.1059
      8 C8         -3.0613   -5.7537    2.6102 C.3       1 <0>        -0.1001
      9 C9         -2.5822   -4.3249    2.6133 C.2       1 <0>         0.5165
     10 O1         -2.3794   -3.7556    3.6648 O.2       1 <0>        -0.5228
     11 N1         -2.3791   -3.6797    1.4475 N.am      1 <0>        -0.7313
     12 C10        -1.9134   -2.2907    1.4506 C.3       1 <0>         0.1062
     13 C11        -1.7650   -1.7994    0.0092 C.3       1 <0>         0.1343
     14 N2         -1.2992   -0.4104    0.0122 N.pl3     1 <0>        -0.3765
     15 C12         0.0021   -0.0041    0.0020 C.ar      1 <0>         0.3861
     16 C13        -0.0170    1.4043    0.0098 C.ar      1 <0>        -0.3400
     17 C14        -1.3723    1.7991    0.0304 C.2       1 <0>         0.1119
     18 N3         -2.1142    0.7285    0.0261 N.2       1 <0>        -0.2503
     19 C15         1.2132    2.0915    0.0017 C.ar      1 <0>         0.5310
     20 N4          2.3349    1.3821   -0.0120 N.ar      1 <0>        -0.6078
     21 C16         2.3074    0.0540   -0.0189 C.ar      1 <0>         0.3870
     22 N5          1.1763   -0.6321   -0.0122 N.ar      1 <0>        -0.5584
     23 S1          3.8336   -0.8263   -0.0383 S.3       1 <0>         0.0180
     24 C17         4.9964    0.5608   -0.0413 C.3       1 <0>        -0.1443
     25 N6          1.2509    3.4719    0.0083 N.pl3     1 <0>        -0.6933
     26 C18         2.5390    4.1696   -0.0002 C.3       1 <0>         0.1297
     27 C19         2.3006    5.6809    0.0096 C.3       1 <0>        -0.1104
     28 C20         1.6312    6.0830    1.3253 C.3       1 <0>        -0.1510
     29 C21         3.6394    6.4093   -0.1250 C.3       1 <0>        -0.1454
     30 H1         -6.4815   -7.2243    6.5501 H         1 <0>         0.0706
     31 H2         -5.6669   -6.2383    7.7881 H         1 <0>         0.0666
     32 H3         -6.3611   -5.4602    6.3456 H         1 <0>         0.0656
     33 H4         -3.5807   -7.4732    7.6514 H         1 <0>         0.1213
     34 H5         -1.4402   -7.7572    6.4682 H         1 <0>         0.1227
     35 H6         -1.2037   -6.9730    4.1458 H         1 <0>         0.1194
     36 H7         -5.2439   -5.6080    4.1954 H         1 <0>         0.1187
     37 H8         -4.0255   -5.8125    2.1052 H         1 <0>         0.1049
     38 H9         -2.3380   -6.3783    2.0860 H         1 <0>         0.1057
     39 H10        -2.5413   -4.1350    0.6066 H         1 <0>         0.4028
     40 H11        -0.9492   -2.2319    1.9556 H         1 <0>         0.0745
     41 H12        -2.6367   -1.6661    1.9747 H         1 <0>         0.0760
     42 H13        -2.7292   -1.8582   -0.4958 H         1 <0>         0.1044
     43 H14        -1.0416   -2.4240   -0.5149 H         1 <0>         0.1051
     44 H15        -1.7331    2.8170    0.0413 H         1 <0>         0.1945
     45 H16         4.8277    1.1744   -0.9262 H         1 <0>         0.0909
     46 H17         4.8444    1.1643    0.8536 H         1 <0>         0.0909
     47 H18         6.0173    0.1791   -0.0531 H         1 <0>         0.1065
     48 H19         0.4244    3.9796    0.0186 H         1 <0>         0.4132
     49 H20         3.1115    3.8863    0.8830 H         1 <0>         0.0721
     50 H21         3.0949    3.8953   -0.8969 H         1 <0>         0.0715
     51 H22         1.6539    5.9521   -0.8248 H         1 <0>         0.0775
     52 H23         0.6775    5.5641    1.4212 H         1 <0>         0.0535
     53 H24         2.2780    5.8118    2.1598 H         1 <0>         0.0588
     54 H25         1.4614    7.1597    1.3323 H         1 <0>         0.0605
     55 H26         4.1162    6.1228   -1.0623 H         1 <0>         0.0589
     56 H27         3.4695    7.4859   -0.1180 H         1 <0>         0.0622
     57 H28         4.2861    6.1380    0.7095 H         1 <0>         0.0594
@<TRIPOS>BOND
     1    1    2 1
     2    1   30 1
     3    1   31 1
     4    1   32 1
     5    2    7 ar
     6    2    3 ar
     7    3    4 ar
     8    3   33 1
     9    4    5 ar
    10    4   34 1
    11    5    6 ar
    12    5   35 1
    13    6    7 ar
    14    6    8 1
    15    7   36 1
    16    8    9 1
    17    8   37 1
    18    8   38 1
    19    9   10 2
    20    9   11 am
    21   11   12 1
    22   11   39 1
    23   12   13 1
    24   12   40 1
    25   12   41 1
    26   13   14 1
    27   13   42 1
    28   13   43 1
    29   14   18 1
    30   14   15 1
    31   15   22 ar
    32   15   16 ar
    33   16   17 1
    34   16   19 ar
    35   17   18 2
    36   17   44 1
    37   19   20 ar
    38   19   25 1
    39   20   21 ar
    40   21   22 ar
    41   21   23 1
    42   23   24 1
    43   24   45 1
    44   24   46 1
    45   24   47 1
    46   25   26 1
    47   25   48 1
    48   26   27 1
    49   26   49 1
    50   26   50 1
    51   27   28 1
    52   27   29 1
    53   27   51 1
    54   28   52 1
    55   28   53 1
    56   28   54 1
    57   29   55 1
    58   29   56 1
    59   29   57 1
@<TRIPOS>MOLECULE
ZINC18239310
   52    53     0     0     0
SMALL
USER_CHARGES
ethyl 5-[[4-[(E)-3-ethoxy-3-oxo-prop-1-enyl]phenyl]carbamoyl]-2,4-dimethyl-1H-pyrrole-3-carboxylate
@<TRIPOS>ATOM
      1 C1          1.4565    2.8106    2.3501 C.3       1 <0>        -0.1530
      2 C2          1.5128    1.5707    1.4554 C.3       1 <0>         0.0609
      3 O1          0.2571    0.8905    1.5044 O.3       1 <0>        -0.3515
      4 C3          0.1392   -0.2322    0.7652 C.2       1 <0>         0.5022
      5 O2          1.0783   -0.6220    0.0973 O.2       1 <0>        -0.5170
      6 C4         -1.0789   -0.9574    0.7668 C.2       1 <0>        -0.2147
      7 C5         -1.1969   -2.0815    0.0265 C.2       1 <0>         0.0164
      8 C6         -2.4593   -2.8331    0.0282 C.ar      1 <0>        -0.1033
      9 C7         -3.5396   -2.3895    0.8008 C.ar      1 <0>        -0.0697
     10 C8         -4.7218   -3.0936    0.7953 C.ar      1 <0>        -0.1238
     11 C9         -4.8411   -4.2515    0.0318 C.ar      1 <0>         0.1677
     12 C10        -3.7678   -4.6994   -0.7332 C.ar      1 <0>        -0.1502
     13 C11        -2.5838   -3.9984   -0.7382 C.ar      1 <0>        -0.0643
     14 N1         -6.0386   -4.9641    0.0331 N.am      1 <0>        -0.6753
     15 C12        -7.2115   -4.3106    0.1496 C.2       1 <0>         0.5943
     16 O3         -7.2320   -3.0940    0.1569 O.2       1 <0>        -0.4954
     17 C13        -8.4641   -5.0664    0.2676 C.2       1 <0>        -0.0678
     18 C14        -9.7112   -4.5300    0.3962 C.2       1 <0>        -0.0089
     19 C15       -10.6195   -5.6101    0.4750 C.2       1 <0>        -0.2130
     20 C16        -9.8748   -6.7729    0.3979 C.2       1 <0>         0.1263
     21 N2         -8.5806   -6.4394    0.2733 N.pl3     1 <0>        -0.5247
     22 H1         -7.8437   -7.0659    0.1991 H         1 <0>         0.4218
     23 C17       -10.4231   -8.1758    0.4455 C.3       1 <0>        -0.1018
     24 C18       -12.0820   -5.5153    0.6177 C.2       1 <0>         0.5481
     25 O4        -12.5837   -5.4809    1.7241 O.2       1 <0>        -0.4953
     26 O5        -12.8642   -5.4667   -0.4787 O.3       1 <0>        -0.3500
     27 C19       -14.2970   -5.3736   -0.2626 C.3       1 <0>         0.0594
     28 C20       -15.0147   -5.3296   -1.6131 C.3       1 <0>        -0.1534
     29 C21       -10.0559   -3.0637    0.4425 C.3       1 <0>        -0.1015
     30 H2          2.4143    3.3294    2.3127 H         1 <0>         0.0801
     31 H3          0.6684    3.4767    1.9988 H         1 <0>         0.0670
     32 H4          1.2465    2.5089    3.3763 H         1 <0>         0.0668
     33 H5          2.3008    0.9046    1.8068 H         1 <0>         0.0676
     34 H6          1.7228    1.8724    0.4293 H         1 <0>         0.0677
     35 H7         -1.9126   -0.6113    1.3598 H         1 <0>         0.1418
     36 H8         -0.3632   -2.4276   -0.5664 H         1 <0>         0.1404
     37 H9         -3.4465   -1.4937    1.3969 H         1 <0>         0.1362
     38 H10        -5.5570   -2.7497    1.3874 H         1 <0>         0.1415
     39 H11        -3.8647   -5.5982   -1.3240 H         1 <0>         0.1315
     40 H12        -1.7517   -4.3466   -1.3320 H         1 <0>         0.1359
     41 H13        -6.0280   -5.9305   -0.0498 H         1 <0>         0.4062
     42 H14       -10.4553   -8.5184    1.4798 H         1 <0>         0.0899
     43 H15       -11.4297   -8.1869    0.0275 H         1 <0>         0.0891
     44 H16        -9.7807   -8.8369   -0.1363 H         1 <0>         0.0809
     45 H17       -14.6366   -6.2425    0.3012 H         1 <0>         0.0714
     46 H18       -14.5217   -4.4662    0.2980 H         1 <0>         0.0720
     47 H19       -14.7899   -6.2370   -2.1737 H         1 <0>         0.0668
     48 H20       -16.0903   -5.2597   -1.4509 H         1 <0>         0.0815
     49 H21       -14.6750   -4.4607   -2.1769 H         1 <0>         0.0678
     50 H22       -10.2414   -2.7020   -0.5689 H         1 <0>         0.0791
     51 H23       -10.9497   -2.9195    1.0495 H         1 <0>         0.0660
     52 H24        -9.2260   -2.5090    0.8802 H         1 <0>         0.0905
@<TRIPOS>BOND
     1    1    2 1
     2    1   30 1
     3    1   31 1
     4    1   32 1
     5    2    3 1
     6    2   33 1
     7    2   34 1
     8    3    4 1
     9    4    5 2
    10    4    6 1
    11    6    7 2
    12    6   35 1
    13    7    8 1
    14    7   36 1
    15    8   13 ar
    16    8    9 ar
    17    9   10 ar
    18    9   37 1
    19   10   11 ar
    20   10   38 1
    21   11   12 ar
    22   11   14 1
    23   12   13 ar
    24   12   39 1
    25   13   40 1
    26   14   15 am
    27   14   41 1
    28   15   16 2
    29   15   17 1
    30   17   21 1
    31   17   18 2
    32   18   19 1
    33   18   29 1
    34   19   20 2
    35   19   24 1
    36   20   21 1
    37   20   23 1
    38   21   22 1
    39   23   42 1
    40   23   43 1
    41   23   44 1
    42   24   25 2
    43   24   26 1
    44   26   27 1
    45   27   28 1
    46   27   45 1
    47   27   46 1
    48   28   47 1
    49   28   48 1
    50   28   49 1
    51   29   50 1
    52   29   51 1
    53   29   52 1
@<TRIPOS>MOLECULE
ZINC45258228
   47    49     0     0     0
SMALL
USER_CHARGES

@<TRIPOS>ATOM
      1 C1         -0.3804    1.6606   -0.1893 C.ar      1 <0>        -0.0300
      2 C2          0.7413    2.4576   -0.1521 C.ar      1 <0>        -0.1356
      3 C3          1.9868    1.8968    0.1133 C.ar      1 <0>         0.1852
      4 C4          2.1032    0.5291    0.3421 C.ar      1 <0>        -0.1590
      5 C5          0.9858   -0.2739    0.3065 C.ar      1 <0>        -0.0361
      6 C6         -0.2672    0.2862    0.0406 C.ar      1 <0>        -0.1463
      7 C7         -1.4667   -0.5708    0.0021 C.2       1 <0>         0.5161
      8 O1         -2.5550   -0.0826   -0.2296 O.2       1 <0>        -0.5022
      9 O2         -1.3558   -1.8953    0.2238 O.3       1 <0>        -0.3255
     10 C8         -2.5587   -2.6648    0.1713 C.3       1 <0>         0.0507
     11 C9         -2.2410   -4.1128    0.4418 C.2       1 <0>         0.5160
     12 O3         -1.0969   -4.4525    0.6584 O.2       1 <0>        -0.4938
     13 N1         -3.2281   -5.0305    0.4432 N.am      1 <0>        -0.6678
     14 C10        -2.9513   -6.3566    0.8010 C.ar      1 <0>         0.1221
     15 C11        -3.6449   -7.3977    0.1987 C.ar      1 <0>        -0.1073
     16 C12        -3.3713   -8.7044    0.5515 C.ar      1 <0>        -0.1135
     17 C13        -2.4040   -8.9770    1.5077 C.ar      1 <0>         0.0923
     18 C14        -1.7110   -7.9373    2.1102 C.ar      1 <0>        -0.1686
     19 C15        -1.9793   -6.6304    1.7539 C.ar      1 <0>        -0.0812
     20 O4         -2.1354  -10.2639    1.8549 O.3       1 <0>        -0.3199
     21 C16        -1.1274  -10.4715    2.8463 C.3       1 <0>         0.4113
     22 F1          0.0866   -9.9428    2.3948 F         1 <0>        -0.1972
     23 F2         -1.5018   -9.8323    4.0331 F         1 <0>        -0.1980
     24 N2          3.1207    2.7069    0.1497 N.am      1 <0>        -0.6714
     25 C17         3.0411    3.9554    0.6511 C.2       1 <0>         0.5449
     26 O5          1.9675    4.4045    0.9924 O.2       1 <0>        -0.5126
     27 C18         4.2862    4.7934    0.7876 C.3       1 <0>        -0.2000
     28 C19         4.7795    5.1002    2.2030 C.3       1 <0>        -0.1491
     29 C20         4.1299    6.2022    1.3636 C.3       1 <0>        -0.1440
     30 H1         -1.3473    2.0972   -0.3913 H         1 <0>         0.1432
     31 H2          0.6546    3.5194   -0.3296 H         1 <0>         0.1487
     32 H3          3.0715    0.0972    0.5475 H         1 <0>         0.1376
     33 H4          1.0771   -1.3354    0.4835 H         1 <0>         0.1469
     34 H5         -3.2571   -2.2992    0.9241 H         1 <0>         0.1065
     35 H6         -3.0078   -2.5699   -0.8174 H         1 <0>         0.1054
     36 H7         -4.1301   -4.7729    0.1964 H         1 <0>         0.4152
     37 H8         -4.3985   -7.1856   -0.5453 H         1 <0>         0.1390
     38 H9         -3.9108   -9.5143    0.0831 H         1 <0>         0.1412
     39 H10        -0.9585   -8.1502    2.8551 H         1 <0>         0.1380
     40 H11        -1.4362   -5.8213    2.2195 H         1 <0>         0.1418
     41 H12        -1.0126  -11.5398    3.0296 H         1 <0>         0.1835
     42 H13         3.9670    2.3721   -0.1858 H         1 <0>         0.4166
     43 H14         5.0386    4.6471    0.0127 H         1 <0>         0.1293
     44 H15         4.2036    4.6960    3.0354 H         1 <0>         0.1012
     45 H16         5.8568    5.1557    2.3595 H         1 <0>         0.1089
     46 H17         4.7798    6.9827    0.9679 H         1 <0>         0.1075
     47 H18         3.1266    6.5229    1.6438 H         1 <0>         0.1101
@<TRIPOS>BOND
     1    1    6 ar
     2    1    2 ar
     3    1   30 1
     4    2    3 ar
     5    2   31 1
     6    3    4 ar
     7    3   24 1
     8    4    5 ar
     9    4   32 1
    10    5    6 ar
    11    5   33 1
    12    6    7 1
    13    7    8 2
    14    7    9 1
    15    9   10 1
    16   10   11 1
    17   10   34 1
    18   10   35 1
    19   11   12 2
    20   11   13 am
    21   13   14 1
    22   13   36 1
    23   14   19 ar
    24   14   15 ar
    25   15   16 ar
    26   15   37 1
    27   16   17 ar
    28   16   38 1
    29   17   18 ar
    30   17   20 1
    31   18   19 ar
    32   18   39 1
    33   19   40 1
    34   20   21 1
    35   21   22 1
    36   21   23 1
    37   21   41 1
    38   24   25 am
    39   24   42 1
    40   25   26 2
    41   25   27 1
    42   27   29 1
    43   27   28 1
    44   27   43 1
    45   28   29 1
    46   28   44 1
    47   28   45 1
    48   29   46 1
    49   29   47 1
@<TRIPOS>MOLECULE
ZINC46130743
   59    61     0     0     0
SMALL
USER_CHARGES

@<TRIPOS>ATOM
      1 C1         -0.0293    2.2418   -2.1841 C.3       1 <0>        -0.1473
      2 C2          0.6251    1.6347   -0.9415 C.3       1 <0>        -0.0881
      3 C3          1.2464    0.3088   -1.2980 C.ar      1 <0>        -0.0529
      4 C4          0.5020   -0.8525   -1.1964 C.ar      1 <0>        -0.1318
      5 C5          1.0682   -2.0709   -1.5225 C.ar      1 <0>        -0.0879
      6 C6          2.3800   -2.1321   -1.9510 C.ar      1 <0>        -0.1520
      7 C7          3.1301   -0.9680   -2.0541 C.ar      1 <0>         0.1481
      8 C8          2.5565    0.2552   -1.7311 C.ar      1 <0>        -0.1395
      9 N1          4.4588   -1.0265   -2.4872 N.pl3     1 <0>        -0.6717
     10 C9          4.8080   -1.8637   -3.5079 C.2       1 <0>         0.7003
     11 N2          3.8787   -2.2320   -4.4364 N.pl3     1 <0>        -0.6865
     12 C10         4.2119   -3.2393   -5.4466 C.3       1 <0>         0.1252
     13 C11         3.0039   -3.4669   -6.3576 C.3       1 <0>         0.0641
     14 H1          2.1297   -3.7174   -5.7567 H         1 <0>         0.0876
     15 C12         3.3037   -4.6119   -7.3487 C.3       1 <0>        -0.1462
     16 C13         2.6496   -4.0939   -8.6586 C.3       1 <0>        -0.1563
     17 C14         2.8938   -2.5695   -8.5263 C.3       1 <0>         0.0490
     18 O1          2.7440   -2.2852   -7.1244 O.3       1 <0>        -0.3762
     19 N3          6.0484   -2.3181   -3.5964 N.2       1 <0>        -0.6772
     20 C15         6.9133   -2.1048   -2.5951 C.2       1 <0>         0.5473
     21 O2          6.5171   -1.6598   -1.5323 O.2       1 <0>        -0.5669
     22 C16         8.3488   -2.4094   -2.7802 C.ar      1 <0>        -0.1184
     23 C17         8.8050   -2.9139   -3.9994 C.ar      1 <0>        -0.0495
     24 C18        10.1430   -3.1970   -4.1710 C.ar      1 <0>        -0.1931
     25 C19        11.0396   -2.9817   -3.1334 C.ar      1 <0>         0.1266
     26 C20        10.5903   -2.4783   -1.9138 C.ar      1 <0>         0.0835
     27 C21         9.2510   -2.1877   -1.7379 C.ar      1 <0>        -0.1202
     28 O3         11.4709   -2.2683   -0.8989 O.3       1 <0>        -0.3062
     29 C22        10.9409   -1.7506    0.3231 C.3       1 <0>         0.0251
     30 O4         12.3571   -3.2625   -3.3068 O.3       1 <0>        -0.3035
     31 C23        12.7487   -3.7762   -4.5815 C.3       1 <0>         0.0243
     32 H2          0.7254    2.3901   -2.9565 H         1 <0>         0.0558
     33 H3         -0.8009    1.5670   -2.5548 H         1 <0>         0.0570
     34 H4         -0.4787    3.2008   -1.9263 H         1 <0>         0.0599
     35 H5          1.3967    2.3095   -0.5708 H         1 <0>         0.0733
     36 H6         -0.1295    1.4864   -0.1692 H         1 <0>         0.0754
     37 H7         -0.5237   -0.8074   -0.8613 H         1 <0>         0.1254
     38 H8          0.4844   -2.9759   -1.4418 H         1 <0>         0.1281
     39 H9          2.8218   -3.0842   -2.2053 H         1 <0>         0.1229
     40 H10         3.1358    1.1628   -1.8148 H         1 <0>         0.1257
     41 H11         2.9974   -1.8268   -4.4277 H         1 <0>         0.4153
     42 H12         5.0557   -2.8912   -6.0423 H         1 <0>         0.0852
     43 H13         4.4765   -4.1747   -4.9536 H         1 <0>         0.0856
     44 H14         4.3783   -4.7425   -7.4770 H         1 <0>         0.0851
     45 H15         2.8353   -5.5404   -7.0220 H         1 <0>         0.0879
     46 H16         3.1543   -4.4979   -9.5362 H         1 <0>         0.0869
     47 H17         1.5837   -4.3204   -8.6816 H         1 <0>         0.0801
     48 H18         3.9008   -2.3174   -8.8587 H         1 <0>         0.0634
     49 H19         2.1540   -2.0162   -9.1048 H         1 <0>         0.0871
     50 H20         5.1322   -0.4723   -2.0625 H         1 <0>         0.4325
     51 H21         8.1094   -3.0826   -4.8081 H         1 <0>         0.1437
     52 H22        10.4945   -3.5875   -5.1145 H         1 <0>         0.1400
     53 H23         8.9021   -1.7934   -0.7949 H         1 <0>         0.1448
     54 H24        11.7471   -1.6305    1.0468 H         1 <0>         0.1019
     55 H25        10.4738   -0.7837    0.1358 H         1 <0>         0.0554
     56 H26        10.1975   -2.4426    0.7188 H         1 <0>         0.0558
     57 H27        12.2222   -4.7110   -4.7739 H         1 <0>         0.0572
     58 H28        12.4989   -3.0523   -5.3572 H         1 <0>         0.0571
     59 H29        13.8235   -3.9570   -4.5858 H         1 <0>         0.1021
@<TRIPOS>BOND
     1    1    2 1
     2    1   32 1
     3    1   33 1
     4    1   34 1
     5    2    3 1
     6    2   35 1
     7    2   36 1
     8    3    8 ar
     9    3    4 ar
    10    4    5 ar
    11    4   37 1
    12    5    6 ar
    13    5   38 1
    14    6    7 ar
    15    6   39 1
    16    7    8 ar
    17    7    9 1
    18    8   40 1
    19    9   50 1
    20    9   10 1
    21   10   11 1
    22   10   19 2
    23   11   12 1
    24   11   41 1
    25   12   13 1
    26   12   42 1
    27   12   43 1
    28   13   14 1
    29   13   18 1
    30   13   15 1
    31   15   16 1
    32   15   44 1
    33   15   45 1
    34   16   17 1
    35   16   46 1
    36   16   47 1
    37   17   18 1
    38   17   48 1
    39   17   49 1
    40   19   20 1
    41   20   21 2
    42   20   22 1
    43   22   27 ar
    44   22   23 ar
    45   23   24 ar
    46   23   51 1
    47   24   25 ar
    48   24   52 1
    49   25   26 ar
    50   25   30 1
    51   26   27 ar
    52   26   28 1
    53   27   53 1
    54   28   29 1
    55   29   54 1
    56   29   55 1
    57   29   56 1
    58   30   31 1
    59   31   57 1
    60   31   58 1
    61   31   59 1
@<TRIPOS>MOLECULE
ZINC67553022
   55    56     0     0     0
SMALL
USER_CHARGES

@<TRIPOS>ATOM
      1 C1         -2.0096    1.0651    1.7936 C.3       1 <0>        -0.1512
      2 C2         -2.5749    0.1010    0.7487 C.3       1 <0>         0.0745
      3 C3         -3.5424    0.8525   -0.1679 C.3       1 <0>        -0.1808
      4 O1         -1.5048   -0.4395   -0.0289 O.3       1 <0>        -0.3069
      5 C4         -1.6988   -1.6670   -0.5751 C.ar      1 <0>         0.1516
      6 C5         -0.6559   -2.3021   -1.2398 C.ar      1 <0>        -0.1576
      7 C6         -0.8476   -3.5468   -1.7958 C.ar      1 <0>        -0.0480
      8 C7         -2.0950   -4.1730   -1.6906 C.ar      1 <0>        -0.1258
      9 C8         -3.1415   -3.5294   -1.0199 C.ar      1 <0>        -0.0538
     10 C9         -2.9379   -2.2871   -0.4629 C.ar      1 <0>        -0.2162
     11 C10        -2.3054   -5.5018   -2.2829 C.2       1 <0>         0.0074
     12 C11        -3.5094   -6.1038   -2.1800 C.2       1 <0>        -0.2338
     13 C12        -3.7186   -7.4255   -2.7692 C.2       1 <0>         0.5500
     14 O2         -2.8071   -7.9832   -3.3524 O.2       1 <0>        -0.5247
     15 N1         -4.9206   -8.0264   -2.6665 N.am      1 <0>        -0.6697
     16 C13        -5.0922   -9.3316   -3.1376 C.ar      1 <0>         0.1672
     17 C14        -6.3030   -9.7138   -3.7024 C.ar      1 <0>        -0.1566
     18 C15        -6.4730  -11.0030   -4.1684 C.ar      1 <0>        -0.0782
     19 C16        -5.4404  -11.9165   -4.0746 C.ar      1 <0>        -0.1342
     20 C17        -4.2278  -11.5410   -3.5107 C.ar      1 <0>         0.1784
     21 C18        -4.0518  -10.2452   -3.0468 C.ar      1 <0>        -0.1431
     22 N2         -3.1830  -12.4672   -3.4153 N.am      1 <0>        -0.6479
     23 C19        -3.0338  -13.4146   -4.3621 C.2       1 <0>         0.6514
     24 O3         -3.7408  -13.4027   -5.3503 O.2       1 <0>        -0.5508
     25 O4         -2.1012  -14.3744   -4.2131 O.3       1 <0>        -0.3525
     26 C20        -1.9982  -15.3464   -5.2555 C.3       1 <0>         0.0866
     27 C21        -0.8932  -16.3473   -4.9122 C.3       1 <0>         0.0607
     28 O5         -1.2630  -17.0832   -3.7444 O.3       1 <0>        -0.3868
     29 C22        -0.2939  -18.0506   -3.3359 C.3       1 <0>         0.0303
     30 H1         -2.8258    1.4774    2.3868 H         1 <0>         0.0789
     31 H2         -1.3203    0.5297    2.4467 H         1 <0>         0.0659
     32 H3         -1.4798    1.8749    1.2920 H         1 <0>         0.0686
     33 H4         -3.1046   -0.7088    1.2504 H         1 <0>         0.0762
     34 H5         -3.9451    0.1657   -0.9124 H         1 <0>         0.0627
     35 H6         -4.3586    1.2648    0.4252 H         1 <0>         0.0744
     36 H7         -3.0126    1.6623   -0.6696 H         1 <0>         0.0693
     37 H8          0.3061   -1.8180   -1.3204 H         1 <0>         0.1361
     38 H9         -0.0370   -4.0390   -2.3126 H         1 <0>         0.1369
     39 H10        -4.1059   -4.0084   -0.9360 H         1 <0>         0.1308
     40 H11        -3.7436   -1.7914    0.0583 H         1 <0>         0.1344
     41 H12        -1.4967   -5.9966   -2.8003 H         1 <0>         0.1371
     42 H13        -4.3180   -5.6090   -1.6626 H         1 <0>         0.1312
     43 H14        -5.6667   -7.5534   -2.2659 H         1 <0>         0.4136
     44 H15        -7.1121   -9.0022   -3.7768 H         1 <0>         0.1289
     45 H16        -7.4150  -11.2977   -4.6067 H         1 <0>         0.1332
     46 H17        -5.5765  -12.9237   -4.4399 H         1 <0>         0.1377
     47 H18        -3.1083   -9.9495   -2.6123 H         1 <0>         0.1399
     48 H19        -2.5662  -12.4272   -2.6677 H         1 <0>         0.4189
     49 H20        -2.9472  -15.8732   -5.3562 H         1 <0>         0.0808
     50 H21        -1.7580  -14.8479   -6.1946 H         1 <0>         0.0881
     51 H22        -0.7541  -17.0352   -5.7462 H         1 <0>         0.0782
     52 H23         0.0371  -15.8112   -4.7244 H         1 <0>         0.0636
     53 H24        -0.1424  -18.7739   -4.1372 H         1 <0>         0.0431
     54 H25         0.6488  -17.5499   -3.1154 H         1 <0>         0.0436
     55 H26        -0.6489  -18.5661   -2.4435 H         1 <0>         0.0885
@<TRIPOS>BOND
     1    1    2 1
     2    1   30 1
     3    1   31 1
     4    1   32 1
     5    2    3 1
     6    2    4 1
     7    2   33 1
     8    3   34 1
     9    3   35 1
    10    3   36 1
    11    4    5 1
    12    5   10 ar
    13    5    6 ar
    14    6    7 ar
    15    6   37 1
    16    7    8 ar
    17    7   38 1
    18    8    9 ar
    19    8   11 1
    20    9   10 ar
    21    9   39 1
    22   10   40 1
    23   11   12 2
    24   11   41 1
    25   12   13 1
    26   12   42 1
    27   13   14 2
    28   13   15 am
    29   15   16 1
    30   15   43 1
    31   16   21 ar
    32   16   17 ar
    33   17   18 ar
    34   17   44 1
    35   18   19 ar
    36   18   45 1
    37   19   20 ar
    38   19   46 1
    39   20   21 ar
    40   20   22 1
    41   21   47 1
    42   22   23 am
    43   22   48 1
    44   23   24 2
    45   23   25 1
    46   25   26 1
    47   26   27 1
    48   26   49 1
    49   26   50 1
    50   27   28 1
    51   27   51 1
    52   27   52 1
    53   28   29 1
    54   29   53 1
    55   29   54 1
    56   29   55 1
@<TRIPOS>MOLECULE
ZINC14039285
   65    68     0     0     0
SMALL
USER_CHARGES
N-[4-(phenethylsulfamoyl)phenyl]-4-(2-phenoxyethoxy)benzamide
@<TRIPOS>ATOM
      1 C1          1.1407   10.7125   -2.5355 C.ar      1 <0>        -0.1209
      2 C2          2.2494   10.8589   -1.7228 C.ar      1 <0>        -0.1174
      3 C3          3.2227    9.8776   -1.6983 C.ar      1 <0>        -0.1136
      4 C4          3.0876    8.7502   -2.4868 C.ar      1 <0>        -0.0866
      5 C5          1.9818    8.6066   -3.3037 C.ar      1 <0>        -0.1149
      6 C6          1.0059    9.5854   -3.3243 C.ar      1 <0>        -0.1190
      7 C7          4.1490    7.6807   -2.4604 C.3       1 <0>        -0.0870
      8 C8          3.8101    6.6525   -1.3793 C.3       1 <0>         0.1205
      9 N1          4.8418    5.6128   -1.3536 N.pl3     1 <0>        -1.1180
     10 S1          4.9474    4.5827   -0.0612 S.o2      1 <0>         2.6968
     11 O1          4.9207    5.3921    1.1064 O.2       1 <0>        -0.9549
     12 O2          6.0134    3.6862   -0.3424 O.2       1 <0>        -0.9560
     13 C9          3.4718    3.6200   -0.0404 C.ar      1 <0>        -0.6946
     14 C10         3.4198    2.4222   -0.7295 C.ar      1 <0>         0.0025
     15 C11         2.2649    1.6649   -0.7149 C.ar      1 <0>        -0.1432
     16 C12         1.1548    2.1079   -0.0075 C.ar      1 <0>         0.2049
     17 C13         1.2083    3.3145    0.6784 C.ar      1 <0>        -0.1664
     18 C14         2.3684    4.0637    0.6652 C.ar      1 <0>        -0.0005
     19 N2         -0.0162    1.3436    0.0094 N.am      1 <0>        -0.6752
     20 C15         0.0574   -0.0022    0.0081 C.2       1 <0>         0.5670
     21 O3          1.1373   -0.5519   -0.0929 O.2       1 <0>        -0.5100
     22 C16        -1.1726   -0.8086    0.1291 C.ar      1 <0>        -0.1829
     23 C17        -2.4141   -0.1787    0.2510 C.ar      1 <0>        -0.0399
     24 C18        -3.5600   -0.9348    0.3580 C.ar      1 <0>        -0.2186
     25 C19        -3.4819   -2.3226    0.3564 C.ar      1 <0>         0.1665
     26 C20        -2.2484   -2.9529    0.2411 C.ar      1 <0>        -0.1574
     27 C21        -1.0984   -2.2041    0.1279 C.ar      1 <0>        -0.0111
     28 O4         -4.6131   -3.0642    0.4672 O.3       1 <0>        -0.3003
     29 C22        -5.8468   -2.3523    0.5822 C.3       1 <0>         0.0583
     30 C23        -7.0020   -3.3490    0.6963 C.3       1 <0>         0.0603
     31 O5         -6.8762   -4.0866    1.9138 O.3       1 <0>        -0.3089
     32 C24        -7.8292   -5.0208    2.1705 C.ar      1 <0>         0.1279
     33 C25        -8.8673   -5.2194    1.2719 C.ar      1 <0>        -0.2108
     34 C26        -9.8315   -6.1739    1.5321 C.ar      1 <0>        -0.0800
     35 C27        -9.7693   -6.9225    2.6930 C.ar      1 <0>        -0.1574
     36 C28        -8.7388   -6.7224    3.5929 C.ar      1 <0>        -0.0796
     37 C29        -7.7688   -5.7734    3.3343 C.ar      1 <0>        -0.1508
     38 H1          0.3801   11.4790   -2.5544 H         1 <0>         0.1217
     39 H2          2.3549   11.7396   -1.1068 H         1 <0>         0.1233
     40 H3          4.0889    9.9919   -1.0634 H         1 <0>         0.1243
     41 H4          1.8784    7.7278   -3.9230 H         1 <0>         0.1220
     42 H5          0.1399    9.4713   -3.9595 H         1 <0>         0.1220
     43 H6          5.1158    8.1336   -2.2408 H         1 <0>         0.0841
     44 H7          4.1913    7.1867   -3.4311 H         1 <0>         0.0819
     45 H8          2.8433    6.1996   -1.5989 H         1 <0>         0.0681
     46 H9          3.7678    7.1465   -0.4085 H         1 <0>         0.0837
     47 H10         5.4632    5.5277   -2.0936 H         1 <0>         0.4202
     48 H11         4.2834    2.0783   -1.2794 H         1 <0>         0.1449
     49 H12         2.2252    0.7292   -1.2526 H         1 <0>         0.1503
     50 H13         0.3452    3.6641    1.2255 H         1 <0>         0.1371
     51 H14         2.4125    4.9993    1.2029 H         1 <0>         0.1450
     52 H15        -0.8814    1.7819    0.0181 H         1 <0>         0.4136
     53 H16        -2.4751    0.8995    0.2569 H         1 <0>         0.1290
     54 H17        -4.5203   -0.4488    0.4474 H         1 <0>         0.1371
     55 H18        -2.1920   -4.0314    0.2398 H         1 <0>         0.1428
     56 H19        -0.1404   -2.6946    0.0380 H         1 <0>         0.1469
     57 H20        -5.8213   -1.7224    1.4714 H         1 <0>         0.0798
     58 H21        -5.9904   -1.7292   -0.3005 H         1 <0>         0.0900
     59 H22        -7.9490   -2.8094    0.6947 H         1 <0>         0.0880
     60 H23        -6.9738   -4.0362   -0.1493 H         1 <0>         0.0770
     61 H24        -8.9191   -4.6316    0.3673 H         1 <0>         0.1266
     62 H25       -10.6374   -6.3321    0.8308 H         1 <0>         0.1256
     63 H26       -10.5266   -7.6649    2.8970 H         1 <0>         0.1249
     64 H27        -8.6920   -7.3089    4.4987 H         1 <0>         0.1305
     65 H28        -6.9643   -5.6173    4.0378 H         1 <0>         0.1309
@<TRIPOS>BOND
     1    1    6 ar
     2    1    2 ar
     3    1   38 1
     4    2    3 ar
     5    2   39 1
     6    3    4 ar
     7    3   40 1
     8    4    5 ar
     9    4    7 1
    10    5    6 ar
    11    5   41 1
    12    6   42 1
    13    7    8 1
    14    7   43 1
    15    7   44 1
    16    8    9 1
    17    8   45 1
    18    8   46 1
    19    9   10 1
    20    9   47 1
    21   10   11 2
    22   10   12 2
    23   10   13 1
    24   13   18 ar
    25   13   14 ar
    26   14   15 ar
    27   14   48 1
    28   15   16 ar
    29   15   49 1
    30   16   17 ar
    31   16   19 1
    32   17   18 ar
    33   17   50 1
    34   18   51 1
    35   19   20 am
    36   19   52 1
    37   20   21 2
    38   20   22 1
    39   22   27 ar
    40   22   23 ar
    41   23   24 ar
    42   23   53 1
    43   24   25 ar
    44   24   54 1
    45   25   26 ar
    46   25   28 1
    47   26   27 ar
    48   26   55 1
    49   27   56 1
    50   28   29 1
    51   29   30 1
    52   29   57 1
    53   29   58 1
    54   30   31 1
    55   30   59 1
    56   30   60 1
    57   31   32 1
    58   32   37 ar
    59   32   33 ar
    60   33   34 ar
    61   33   61 1
    62   34   35 ar
    63   34   62 1
    64   35   36 ar
    65   35   63 1
    66   36   37 ar
    67   36   64 1
    68   37   65 1
@<TRIPOS>MOLECULE
ZINC20865836
   70    72     0     0     0
SMALL
USER_CHARGES
4-[[2-(3,4-diethoxyphenyl)ethylamino]methyl]-2,5-dimethyl-1-(p-tolylmethyl)pyrrole-3-carboxylic acid
@<TRIPOS>ATOM
      1 C1         -3.6627    3.6262    4.5465 C.3       1 <0>        -0.1550
      2 C2         -2.4203    2.7661    4.7865 C.3       1 <0>         0.0502
      3 O1         -1.8623    2.3744    3.5306 O.3       1 <0>        -0.3028
      4 C3         -0.7449    1.6000    3.5661 C.ar      1 <0>         0.1134
      5 C4         -0.2012    1.2209    4.7829 C.ar      1 <0>        -0.1710
      6 C5          0.9380    0.4384    4.8171 C.ar      1 <0>        -0.1021
      7 C6          1.5339    0.0277    3.6392 C.ar      1 <0>        -0.0979
      8 C7          0.9932    0.3977    2.4218 C.ar      1 <0>        -0.1661
      9 C8         -0.1484    1.1819    2.3804 C.ar      1 <0>         0.1048
     10 O2         -0.6816    1.5467    1.1837 O.3       1 <0>        -0.3022
     11 C9         -0.0127    1.0858    0.0080 C.3       1 <0>         0.0531
     12 C10        -0.7527    1.5927   -1.2315 C.3       1 <0>        -0.1563
     13 C11         2.7753   -0.8256    3.6823 C.3       1 <0>        -0.0975
     14 C12         4.0125    0.0744    3.6953 C.3       1 <0>        -0.0002
     15 N1          5.2226   -0.7574    3.7373 N.4       1 <0>        -0.5371
     16 C13         6.4332    0.0747    3.7508 C.3       1 <0>         0.0928
     17 C14         7.6514   -0.8114    3.7940 C.2       1 <0>        -0.2306
     18 C15         8.3272   -1.3035    2.7412 C.2       1 <0>         0.0507
     19 N2          9.3684   -2.0601    3.1937 N.pl3     1 <0>        -0.4195
     20 C16         9.3882   -2.0735    4.5397 C.2       1 <0>         0.0377
     21 C17         8.3390   -1.3031    4.9935 C.2       1 <0>        -0.1390
     22 C18         7.9799   -1.0322    6.3941 C.2       1 <0>         0.5119
     23 O3          7.2124   -1.7715    6.9787 O.co2     1 <0>        -0.6349
     24 O4          8.5019    0.0360    7.0291 O.co2     1 <0>        -0.7414
     25 C19        10.3879   -2.8006    5.4016 C.3       1 <0>        -0.0887
     26 C20        10.3287   -2.7594    2.3362 C.3       1 <0>         0.1376
     27 C21        11.4935   -1.8500    2.0409 C.ar      1 <0>        -0.1221
     28 C22        11.4630   -1.0257    0.9316 C.ar      1 <0>        -0.0976
     29 C23        12.5296   -0.1884    0.6631 C.ar      1 <0>        -0.1228
     30 C24        13.6307   -0.1820    1.4988 C.ar      1 <0>        -0.0728
     31 C25        13.6635   -1.0101    2.6052 C.ar      1 <0>        -0.1182
     32 C26        12.5950   -1.8443    2.8761 C.ar      1 <0>        -0.0930
     33 C27        14.7951    0.7281    1.2041 C.3       1 <0>        -0.1214
     34 C28         7.9894   -1.0580    1.2932 C.3       1 <0>        -0.0964
     35 H1         -4.0922    3.9277    5.5132 H         1 <0>         0.0816
     36 H2         -4.4061    3.0464    3.9798 H         1 <0>         0.0680
     37 H3         -3.3829    4.5228    3.9739 H         1 <0>         0.0681
     38 H4         -1.6769    3.3459    5.3532 H         1 <0>         0.0644
     39 H5         -2.7000    1.8695    5.3591 H         1 <0>         0.0642
     40 H6         -0.6648    1.5403    5.7045 H         1 <0>         0.1394
     41 H7          1.3631    0.1470    5.7662 H         1 <0>         0.1323
     42 H8          1.4609    0.0758    1.5031 H         1 <0>         0.1352
     43 H9          1.0193    1.4665    0.0002 H         1 <0>         0.0605
     44 H10         0.0022   -0.0141    0.0020 H         1 <0>         0.0617
     45 H11        -0.2378    1.2379   -2.1365 H         1 <0>         0.0804
     46 H12        -0.7676    2.6926   -1.2254 H         1 <0>         0.0686
     47 H13        -1.7847    1.2120   -1.2237 H         1 <0>         0.0688
     48 H14         2.7630   -1.4452    4.5911 H         1 <0>         0.0987
     49 H15         2.8042   -1.4759    2.7956 H         1 <0>         0.0913
     50 H16         4.0248    0.6940    2.7865 H         1 <0>         0.1228
     51 H17         3.9836    0.7247    4.5820 H         1 <0>         0.1293
     52 H18         5.2103   -1.3769    4.6462 H         1 <0>         0.4592
     53 H19         6.4624    0.6942    2.8423 H         1 <0>         0.1193
     54 H20         6.4212    0.7251    4.6378 H         1 <0>         0.1315
     55 H21        10.1519   -2.6280    6.4620 H         1 <0>         0.0894
     56 H22        11.3993   -2.4261    5.1854 H         1 <0>         0.0676
     57 H23        10.3422   -3.8784    5.1865 H         1 <0>         0.0658
     58 H24        10.6896   -3.6624    2.8503 H         1 <0>         0.1022
     59 H25         9.8385   -3.0452    1.3938 H         1 <0>         0.0987
     60 H26        10.6043   -1.0335    0.2766 H         1 <0>         0.1199
     61 H27        12.5038    0.4588   -0.2011 H         1 <0>         0.1238
     62 H28        14.5237   -1.0051    3.2582 H         1 <0>         0.1262
     63 H29        12.6206   -2.4912    3.7405 H         1 <0>         0.1252
     64 H30        15.5696    0.5934    1.9735 H         1 <0>         0.0680
     65 H31        14.4532    1.7736    1.2071 H         1 <0>         0.0725
     66 H32        15.2124    0.4816    0.2166 H         1 <0>         0.0721
     67 H33         8.7129   -1.5847    0.6535 H         1 <0>         0.0715
     68 H34         8.0329    0.0211    1.0844 H         1 <0>         0.0811
     69 H35         6.9759   -1.4312    1.0848 H         1 <0>         0.0706
     70 H36         5.2515   -1.4077    2.8506 H         1 <0>         0.4350
@<TRIPOS>BOND
     1    1    2 1
     2    1   35 1
     3    1   36 1
     4    1   37 1
     5    2    3 1
     6    2   38 1
     7    2   39 1
     8    3    4 1
     9    4    9 ar
    10    4    5 ar
    11    5    6 ar
    12    5   40 1
    13    6    7 ar
    14    6   41 1
    15    7    8 ar
    16    7   13 1
    17    8    9 ar
    18    8   42 1
    19    9   10 1
    20   10   11 1
    21   11   12 1
    22   11   43 1
    23   11   44 1
    24   12   45 1
    25   12   46 1
    26   12   47 1
    27   13   14 1
    28   13   48 1
    29   13   49 1
    30   14   15 1
    31   14   50 1
    32   14   51 1
    33   15   16 1
    34   15   52 1
    35   15   70 1
    36   16   17 1
    37   16   53 1
    38   16   54 1
    39   17   21 1
    40   17   18 2
    41   18   19 1
    42   18   34 1
    43   19   20 1
    44   19   26 1
    45   20   21 2
    46   20   25 1
    47   21   22 1
    48   22   23 2
    49   22   24 1
    50   25   55 1
    51   25   56 1
    52   25   57 1
    53   26   27 1
    54   26   58 1
    55   26   59 1
    56   27   32 ar
    57   27   28 ar
    58   28   29 ar
    59   28   60 1
    60   29   30 ar
    61   29   61 1
    62   30   31 ar
    63   30   33 1
    64   31   32 ar
    65   31   62 1
    66   32   63 1
    67   33   64 1
    68   33   65 1
    69   33   66 1
    70   34   67 1
    71   34   68 1
    72   34   69 1
@<TRIPOS>MOLECULE
ZINC39568906
   63    65     0     0     0
SMALL
USER_CHARGES

@<TRIPOS>ATOM
      1 C1         -0.0187    1.5258    0.0104 C.3       1 <0>        -0.1477
      2 C2          0.0021   -0.0041    0.0020 C.3       1 <0>        -0.0882
      3 C3          0.7309   -0.5033    1.2229 C.ar      1 <0>        -0.0773
      4 C4          2.0970   -0.7095    1.1762 C.ar      1 <0>        -0.1130
      5 C5          2.7656   -1.1675    2.2961 C.ar      1 <0>        -0.1020
      6 C6          2.0682   -1.4187    3.4629 C.ar      1 <0>        -0.1004
      7 C7          0.7022   -1.2116    3.5099 C.ar      1 <0>        -0.1111
      8 C8          0.0343   -0.7496    2.3912 C.ar      1 <0>        -0.1133
      9 C9          2.7969   -1.9189    4.6834 C.3       1 <0>         0.1862
     10 H1          3.8587   -1.6903    4.5917 H         1 <0>         0.1002
     11 C10         2.6096   -3.4325    4.8047 C.3       1 <0>        -0.1597
     12 N1          2.2575   -1.2629    5.8772 N.am      1 <0>        -0.7170
     13 C11         3.0209   -1.1388    6.9810 C.2       1 <0>         0.5388
     14 O1          4.1544   -1.5702    6.9860 O.2       1 <0>        -0.5197
     15 C12         2.4661   -0.4641    8.2089 C.3       1 <0>        -0.1601
     16 S1          3.7255   -0.4537    9.5144 S.3       1 <0>         0.1258
     17 C13         2.9342    0.3573   10.8637 C.2       1 <0>         0.0246
     18 N2          1.7123    0.8479   10.9439 N.2       1 <0>        -0.2772
     19 N3          1.2910    1.4484   12.1077 N.2       1 <0>        -0.3714
     20 C14         2.1102    1.5309   13.1376 C.2       1 <0>         0.3520
     21 S2          3.5693    0.7279   12.4917 S.3       1 <0>        -0.0021
     22 N4          1.8943    2.0886   14.3923 N.pl3     1 <0>        -0.6710
     23 C15         0.6000    2.6964   14.7109 C.3       1 <0>         0.1356
     24 C16         0.6265    3.2308   16.1443 C.3       1 <0>        -0.0868
     25 C17        -0.7049    3.8560   16.4721 C.ar      1 <0>        -0.0832
     26 C18        -0.9187    5.1976   16.2155 C.ar      1 <0>        -0.1069
     27 C19        -2.1383    5.7759   16.5143 C.ar      1 <0>        -0.1704
     28 C20        -3.1499    5.0105   17.0718 C.ar      1 <0>         0.1018
     29 C21        -2.9348    3.6600   17.3297 C.ar      1 <0>         0.1020
     30 C22        -1.7116    3.0856   17.0233 C.ar      1 <0>        -0.1647
     31 O2         -3.9246    2.9047   17.8768 O.3       1 <0>        -0.3055
     32 C23        -3.6328    1.5260   18.1138 C.3       1 <0>         0.0253
     33 O3         -4.3501    5.5779   17.3668 O.3       1 <0>        -0.3061
     34 C24        -4.4991    6.9689   17.0754 C.3       1 <0>         0.0253
     35 H2          1.0039    1.9031    0.0027 H         1 <0>         0.0560
     36 H3         -0.5459    1.8868   -0.8726 H         1 <0>         0.0594
     37 H4         -0.5289    1.8773    0.9072 H         1 <0>         0.0557
     38 H5         -1.0205   -0.3814    0.0098 H         1 <0>         0.0727
     39 H6          0.5123   -0.3556   -0.8948 H         1 <0>         0.0730
     40 H7          2.6419   -0.5132    0.2646 H         1 <0>         0.1245
     41 H8          3.8328   -1.3293    2.2593 H         1 <0>         0.1256
     42 H9          0.1573   -1.4082    4.4213 H         1 <0>         0.1203
     43 H10        -1.0323   -0.5842    2.4291 H         1 <0>         0.1236
     44 H11         1.5478   -3.6610    4.8964 H         1 <0>         0.0602
     45 H12         3.0109   -3.9206    3.9165 H         1 <0>         0.0707
     46 H13         3.1367   -3.7943    5.6875 H         1 <0>         0.0671
     47 H14         1.3510   -0.9179    5.8732 H         1 <0>         0.4037
     48 H15         2.1868    0.5610    7.9653 H         1 <0>         0.1281
     49 H16         1.5872   -1.0073    8.5562 H         1 <0>         0.1282
     50 H17         2.6007    2.0753   15.0570 H         1 <0>         0.4214
     51 H18         0.4043    3.5171   14.0208 H         1 <0>         0.0765
     52 H19        -0.1862    1.9473   14.6169 H         1 <0>         0.0750
     53 H20         0.8223    2.4101   16.8345 H         1 <0>         0.0826
     54 H21         1.4127    3.9799   16.2383 H         1 <0>         0.0851
     55 H22        -0.1310    5.7953   15.7810 H         1 <0>         0.1287
     56 H23        -2.3025    6.8243   16.3135 H         1 <0>         0.1373
     57 H24        -1.5434    2.0368   17.2189 H         1 <0>         0.1362
     58 H25        -2.7898    1.4458   18.8001 H         1 <0>         0.0552
     59 H26        -4.5049    1.0400   18.5512 H         1 <0>         0.1021
     60 H27        -3.3811    1.0406   17.1708 H         1 <0>         0.0554
     61 H28        -4.3513    7.1345   16.0083 H         1 <0>         0.0558
     62 H29        -5.5003    7.2941   17.3583 H         1 <0>         0.1019
     63 H30        -3.7596    7.5392   17.6375 H         1 <0>         0.0556
@<TRIPOS>BOND
     1    1    2 1
     2    1   35 1
     3    1   36 1
     4    1   37 1
     5    2    3 1
     6    2   38 1
     7    2   39 1
     8    3    8 ar
     9    3    4 ar
    10    4    5 ar
    11    4   40 1
    12    5    6 ar
    13    5   41 1
    14    6    7 ar
    15    6    9 1
    16    7    8 ar
    17    7   42 1
    18    8   43 1
    19    9   10 1
    20    9   11 1
    21    9   12 1
    22   11   44 1
    23   11   45 1
    24   11   46 1
    25   12   13 am
    26   12   47 1
    27   13   14 2
    28   13   15 1
    29   15   16 1
    30   15   48 1
    31   15   49 1
    32   16   17 1
    33   17   21 1
    34   17   18 2
    35   18   19 1
    36   19   20 2
    37   20   21 1
    38   20   22 1
    39   22   23 1
    40   22   50 1
    41   23   24 1
    42   23   51 1
    43   23   52 1
    44   24   25 1
    45   24   53 1
    46   24   54 1
    47   25   30 ar
    48   25   26 ar
    49   26   27 ar
    50   26   55 1
    51   27   28 ar
    52   27   56 1
    53   28   29 ar
    54   28   33 1
    55   29   30 ar
    56   29   31 1
    57   30   57 1
    58   31   32 1
    59   32   58 1
    60   32   59 1
    61   32   60 1
    62   33   34 1
    63   34   61 1
    64   34   62 1
    65   34   63 1
@<TRIPOS>MOLECULE
ZINC09409126
   70    73     0     0     0
SMALL
USER_CHARGES

@<TRIPOS>ATOM
      1 C1          0.7201    2.3596    0.8089 C.3       1 <0>        -0.1548
      2 C2          0.4633    0.8524    0.8664 C.3       1 <0>        -0.1240
      3 C3          1.4452    0.2047    1.8448 C.3       1 <0>        -0.1180
      4 C4          1.1883   -1.3025    1.9024 C.3       1 <0>        -0.1192
      5 C5          2.1703   -1.9502    2.8808 C.3       1 <0>         0.0590
      6 O1          1.9304   -3.3578    2.9345 O.3       1 <0>        -0.3126
      7 C6          2.7229   -4.0876    3.7629 C.ar      1 <0>         0.1375
      8 C7          3.7076   -3.4608    4.5131 C.ar      1 <0>        -0.1998
      9 C8          4.5115   -4.2046    5.3547 C.ar      1 <0>        -0.0749
     10 C9          4.3357   -5.5729    5.4500 C.ar      1 <0>        -0.1302
     11 C10         3.3556   -6.1999    4.7032 C.ar      1 <0>        -0.0577
     12 C11         2.5451   -5.4595    3.8642 C.ar      1 <0>        -0.1379
     13 C12         3.1671   -7.6913    4.8091 C.3       1 <0>         0.2488
     14 H1          2.2455   -7.9890    4.3090 H         1 <0>         0.1128
     15 C13         4.3414   -8.4062    4.1988 C.2       1 <0>        -0.1705
     16 C14         5.1115   -8.6471    3.0560 C.2       1 <0>         0.1184
     17 N1          6.0694   -9.4872    3.3956 N.2       1 <0>        -0.2273
     18 N2          5.9803   -9.8005    4.6391 N.pl3     1 <0>        -0.3334
     19 H2          6.5797  -10.4036    5.1059 H         1 <0>         0.4534
     20 C15         4.9168   -9.1573    5.2057 C.2       1 <0>        -0.0616
     21 C16         4.1511   -8.9478    6.4397 C.2       1 <0>         0.6001
     22 O2          4.4022   -9.4690    7.5095 O.2       1 <0>        -0.5142
     23 N3          3.1304   -8.0973    6.2201 N.am      1 <0>        -0.5931
     24 C17         2.1525   -7.6523    7.2160 C.3       1 <0>         0.1433
     25 C18         0.9583   -8.6087    7.2208 C.3       1 <0>        -0.1385
     26 C19        -0.0630   -8.1440    8.2610 C.3       1 <0>         0.0662
     27 O3         -1.1785   -9.0372    8.2655 O.3       1 <0>        -0.3819
     28 C20        -2.1962   -8.6915    9.2072 C.3       1 <0>         0.0816
     29 C21        -3.5565   -9.1530    8.6805 C.3       1 <0>        -0.1509
     30 C22        -1.9077   -9.3768   10.5444 C.3       1 <0>        -0.1768
     31 C23         4.8907   -8.0646    1.7089 C.ar      1 <0>        -0.0426
     32 C24         3.7663   -7.2812    1.4615 C.ar      1 <0>        -0.0821
     33 C25         3.5652   -6.7416    0.2071 C.ar      1 <0>        -0.1257
     34 C26         4.4773   -6.9762   -0.8066 C.ar      1 <0>        -0.0944
     35 C27         5.5962   -7.7525   -0.5718 C.ar      1 <0>        -0.1477
     36 C28         5.8133   -8.2951    0.6847 C.ar      1 <0>         0.1322
     37 O4          6.9163   -9.0530    0.9187 O.3       1 <0>        -0.4829
     38 H3          1.7410    2.5416    0.4730 H         1 <0>         0.0543
     39 H4          0.0206    2.8210    0.1118 H         1 <0>         0.0556
     40 H5          0.5818    2.7899    1.8007 H         1 <0>         0.0541
     41 H6         -0.5576    0.6704    1.2023 H         1 <0>         0.0633
     42 H7          0.6016    0.4221   -0.1254 H         1 <0>         0.0635
     43 H8          2.4661    0.3867    1.5089 H         1 <0>         0.0653
     44 H9          1.3069    0.6350    2.8367 H         1 <0>         0.0650
     45 H10         0.1675   -1.4845    2.2383 H         1 <0>         0.0744
     46 H11         1.3267   -1.7328    0.9105 H         1 <0>         0.0749
     47 H12         3.1911   -1.7681    2.5449 H         1 <0>         0.0628
     48 H13         2.0320   -1.5199    3.8726 H         1 <0>         0.0622
     49 H14         3.8455   -2.3922    4.4388 H         1 <0>         0.1290
     50 H15         5.2782   -3.7172    5.9386 H         1 <0>         0.1267
     51 H16         4.9653   -6.1528    6.1086 H         1 <0>         0.1177
     52 H17         1.7767   -5.9492    3.2844 H         1 <0>         0.1348
     53 H18         2.6162   -7.6451    8.2025 H         1 <0>         0.0929
     54 H19         1.8121   -6.6472    6.9672 H         1 <0>         0.0918
     55 H20         0.4946   -8.6159    6.2344 H         1 <0>         0.0773
     56 H21         1.2987   -9.6138    7.4697 H         1 <0>         0.0784
     57 H22         0.4006   -8.1368    9.2474 H         1 <0>         0.0515
     58 H23        -0.4034   -7.1389    8.0121 H         1 <0>         0.0516
     59 H24        -2.2088   -7.6107    9.3481 H         1 <0>         0.0599
     60 H25        -3.5438  -10.2338    8.5396 H         1 <0>         0.0639
     61 H26        -4.3327   -8.8893    9.3988 H         1 <0>         0.0699
     62 H27        -3.7619   -8.6648    7.7278 H         1 <0>         0.0614
     63 H28        -2.6840   -9.1131   11.2627 H         1 <0>         0.0658
     64 H29        -1.8951  -10.4576   10.4035 H         1 <0>         0.0643
     65 H30        -0.9386   -9.0479   10.9196 H         1 <0>         0.0562
     66 H31         3.0521   -7.0964    2.2503 H         1 <0>         0.1296
     67 H32         2.6927   -6.1345    0.0160 H         1 <0>         0.1299
     68 H33         4.3139   -6.5510   -1.7859 H         1 <0>         0.1288
     69 H34         6.3046   -7.9325   -1.3669 H         1 <0>         0.1320
     70 H35         6.7891   -9.9961    0.7470 H         1 <0>         0.3906
@<TRIPOS>BOND
     1    1    2 1
     2    1   38 1
     3    1   39 1
     4    1   40 1
     5    2    3 1
     6    2   41 1
     7    2   42 1
     8    3    4 1
     9    3   43 1
    10    3   44 1
    11    4    5 1
    12    4   45 1
    13    4   46 1
    14    5    6 1
    15    5   47 1
    16    5   48 1
    17    6    7 1
    18    7   12 ar
    19    7    8 ar
    20    8    9 ar
    21    8   49 1
    22    9   10 ar
    23    9   50 1
    24   10   11 ar
    25   10   51 1
    26   11   12 ar
    27   11   13 1
    28   12   52 1
    29   13   14 1
    30   13   23 1
    31   13   15 1
    32   15   20 2
    33   15   16 1
    34   16   17 2
    35   16   31 1
    36   17   18 1
    37   18   19 1
    38   18   20 1
    39   20   21 1
    40   21   22 2
    41   21   23 am
    42   23   24 1
    43   24   25 1
    44   24   53 1
    45   24   54 1
    46   25   26 1
    47   25   55 1
    48   25   56 1
    49   26   27 1
    50   26   57 1
    51   26   58 1
    52   27   28 1
    53   28   29 1
    54   28   30 1
    55   28   59 1
    56   29   60 1
    57   29   61 1
    58   29   62 1
    59   30   63 1
    60   30   64 1
    61   30   65 1
    62   31   36 ar
    63   31   32 ar
    64   32   33 ar
    65   32   66 1
    66   33   34 ar
    67   33   67 1
    68   34   35 ar
    69   34   68 1
    70   35   36 ar
    71   35   69 1
    72   36   37 1
    73   37   70 1
@<TRIPOS>MOLECULE
ZINC66199813
   70    71     0     0     0
SMALL
USER_CHARGES

@<TRIPOS>ATOM
      1 C1          9.2170   -9.9201  -12.4987 C.3       1 <0>        -0.1549
      2 C2          8.5446  -10.3616  -11.1972 C.3       1 <0>        -0.1234
      3 C3          8.1911   -9.1292  -10.3623 C.3       1 <0>        -0.1178
      4 C4          7.5187   -9.5707   -9.0608 C.3       1 <0>        -0.1200
      5 C5          7.1652   -8.3383   -8.2258 C.3       1 <0>         0.0667
      6 O1          6.5372   -8.7506   -7.0102 O.3       1 <0>        -0.3433
      7 C6          6.1621   -7.7827   -6.1593 C.2       1 <0>         0.4690
      8 O2          6.3605   -6.6237   -6.4373 O.2       1 <0>        -0.5065
      9 C7          5.4937   -8.1415   -4.8572 C.3       1 <0>        -0.1246
     10 C8          5.2872   -6.8750   -4.0239 C.3       1 <0>         0.1278
     11 H1          6.2371   -6.3521   -3.9131 H         1 <0>         0.1240
     12 C9          4.7549   -7.2461   -2.6667 C.2       1 <0>         0.5232
     13 O3          5.5084   -7.7686   -1.8728 O.2       1 <0>        -0.5280
     14 N1          3.4926   -7.0266   -2.2960 N.am      1 <0>        -0.7090
     15 C10         2.5025   -6.3295   -3.1054 C.3       1 <0>         0.0935
     16 C11         2.8915   -6.3609   -4.5847 C.3       1 <0>         0.0842
     17 N2          4.3169   -5.9970   -4.6947 N.pl3     1 <0>        -0.5739
     18 C12         4.7144   -4.9057   -5.3786 C.2       1 <0>         0.5527
     19 S1          3.5517   -3.8779   -6.1014 S.2       1 <0>        -0.5241
     20 N3          6.0273   -4.6237   -5.4934 N.am      1 <0>        -0.6133
     21 C13         6.4304   -3.5933   -6.2630 C.2       1 <0>         0.4944
     22 O4          5.6120   -2.9201   -6.8521 O.2       1 <0>        -0.3990
     23 C14         7.8984   -3.2779   -6.3914 C.3       1 <0>        -0.0626
     24 H2          8.3080   -3.0479   -5.4078 H         1 <0>         0.1037
     25 C15         8.6303   -4.4863   -6.9787 C.3       1 <0>        -0.1363
     26 C16         8.0794   -2.0902   -7.3011 C.ar      1 <0>        -0.0788
     27 C17         7.6293   -2.1449   -8.6070 C.ar      1 <0>        -0.0791
     28 C18         7.7953   -1.0555   -9.4415 C.ar      1 <0>        -0.1152
     29 C19         8.4109    0.0889   -8.9700 C.ar      1 <0>        -0.0723
     30 C20         8.8601    0.1440   -7.6639 C.ar      1 <0>        -0.1203
     31 C21         8.6903   -0.9439   -6.8281 C.ar      1 <0>        -0.1055
     32 C22         8.5927    1.2763   -9.8801 C.3       1 <0>        -0.0780
     33 C23         7.3739    2.1946   -9.7700 C.3       1 <0>        -0.0906
     34 C24         7.6121    3.4596  -10.5969 C.3       1 <0>        -0.1482
     35 C25         6.1367    1.4655  -10.2981 C.3       1 <0>        -0.1520
     36 H3          8.5351   -9.2830  -13.0620 H         1 <0>         0.0547
     37 H4         10.1260   -9.3647  -12.2678 H         1 <0>         0.0546
     38 H5          9.4688  -10.7981  -13.0935 H         1 <0>         0.0561
     39 H6          7.6355  -10.9170  -11.4281 H         1 <0>         0.0634
     40 H7          9.2264  -10.9987  -10.6339 H         1 <0>         0.0634
     41 H8          9.1001   -8.5738  -10.1313 H         1 <0>         0.0662
     42 H9          7.5092   -8.4921  -10.9255 H         1 <0>         0.0662
     43 H10         6.6097  -10.1261   -9.2917 H         1 <0>         0.0749
     44 H11         8.2005  -10.2078   -8.4975 H         1 <0>         0.0755
     45 H12         8.0742   -7.7829   -7.9949 H         1 <0>         0.0709
     46 H13         6.4834   -7.7012   -8.7891 H         1 <0>         0.0703
     47 H14         4.5279   -8.6045   -5.0600 H         1 <0>         0.1236
     48 H15         6.1230   -8.8404   -4.3061 H         1 <0>         0.1370
     49 H16         3.2145   -7.3539   -1.4263 H         1 <0>         0.4099
     50 H17         1.5327   -6.8108   -2.9792 H         1 <0>         0.1044
     51 H18         2.4337   -5.2933   -2.7744 H         1 <0>         0.0826
     52 H19         2.7353   -7.3627   -4.9849 H         1 <0>         0.0906
     53 H20         2.2861   -5.6441   -5.1394 H         1 <0>         0.1477
     54 H21         6.6821   -5.1622   -5.0221 H         1 <0>         0.4065
     55 H22         8.4994   -5.3454   -6.3207 H         1 <0>         0.0612
     56 H23         8.2207   -4.7163   -7.9623 H         1 <0>         0.0652
     57 H24         9.6921   -4.2582   -7.0716 H         1 <0>         0.0710
     58 H25         7.1484   -3.0390   -8.9754 H         1 <0>         0.1168
     59 H26         7.4443   -1.0985  -10.4620 H         1 <0>         0.1203
     60 H27         9.3413    1.0380   -7.2956 H         1 <0>         0.1207
     61 H28         9.0379   -0.8995   -5.8065 H         1 <0>         0.1195
     62 H29         9.4882    1.8245   -9.5876 H         1 <0>         0.0713
     63 H30         8.6969    0.9327  -10.9092 H         1 <0>         0.0716
     64 H31         7.2172    2.4669   -8.7263 H         1 <0>         0.0702
     65 H32         7.7687    3.1873  -11.6407 H         1 <0>         0.0546
     66 H33         6.7438    4.1138  -10.5185 H         1 <0>         0.0556
     67 H34         8.4935    3.9790  -10.2208 H         1 <0>         0.0539
     68 H35         5.2684    2.1198  -10.2196 H         1 <0>         0.0530
     69 H36         6.2933    1.1932  -11.3418 H         1 <0>         0.0526
     70 H37         5.9670    0.5643   -9.7089 H         1 <0>         0.0618
@<TRIPOS>BOND
     1    1    2 1
     2    1   36 1
     3    1   37 1
     4    1   38 1
     5    2    3 1
     6    2   39 1
     7    2   40 1
     8    3    4 1
     9    3   41 1
    10    3   42 1
    11    4    5 1
    12    4   43 1
    13    4   44 1
    14    5    6 1
    15    5   45 1
    16    5   46 1
    17    6    7 1
    18    7    8 2
    19    7    9 1
    20    9   10 1
    21    9   47 1
    22    9   48 1
    23   10   11 1
    24   10   17 1
    25   10   12 1
    26   12   13 2
    27   12   14 am
    28   14   15 1
    29   14   49 1
    30   15   16 1
    31   15   50 1
    32   15   51 1
    33   16   17 1
    34   16   52 1
    35   16   53 1
    36   17   18 1
    37   18   19 2
    38   18   20 1
    39   20   21 am
    40   20   54 1
    41   21   22 2
    42   21   23 1
    43   23   24 1
    44   23   25 1
    45   23   26 1
    46   25   55 1
    47   25   56 1
    48   25   57 1
    49   26   31 ar
    50   26   27 ar
    51   27   28 ar
    52   27   58 1
    53   28   29 ar
    54   28   59 1
    55   29   30 ar
    56   29   32 1
    57   30   31 ar
    58   30   60 1
    59   31   61 1
    60   32   33 1
    61   32   62 1
    62   32   63 1
    63   33   34 1
    64   33   35 1
    65   33   64 1
    66   34   65 1
    67   34   66 1
    68   34   67 1
    69   35   68 1
    70   35   69 1
    71   35   70 1
@<TRIPOS>MOLECULE
ZINC11178019
   57    59     0     0     0
SMALL
USER_CHARGES
[4-[(2-methoxyphenyl)carbamoyl]phenyl]carbamoylmethyl 3-(p-tolyl)prop-2-enoate
@<TRIPOS>ATOM
      1 C1         -4.8062   -4.8405    4.9795 C.3       1 <0>        -0.1215
      2 C2         -3.7156   -4.0991    4.2500 C.ar      1 <0>        -0.0650
      3 C3         -2.6797   -4.8031    3.6611 C.ar      1 <0>        -0.1262
      4 C4         -1.6779   -4.1321    2.9922 C.ar      1 <0>        -0.0827
      5 C5         -1.7106   -2.7363    2.9098 C.ar      1 <0>        -0.0956
      6 C6         -2.7577   -2.0318    3.5125 C.ar      1 <0>        -0.0889
      7 C7         -3.7550   -2.7178    4.1729 C.ar      1 <0>        -0.1251
      8 C8         -0.6454   -2.0123    2.1978 C.2       1 <0>         0.0091
      9 C9         -0.6803   -0.6658    2.1204 C.2       1 <0>        -0.2024
     10 C10         0.3782    0.0536    1.4129 C.2       1 <0>         0.5039
     11 O1          1.2899   -0.5618    0.8942 O.2       1 <0>        -0.5096
     12 O2          0.3433    1.4000    1.3356 O.3       1 <0>        -0.3253
     13 C11         1.4096    2.0372    0.6292 C.3       1 <0>         0.0500
     14 C12         1.2030    3.5298    0.6473 C.2       1 <0>         0.5166
     15 O3          0.2376    4.0015    1.2097 O.2       1 <0>        -0.4866
     16 N1          2.0910    4.3405    0.0385 N.am      1 <0>        -0.6668
     17 C13         1.8385    5.7090   -0.0511 C.ar      1 <0>         0.1796
     18 C14         0.5277    6.1752   -0.0386 C.ar      1 <0>        -0.1381
     19 C15         0.2750    7.5259   -0.1211 C.ar      1 <0>        -0.0589
     20 C16         1.3367    8.4284   -0.2291 C.ar      1 <0>        -0.1564
     21 C17         2.6520    7.9563   -0.2472 C.ar      1 <0>        -0.0307
     22 C18         2.8977    6.6047   -0.1586 C.ar      1 <0>        -0.1563
     23 C19         1.0694    9.8767   -0.3235 C.2       1 <0>         0.5632
     24 O4          1.9942   10.6608   -0.4170 O.2       1 <0>        -0.5216
     25 N2         -0.1995   10.3304   -0.3059 N.am      1 <0>        -0.6603
     26 C20        -0.4584   11.6939   -0.4934 C.ar      1 <0>         0.1153
     27 C21         0.4255   12.6437   -0.0020 C.ar      1 <0>        -0.0841
     28 C22         0.1703   13.9885   -0.1924 C.ar      1 <0>        -0.1374
     29 C23        -0.9701   14.3912   -0.8629 C.ar      1 <0>        -0.0930
     30 C24        -1.8582   13.4507   -1.3508 C.ar      1 <0>        -0.1918
     31 C25        -1.6071   12.1004   -1.1687 C.ar      1 <0>         0.1028
     32 O5         -2.4799   11.1743   -1.6477 O.3       1 <0>        -0.3199
     33 C26        -3.6362   11.6641   -2.3297 C.3       1 <0>         0.0286
     34 H1         -4.5294   -4.9548    6.0276 H         1 <0>         0.0753
     35 H2         -5.7375   -4.2786    4.9088 H         1 <0>         0.0699
     36 H3         -4.9403   -5.8243    4.5298 H         1 <0>         0.0697
     37 H4         -2.6561   -5.8810    3.7253 H         1 <0>         0.1283
     38 H5         -0.8701   -4.6828    2.5335 H         1 <0>         0.1303
     39 H6         -2.7874   -0.9537    3.4570 H         1 <0>         0.1313
     40 H7         -4.5665   -2.1755    4.6353 H         1 <0>         0.1283
     41 H8          0.1643   -2.5588    1.7372 H         1 <0>         0.1396
     42 H9         -1.4899   -0.1193    2.5810 H         1 <0>         0.1451
     43 H10         2.3583    1.7958    1.1087 H         1 <0>         0.1058
     44 H11         1.4238    1.6848   -0.4022 H         1 <0>         0.1071
     45 H12         2.9058    3.9720   -0.3374 H         1 <0>         0.4178
     46 H13        -0.2924    5.4768    0.0402 H         1 <0>         0.1509
     47 H14        -0.7426    7.8875   -0.1068 H         1 <0>         0.1310
     48 H15         3.4747    8.6511   -0.3302 H         1 <0>         0.1438
     49 H16         3.9139    6.2392   -0.1721 H         1 <0>         0.1370
     50 H17        -0.9336    9.7125   -0.1634 H         1 <0>         0.4129
     51 H18         1.3149   12.3321    0.5256 H         1 <0>         0.1475
     52 H19         0.8610   14.7269    0.1872 H         1 <0>         0.1291
     53 H20        -1.1677   15.4434   -1.0055 H         1 <0>         0.1272
     54 H21        -2.7481   13.7687   -1.8736 H         1 <0>         0.1324
     55 H22        -3.3265   12.2498   -3.1952 H         1 <0>         0.0567
     56 H23        -4.2468   10.8236   -2.6594 H         1 <0>         0.1015
     57 H24        -4.2171   12.2925   -1.6547 H         1 <0>         0.0569
@<TRIPOS>BOND
     1    1    2 1
     2    1   34 1
     3    1   35 1
     4    1   36 1
     5    2    7 ar
     6    2    3 ar
     7    3    4 ar
     8    3   37 1
     9    4    5 ar
    10    4   38 1
    11    5    6 ar
    12    5    8 1
    13    6    7 ar
    14    6   39 1
    15    7   40 1
    16    8    9 2
    17    8   41 1
    18    9   10 1
    19    9   42 1
    20   10   11 2
    21   10   12 1
    22   12   13 1
    23   13   14 1
    24   13   43 1
    25   13   44 1
    26   14   15 2
    27   14   16 am
    28   16   17 1
    29   16   45 1
    30   17   22 ar
    31   17   18 ar
    32   18   19 ar
    33   18   46 1
    34   19   20 ar
    35   19   47 1
    36   20   21 ar
    37   20   23 1
    38   21   22 ar
    39   21   48 1
    40   22   49 1
    41   23   24 2
    42   23   25 am
    43   25   26 1
    44   25   50 1
    45   26   31 ar
    46   26   27 ar
    47   27   28 ar
    48   27   51 1
    49   28   29 ar
    50   28   52 1
    51   29   30 ar
    52   29   53 1
    53   30   31 ar
    54   30   54 1
    55   31   32 1
    56   32   33 1
    57   33   55 1
    58   33   56 1
    59   33   57 1
@<TRIPOS>MOLECULE
ZINC18378131
   53    55     0     0     0
SMALL
USER_CHARGES
[(1S)-2-(4-acetyl-3,5-dimethyl-1H-pyrrol-2-yl)-1-methyl-2-oxo-ethyl] 4-(thiophene-2-carbonylamino)benzoate
@<TRIPOS>ATOM
      1 C1          2.6071   -1.9298    3.3384 C.3       1 <0>        -0.1039
      2 C2          3.0567   -1.2349    2.0790 C.2       1 <0>        -0.0057
      3 C3          4.3865   -1.1019    1.6186 C.2       1 <0>        -0.2625
      4 C4          4.3365   -0.3946    0.4262 C.2       1 <0>         0.1220
      5 N1          3.0568   -0.1072    0.1520 N.pl3     1 <0>        -0.5189
      6 H1          2.7455    0.3781   -0.6281 H         1 <0>         0.4228
      7 C5          2.2509   -0.6072    1.1551 C.2       1 <0>        -0.1003
      8 C6          0.8407   -0.4989    1.2198 C.2       1 <0>         0.4218
      9 O1          0.2366   -0.9860    2.1536 O.2       1 <0>        -0.4209
     10 C7          0.0894    0.2210    0.1297 C.3       1 <0>         0.0568
     11 H2          0.4387   -0.0670   -0.7620 H         1 <0>         0.0940
     12 C8          0.2813    1.7305    0.2893 C.3       1 <0>        -0.1686
     13 O2         -1.3237   -0.0998    0.2226 O.3       1 <0>        -0.3261
     14 C9         -2.0288   -0.0954   -0.9257 C.2       1 <0>         0.5137
     15 O3         -1.4778    0.1692   -1.9759 O.2       1 <0>        -0.5074
     16 C10        -3.4688   -0.4117   -0.9079 C.ar      1 <0>        -0.1472
     17 C11        -4.1031   -0.7220    0.2989 C.ar      1 <0>        -0.0337
     18 C12        -5.4488   -1.0102    0.3129 C.ar      1 <0>        -0.1360
     19 C13        -6.1754   -1.0057   -0.8742 C.ar      1 <0>         0.1897
     20 C14        -5.5459   -0.7033   -2.0781 C.ar      1 <0>        -0.1581
     21 C15        -4.2019   -0.4077   -2.0984 C.ar      1 <0>        -0.0281
     22 N2         -7.5359   -1.3040   -0.8572 N.am      1 <0>        -0.6690
     23 C16        -8.2909   -0.9474    0.2007 C.2       1 <0>         0.6088
     24 O4         -7.8065   -0.2819    1.0973 O.2       1 <0>        -0.4972
     25 C17        -9.6948   -1.3609    0.2716 C.2       1 <0>        -0.2525
     26 C18       -10.6329   -1.1033    1.2594 C.2       1 <0>        -0.0581
     27 C19       -11.8928   -1.6154    1.0737 C.2       1 <0>        -0.1799
     28 C20       -12.1572   -2.3367   -0.0473 C.2       1 <0>        -0.1709
     29 S1        -10.6448   -2.3205   -0.8945 S.3       1 <0>         0.1441
     30 C21         5.5233   -0.0186   -0.4232 C.3       1 <0>        -0.1034
     31 C22         5.5921   -1.6154    2.2772 C.2       1 <0>         0.4349
     32 O5          6.1493   -0.9512    3.1258 O.2       1 <0>        -0.4472
     33 C23         6.1387   -2.9681    1.8999 C.3       1 <0>        -0.1893
     34 H3          2.4067   -2.9792    3.1226 H         1 <0>         0.0795
     35 H4          3.3905   -1.8572    4.0929 H         1 <0>         0.0688
     36 H5          1.6990   -1.4556    3.7106 H         1 <0>         0.0885
     37 H6          1.3421    1.9713    0.2196 H         1 <0>         0.0771
     38 H7         -0.2621    2.2512   -0.4992 H         1 <0>         0.0805
     39 H8         -0.0994    2.0444    1.2612 H         1 <0>         0.0804
     40 H9         -3.5387   -0.7307    1.2197 H         1 <0>         0.1465
     41 H10        -5.9406   -1.2446    1.2454 H         1 <0>         0.1458
     42 H11        -6.1128   -0.7004   -2.9974 H         1 <0>         0.1394
     43 H12        -3.7142   -0.1724   -3.0329 H         1 <0>         0.1443
     44 H13        -7.9400   -1.7684   -1.6069 H         1 <0>         0.4142
     45 H14       -10.3834   -0.5247    2.1366 H         1 <0>         0.1508
     46 H15       -12.6650   -1.4467    1.8096 H         1 <0>         0.1450
     47 H16       -13.0859   -2.8030   -0.3414 H         1 <0>         0.1943
     48 H17         5.7253   -0.8158   -1.1385 H         1 <0>         0.0897
     49 H18         5.3078    0.9052   -0.9600 H         1 <0>         0.0791
     50 H19         6.3951    0.1267    0.2147 H         1 <0>         0.0892
     51 H20         6.8480   -2.8586    1.2035 H         1 <0>         0.0880
     52 H21         6.5658   -3.4462    2.7814 H         1 <0>         0.0895
     53 H22         5.3338   -3.5878    1.5045 H         1 <0>         0.0857
@<TRIPOS>BOND
     1    1    2 1
     2    1   34 1
     3    1   35 1
     4    1   36 1
     5    2    7 2
     6    2    3 1
     7    3    4 2
     8    3   31 1
     9    4    5 1
    10    4   30 1
    11    5    6 1
    12    5    7 1
    13    7    8 1
    14    8    9 2
    15    8   10 1
    16   10   11 1
    17   10   12 1
    18   10   13 1
    19   12   37 1
    20   12   38 1
    21   12   39 1
    22   13   14 1
    23   14   15 2
    24   14   16 1
    25   16   21 ar
    26   16   17 ar
    27   17   18 ar
    28   17   40 1
    29   18   19 ar
    30   18   41 1
    31   19   20 ar
    32   19   22 1
    33   20   21 ar
    34   20   42 1
    35   21   43 1
    36   22   23 am
    37   22   44 1
    38   23   24 2
    39   23   25 1
    40   25   29 1
    41   25   26 2
    42   26   27 1
    43   26   45 1
    44   27   28 2
    45   27   46 1
    46   28   29 1
    47   28   47 1
    48   30   48 1
    49   30   49 1
    50   30   50 1
    51   31   32 2
    52   31   33 1
    53   33   51 1
    54   33   52 1
    55   33   53 1
@<TRIPOS>MOLECULE
ZINC27877166
   59    62     0     0     0
SMALL
USER_CHARGES
(2R)-7-[4-amino-2-[1-[(2-fluorophenyl)methyl]pyrazolo[5,4-b]pyridin-3-yl]pyrimidin-5-yl]-2-methyl-heptanenitrile
@<TRIPOS>ATOM
      1 C1          1.1878    7.7659  -12.5716 C.3       1 <0>        -0.1509
      2 C2          1.5682    8.9950  -11.7437 C.3       1 <0>         0.0052
      3 H1          2.5722    8.8725  -11.3112 H         1 <0>         0.1141
      4 C3          0.5311    9.2066  -10.6389 C.3       1 <0>        -0.1140
      5 C4          0.5793    8.0300   -9.6621 C.3       1 <0>        -0.1215
      6 C5         -0.4578    8.2416   -8.5572 C.3       1 <0>        -0.1218
      7 C6         -0.4096    7.0650   -7.5804 C.3       1 <0>        -0.1177
      8 C7         -1.4467    7.2766   -6.4756 C.3       1 <0>        -0.0632
      9 C8         -1.3992    6.1177   -5.5135 C.ar      1 <0>        -0.2536
     10 C9         -2.2605    5.0459   -5.6553 C.ar      1 <0>         0.1803
     11 N1         -2.1939    4.0427   -4.7941 N.ar      1 <0>        -0.5416
     12 C10        -1.3142    4.0540   -3.8010 C.ar      1 <0>         0.4323
     13 N2         -0.4740    5.0658   -3.6277 N.ar      1 <0>        -0.5531
     14 C11        -0.4834    6.1024   -4.4585 C.ar      1 <0>         0.4544
     15 N3          0.3987    7.1555   -4.2783 N.pl3     1 <0>        -0.8555
     16 C12        -1.2732    2.9119   -2.8594 C.2       1 <0>         0.1499
     17 C13        -2.1285    1.7218   -2.9009 C.ar      1 <0>        -0.1903
     18 C14        -3.1604    1.2924   -3.7402 C.ar      1 <0>         0.0190
     19 C15        -3.7542    0.0864   -3.4712 C.ar      1 <0>        -0.2170
     20 C16        -3.3205   -0.6647   -2.3879 C.ar      1 <0>         0.1682
     21 N4         -2.3479   -0.2481   -1.6069 N.ar      1 <0>        -0.5007
     22 C17        -1.7333    0.9091   -1.8220 C.ar      1 <0>         0.3113
     23 N5         -0.7213    1.5711   -1.1789 N.pl3     1 <0>        -0.3803
     24 N6         -0.4654    2.7791   -1.8346 N.2       1 <0>        -0.1720
     25 C18        -0.0127    1.0858    0.0080 C.3       1 <0>         0.1839
     26 C19        -0.7181    1.5718    1.2479 C.ar      1 <0>        -0.1574
     27 C20        -1.5680    0.7265    1.9360 C.ar      1 <0>        -0.0628
     28 C21        -2.2148    1.1718    3.0735 C.ar      1 <0>        -0.1358
     29 C22        -2.0120    2.4630    3.5247 C.ar      1 <0>        -0.0791
     30 C23        -1.1624    3.3097    2.8387 C.ar      1 <0>        -0.1622
     31 C24        -0.5106    2.8633    1.7014 C.ar      1 <0>         0.1257
     32 F1          0.3243    3.6886    1.0327 F         1 <0>        -0.1266
     33 C25         1.6059   10.1809  -12.6150 C.1       1 <0>         0.2031
     34 N7          1.6349   11.0961  -13.2873 N.1       1 <0>        -0.4353
     35 H2          1.9334    7.6138  -13.3659 H         1 <0>         0.0645
     36 H3          0.1969    7.9206  -13.0236 H         1 <0>         0.0655
     37 H4          1.1596    6.8797  -11.9206 H         1 <0>         0.0808
     38 H5          0.7541   10.1395  -10.1005 H         1 <0>         0.0719
     39 H6         -0.4721    9.2717  -11.0853 H         1 <0>         0.0742
     40 H7          0.3563    7.0971  -10.2006 H         1 <0>         0.0716
     41 H8          1.5825    7.9649   -9.2157 H         1 <0>         0.0675
     42 H9         -0.2348    9.1745   -8.0188 H         1 <0>         0.0640
     43 H10        -1.4611    8.3067   -9.0036 H         1 <0>         0.0664
     44 H11        -0.6326    6.1321   -8.1189 H         1 <0>         0.0671
     45 H12         0.5936    6.9999   -7.1340 H         1 <0>         0.0629
     46 H13        -1.2237    8.2096   -5.9372 H         1 <0>         0.0694
     47 H14        -2.4499    7.3417   -6.9220 H         1 <0>         0.0801
     48 H15        -2.9805    5.0273   -6.4601 H         1 <0>         0.1694
     49 H16         1.1165    7.1353   -3.4450 H         1 <0>         0.4311
     50 H17         0.3813    8.0118   -4.9685 H         1 <0>         0.4323
     51 H18        -3.4814    1.8943   -4.5775 H         1 <0>         0.1514
     52 H19        -4.5544   -0.2771   -4.0988 H         1 <0>         0.1430
     53 H20        -3.7926   -1.6139   -2.1816 H         1 <0>         0.1667
     54 H21         0.0022   -0.0141    0.0019 H         1 <0>         0.1149
     55 H22         1.0193    1.4665    0.0002 H         1 <0>         0.1083
     56 H23        -1.7272   -0.2822    1.5845 H         1 <0>         0.1381
     57 H24        -2.8787    0.5106    3.6105 H         1 <0>         0.1327
     58 H25        -2.5176    2.8098    4.4138 H         1 <0>         0.1344
     59 H26        -1.0039    4.3181    3.1915 H         1 <0>         0.1368
@<TRIPOS>BOND
     1    1    2 1
     2    1   35 1
     3    1   36 1
     4    1   37 1
     5    2    3 1
     6    2    4 1
     7    2   33 1
     8    4    5 1
     9    4   38 1
    10    4   39 1
    11    5    6 1
    12    5   40 1
    13    5   41 1
    14    6    7 1
    15    6   42 1
    16    6   43 1
    17    7    8 1
    18    7   44 1
    19    7   45 1
    20    8    9 1
    21    8   46 1
    22    8   47 1
    23    9   14 ar
    24    9   10 ar
    25   10   11 ar
    26   10   48 1
    27   11   12 ar
    28   12   13 ar
    29   12   16 1
    30   13   14 ar
    31   14   15 1
    32   15   49 1
    33   15   50 1
    34   16   24 2
    35   16   17 1
    36   17   22 ar
    37   17   18 ar
    38   18   19 ar
    39   18   51 1
    40   19   20 ar
    41   19   52 1
    42   20   21 ar
    43   20   53 1
    44   21   22 ar
    45   22   23 1
    46   23   24 1
    47   23   25 1
    48   25   26 1
    49   25   54 1
    50   25   55 1
    51   26   31 ar
    52   26   27 ar
    53   27   28 ar
    54   27   56 1
    55   28   29 ar
    56   28   57 1
    57   29   30 ar
    58   29   58 1
    59   30   31 ar
    60   30   59 1
    61   31   32 1
    62   33   34 3
@<TRIPOS>MOLECULE
ZINC38705553
   62    65     0     0     0
SMALL
USER_CHARGES

@<TRIPOS>ATOM
      1 C1         -0.7336    1.0483   -0.8097 C.3       1 <0>        -0.1179
      2 C2         -0.5887   -0.4403   -0.6245 C.ar      1 <0>        -0.0544
      3 C3         -1.5275   -1.2970   -1.1717 C.ar      1 <0>        -0.1322
      4 C4         -1.4025   -2.6617   -1.0069 C.ar      1 <0>        -0.0363
      5 C5         -0.3283   -3.1793   -0.2875 C.ar      1 <0>        -0.0463
      6 C6          0.6183   -2.3116    0.2642 C.ar      1 <0>         0.1414
      7 C7          0.4840   -0.9439    0.0864 C.ar      1 <0>        -0.1533
      8 O1          1.6695   -2.8076    0.9676 O.3       1 <0>        -0.4921
      9 C8         -0.1896   -4.6458   -0.1069 C.2       1 <0>         0.1207
     10 C9          0.0612   -5.3119    1.0975 C.2       1 <0>        -0.1444
     11 C10         0.1078   -6.6562    0.7817 C.2       1 <0>        -0.0690
     12 N1         -0.1113   -6.7378   -0.5641 N.pl3     1 <0>        -0.3360
     13 H1         -0.1363   -7.5617   -1.0755 H         1 <0>         0.4524
     14 N2         -0.2857   -5.5610   -1.0512 N.2       1 <0>        -0.2419
     15 C11         0.3687   -7.4152    2.0099 C.2       1 <0>         0.5995
     16 O2          0.4682   -8.6259    2.0700 O.2       1 <0>        -0.5182
     17 N3          0.4823   -6.5823    3.0601 N.am      1 <0>        -0.5935
     18 C12         0.3011   -5.2067    2.5787 C.3       1 <0>         0.2504
     19 H2          1.1987   -4.6194    2.7725 H         1 <0>         0.1203
     20 C13        -0.8890   -4.5746    3.2533 C.ar      1 <0>        -0.0525
     21 C14        -2.0542   -5.3003    3.4211 C.ar      1 <0>        -0.1359
     22 C15        -3.1477   -4.7233    4.0395 C.ar      1 <0>        -0.0782
     23 C16        -3.0790   -3.4194    4.4913 C.ar      1 <0>        -0.2032
     24 C17        -1.9114   -2.6893    4.3242 C.ar      1 <0>         0.1330
     25 C18        -0.8133   -3.2728    3.7086 C.ar      1 <0>        -0.1252
     26 O3         -1.8414   -1.4067    4.7677 O.3       1 <0>        -0.3086
     27 C19        -3.0082   -0.8732    5.3971 C.3       1 <0>         0.0876
     28 C20        -2.7450    0.5491    5.8199 C.2       1 <0>        -0.1590
     29 C21        -3.6394    1.4776    5.5876 C.2       1 <0>        -0.1678
     30 C22         0.7418   -6.9794    4.4462 C.3       1 <0>         0.1431
     31 C23         2.2514   -7.0131    4.6930 C.3       1 <0>        -0.1389
     32 C24         2.5224   -7.4278    6.1406 C.3       1 <0>         0.0644
     33 O4          3.9323   -7.4593    6.3710 O.3       1 <0>        -0.3912
     34 C25         4.2956   -7.8372    7.7004 C.3       1 <0>         0.0313
     35 C26        -2.4277   -3.5906   -1.6044 C.3       1 <0>        -0.1123
     36 H3         -0.2195    1.3527   -1.7214 H         1 <0>         0.0740
     37 H4         -1.7904    1.3038   -0.8859 H         1 <0>         0.0691
     38 H5         -0.2955    1.5650    0.0442 H         1 <0>         0.0691
     39 H6         -2.3610   -0.8965   -1.7295 H         1 <0>         0.1274
     40 H7          1.2162   -0.2706    0.5072 H         1 <0>         0.1318
     41 H8          2.4732   -2.9258    0.4429 H         1 <0>         0.3914
     42 H9         -2.1101   -6.3194    3.0680 H         1 <0>         0.1171
     43 H10        -4.0565   -5.2921    4.1693 H         1 <0>         0.1256
     44 H11        -3.9338   -2.9689    4.9737 H         1 <0>         0.1275
     45 H12         0.0985   -2.7080    3.5816 H         1 <0>         0.1359
     46 H13        -3.8418   -0.8953    4.6952 H         1 <0>         0.0673
     47 H14        -3.2548   -1.4730    6.2732 H         1 <0>         0.0720
     48 H15        -1.8190    0.8030    6.3144 H         1 <0>         0.1206
     49 H16        -3.4509    2.4970    5.8907 H         1 <0>         0.1092
     50 H17        -4.5654    1.2238    5.0931 H         1 <0>         0.0996
     51 H18         0.2790   -6.2608    5.1227 H         1 <0>         0.0914
     52 H19         0.3222   -7.9693    4.6252 H         1 <0>         0.0924
     53 H20         2.7141   -7.7317    4.0165 H         1 <0>         0.0783
     54 H21         2.6710   -6.0232    4.5139 H         1 <0>         0.0781
     55 H22         2.0596   -6.7092    6.8170 H         1 <0>         0.0525
     56 H23         2.1027   -8.4177    6.3196 H         1 <0>         0.0526
     57 H24         3.8696   -7.1271    8.4093 H         1 <0>         0.0423
     58 H25         3.9128   -8.8356    7.9118 H         1 <0>         0.0422
     59 H26         5.3816   -7.8371    7.7942 H         1 <0>         0.0872
     60 H27        -2.1221   -3.8684   -2.6132 H         1 <0>         0.0778
     61 H28        -2.5081   -4.4869   -0.9894 H         1 <0>         0.0651
     62 H29        -3.3943   -3.0884   -1.6429 H         1 <0>         0.0665
@<TRIPOS>BOND
     1    1    2 1
     2    1   36 1
     3    1   37 1
     4    1   38 1
     5    2    7 ar
     6    2    3 ar
     7    3    4 ar
     8    3   39 1
     9    4    5 ar
    10    4   35 1
    11    5    6 ar
    12    5    9 1
    13    6    7 ar
    14    6    8 1
    15    7   40 1
    16    8   41 1
    17    9   14 2
    18    9   10 1
    19   10   18 1
    20   10   11 2
    21   11   12 1
    22   11   15 1
    23   12   13 1
    24   12   14 1
    25   15   16 2
    26   15   17 am
    27   17   18 1
    28   17   30 1
    29   18   19 1
    30   18   20 1
    31   20   25 ar
    32   20   21 ar
    33   21   22 ar
    34   21   42 1
    35   22   23 ar
    36   22   43 1
    37   23   24 ar
    38   23   44 1
    39   24   25 ar
    40   24   26 1
    41   25   45 1
    42   26   27 1
    43   27   28 1
    44   27   46 1
    45   27   47 1
    46   28   29 2
    47   28   48 1
    48   29   49 1
    49   29   50 1
    50   30   31 1
    51   30   51 1
    52   30   52 1
    53   31   32 1
    54   31   53 1
    55   31   54 1
    56   32   33 1
    57   32   55 1
    58   32   56 1
    59   33   34 1
    60   34   57 1
    61   34   58 1
    62   34   59 1
    63   35   60 1
    64   35   61 1
    65   35   62 1
@<TRIPOS>MOLECULE
ZINC15786605
   66    68     0     0     0
SMALL
USER_CHARGES

@<TRIPOS>ATOM
      1 C1         -1.1496   -0.1683   -0.9759 C.3       1 <0>        -0.1546
      2 C2         -1.2287   -1.5872   -0.4091 C.3       1 <0>         0.0588
      3 O1         -0.2463   -1.7460    0.6163 O.3       1 <0>        -0.3878
      4 C3         -0.2356   -3.0435    1.2152 C.3       1 <0>         0.0672
      5 C4          0.8491   -3.0989    2.2929 C.3       1 <0>        -0.1375
      6 C5          0.8605   -4.4880    2.9340 C.3       1 <0>         0.0889
      7 N1          1.8990   -4.5410    3.9659 N.pl3     1 <0>        -0.6470
      8 C6          1.9788   -5.5732    4.7578 C.cat     1 <0>         0.7284
      9 N2          2.8919   -5.5815    5.7878 N.pl3     1 <0>        -0.6079
     10 C7          3.0736   -6.7391    6.5522 C.ar      1 <0>         0.0668
     11 C8          3.0014   -7.9892    5.9483 C.ar      1 <0>        -0.1293
     12 C9          3.1801   -9.1364    6.6985 C.ar      1 <0>        -0.1174
     13 C10         3.4315   -9.0492    8.0525 C.ar      1 <0>        -0.0652
     14 C11         3.5067   -7.7979    8.6695 C.ar      1 <0>        -0.1030
     15 C12         3.3313   -6.6392    7.9101 C.ar      1 <0>        -0.0778
     16 C13         3.7750   -7.7011   10.1172 C.2       1 <0>         0.5150
     17 O2          3.9321   -8.7172   10.7793 O.co2     1 <0>        -0.6694
     18 O3          3.8404   -6.6047   10.6550 O.co2     1 <0>        -0.6772
     19 N3          1.1508   -6.6538    4.5643 N.pl3     1 <0>        -0.6158
     20 C14         1.0050   -7.2552    3.2313 C.3       1 <0>         0.0896
     21 C15        -0.4836   -7.2743    2.8625 C.3       1 <0>         0.1228
     22 N4         -1.2382   -7.8489    3.9851 N.pl3     1 <0>        -0.6625
     23 C16        -1.0924   -7.2475    5.3181 C.3       1 <0>         0.1608
     24 H1         -1.4789   -6.2284    5.3039 H         1 <0>         0.0665
     25 C17         0.4005   -7.2318    5.6881 C.3       1 <0>         0.1064
     26 C18        -1.8685   -8.0767    6.3433 C.3       1 <0>        -0.1663
     27 C19        -2.0793   -8.9465    3.7886 C.ar      1 <0>         0.1781
     28 C20        -3.4537   -8.8056    3.9350 C.ar      1 <0>        -0.1396
     29 C21        -4.2823   -9.8927    3.7396 C.ar      1 <0>        -0.1015
     30 C22        -3.7456  -11.1209    3.3988 C.ar      1 <0>        -0.1288
     31 C23        -2.3782  -11.2648    3.2527 C.ar      1 <0>        -0.0690
     32 C24        -1.5441  -10.1800    3.4407 C.ar      1 <0>        -0.1369
     33 C25        -1.7978  -12.6053    2.8822 C.3       1 <0>        -0.1184
     34 H2         -0.1574    0.0011   -1.3940 H         1 <0>         0.0644
     35 H3         -1.8990   -0.0472   -1.7581 H         1 <0>         0.0752
     36 H4         -1.3361    0.5520   -0.1794 H         1 <0>         0.0645
     37 H5         -2.2210   -1.7567    0.0090 H         1 <0>         0.0516
     38 H6         -1.0423   -2.3076   -1.2056 H         1 <0>         0.0516
     39 H7         -1.2072   -3.2431    1.6670 H         1 <0>         0.0557
     40 H8         -0.0285   -3.7940    0.4523 H         1 <0>         0.0560
     41 H9          1.8207   -2.8992    1.8410 H         1 <0>         0.0894
     42 H10         0.6420   -2.3483    3.0557 H         1 <0>         0.0899
     43 H11        -0.1112   -4.6876    3.3858 H         1 <0>         0.1047
     44 H12         1.0676   -5.2385    2.1712 H         1 <0>         0.1015
     45 H13         2.5273   -3.8080    4.0598 H         1 <0>         0.4330
     46 H14         2.8045   -8.0644    4.8891 H         1 <0>         0.1211
     47 H15         3.1223  -10.1045    6.2233 H         1 <0>         0.1293
     48 H16         3.5699   -9.9480    8.6351 H         1 <0>         0.1401
     49 H17         3.3920   -5.6688    8.3803 H         1 <0>         0.1388
     50 H18         1.5553   -6.6627    2.5005 H         1 <0>         0.0967
     51 H19         1.3915   -8.2742    3.2455 H         1 <0>         0.0974
     52 H20        -0.8268   -6.2571    2.6735 H         1 <0>         0.0630
     53 H21        -0.6319   -7.8845    1.9716 H         1 <0>         0.0965
     54 H22         0.7449   -8.2493    5.8731 H         1 <0>         0.1004
     55 H23         0.5515   -6.6239    6.5801 H         1 <0>         0.0969
     56 H24        -1.4060   -9.0589    6.4411 H         1 <0>         0.0686
     57 H25        -1.8522   -7.5697    7.3080 H         1 <0>         0.0743
     58 H26        -2.9002   -8.1924    6.0110 H         1 <0>         0.0784
     59 H27        -3.8734   -7.8469    4.2018 H         1 <0>         0.1197
     60 H28        -5.3508   -9.7838    3.8533 H         1 <0>         0.1234
     61 H29        -4.3959  -11.9697    3.2468 H         1 <0>         0.1223
     62 H30        -0.4765  -10.2919    3.3217 H         1 <0>         0.1183
     63 H31        -1.7390  -12.6884    1.7970 H         1 <0>         0.0713
     64 H32        -0.7990  -12.6990    3.3084 H         1 <0>         0.0667
     65 H33        -2.4356  -13.3980    3.2733 H         1 <0>         0.0690
     66 H34         3.4094   -4.7847    5.9836 H         1 <0>         0.4339
@<TRIPOS>BOND
     1    1    2 1
     2    1   34 1
     3    1   35 1
     4    1   36 1
     5    2    3 1
     6    2   37 1
     7    2   38 1
     8    3    4 1
     9    4    5 1
    10    4   39 1
    11    4   40 1
    12    5    6 1
    13    5   41 1
    14    5   42 1
    15    6    7 1
    16    6   43 1
    17    6   44 1
    18    7    8 2
    19    7   45 1
    20    8    9 1
    21    8   19 1
    22    9   10 1
    23    9   66 1
    24   10   15 ar
    25   10   11 ar
    26   11   12 ar
    27   11   46 1
    28   12   13 ar
    29   12   47 1
    30   13   14 ar
    31   13   48 1
    32   14   15 ar
    33   14   16 1
    34   15   49 1
    35   16   17 2
    36   16   18 1
    37   19   25 1
    38   19   20 1
    39   20   21 1
    40   20   50 1
    41   20   51 1
    42   21   22 1
    43   21   52 1
    44   21   53 1
    45   22   23 1
    46   22   27 1
    47   23   24 1
    48   23   25 1
    49   23   26 1
    50   25   54 1
    51   25   55 1
    52   26   56 1
    53   26   57 1
    54   26   58 1
    55   27   32 ar
    56   27   28 ar
    57   28   29 ar
    58   28   59 1
    59   29   30 ar
    60   29   60 1
    61   30   31 ar
    62   30   61 1
    63   31   32 ar
    64   31   33 1
    65   32   62 1
    66   33   63 1
    67   33   64 1
    68   33   65 1
@<TRIPOS>MOLECULE
ZINC12474628
   60    63     0     0     0
SMALL
USER_CHARGES
2-[[4-amino-5-[(2-fluorophenoxy)methyl]-1,2,4-triazol-3-yl]sulfanyl]-N-(3-cyano-1-cyclopentyl-4,5-dimethyl-pyrrol-2-yl)acetamide
@<TRIPOS>ATOM
      1 C1         -5.6597    8.8450    1.2074 C.3       1 <0>        -0.0833
      2 C2         -4.2744    8.5007    0.7242 C.2       1 <0>        -0.1066
      3 C3         -3.4148    9.3236    0.1018 C.2       1 <0>         0.0294
      4 N1         -2.2598    8.6437   -0.1787 N.pl3     1 <0>        -0.4384
      5 C4         -2.3533    7.3619    0.2601 C.2       1 <0>         0.3111
      6 C5         -3.6046    7.1993    0.8380 C.2       1 <0>        -0.1118
      7 C6         -4.1336    6.0061    1.4270 C.1       1 <0>         0.2978
      8 N2         -4.5533    5.0595    1.8943 N.1       1 <0>        -0.4316
      9 N3         -1.3740    6.3864    0.1456 N.am      1 <0>        -0.6462
     10 C7         -1.7241    5.0893    0.0382 C.2       1 <0>         0.5326
     11 O1         -2.8931    4.7835   -0.0665 O.2       1 <0>        -0.4743
     12 C8         -0.6632    4.0191    0.0483 C.3       1 <0>        -0.1604
     13 S1         -1.4502    2.3892    0.0376 S.3       1 <0>         0.1357
     14 C9         -0.0208    1.3591    0.0518 C.2       1 <0>         0.1777
     15 N4          1.2296    1.7591    0.0601 N.2       1 <0>        -0.2895
     16 N5          2.0137    0.7408    0.0637 N.2       1 <0>        -0.2345
     17 C10         1.3170   -0.3603    0.0580 C.2       1 <0>         0.1411
     18 N6         -0.0039   -0.0062    0.0502 N.pl3     1 <0>        -0.2950
     19 N7         -1.0825   -0.8444    0.0424 N.3       1 <0>        -0.5823
     20 C11         1.8652   -1.7640    0.0597 C.3       1 <0>         0.1512
     21 O2          2.0469   -2.2060   -1.2870 O.3       1 <0>        -0.3043
     22 C12         2.5384   -3.4613   -1.4637 C.ar      1 <0>         0.0927
     23 C13         2.8447   -4.2484   -0.3640 C.ar      1 <0>        -0.1818
     24 C14         3.3400   -5.5256   -0.5458 C.ar      1 <0>        -0.0870
     25 C15         3.5403   -6.0163   -1.8228 C.ar      1 <0>        -0.1224
     26 C16         3.2407   -5.2330   -2.9220 C.ar      1 <0>        -0.1144
     27 C17         2.7401   -3.9555   -2.7461 C.ar      1 <0>         0.0745
     28 F1          2.4481   -3.1896   -3.8200 F         1 <0>        -0.1303
     29 C18        -1.0926    9.2160   -0.8542 C.3       1 <0>         0.1206
     30 C19        -0.6839    8.3272   -2.0471 C.3       1 <0>        -0.1441
     31 C20         0.8648    8.3816   -2.0472 C.3       1 <0>        -0.1247
     32 C21         1.2080    8.3732   -0.5369 C.3       1 <0>        -0.1293
     33 C22         0.1098    9.2457    0.1055 C.3       1 <0>        -0.1454
     34 C23        -3.6796   10.7684   -0.2350 C.3       1 <0>        -0.0849
     35 H1         -6.3810    8.6451    0.4150 H         1 <0>         0.0694
     36 H2         -5.9013    8.2383    2.0802 H         1 <0>         0.0646
     37 H3         -5.6988    9.9005    1.4765 H         1 <0>         0.0693
     38 H4         -0.4371    6.6377    0.1428 H         1 <0>         0.4141
     39 H5         -0.0522    4.1217    0.9451 H         1 <0>         0.1329
     40 H6         -0.0329    4.1240   -0.8348 H         1 <0>         0.1344
     41 H7         -1.3624   -1.0647   -0.9016 H         1 <0>         0.3734
     42 H8         -0.8917   -1.6841    0.5684 H         1 <0>         0.3774
     43 H9          2.8232   -1.7793    0.5795 H         1 <0>         0.1111
     44 H10         1.1652   -2.4269    0.5683 H         1 <0>         0.0835
     45 H11         2.6926   -3.8649    0.6341 H         1 <0>         0.1387
     46 H12         3.5749   -6.1398    0.3109 H         1 <0>         0.1365
     47 H13         3.9317   -7.0132   -1.9619 H         1 <0>         0.1384
     48 H14         3.3981   -5.6186   -3.9185 H         1 <0>         0.1457
     49 H15        -1.3191   10.2245   -1.2003 H         1 <0>         0.1144
     50 H16        -1.0295    7.3044   -1.8968 H         1 <0>         0.0785
     51 H17        -1.0807    8.7321   -2.9780 H         1 <0>         0.0829
     52 H18         1.2184    9.2985   -2.5187 H         1 <0>         0.0784
     53 H19         1.2822    7.5052   -2.5431 H         1 <0>         0.0779
     54 H20         2.1915    8.8114   -0.3667 H         1 <0>         0.0822
     55 H21         1.1697    7.3586   -0.1405 H         1 <0>         0.0626
     56 H22         0.4674   10.2685    0.2245 H         1 <0>         0.0875
     57 H23        -0.1753    8.8351    1.0741 H         1 <0>         0.0771
     58 H24        -4.1308   10.8339   -1.2251 H         1 <0>         0.0757
     59 H25        -4.3592   11.1948    0.5029 H         1 <0>         0.0860
     60 H26        -2.7405   11.3216   -0.2264 H         1 <0>         0.0656
@<TRIPOS>BOND
     1    1    2 1
     2    1   35 1
     3    1   36 1
     4    1   37 1
     5    2    6 1
     6    2    3 2
     7    3    4 1
     8    3   34 1
     9    4    5 1
    10    4   29 1
    11    5    6 2
    12    5    9 1
    13    6    7 1
    14    7    8 3
    15    9   10 am
    16    9   38 1
    17   10   11 2
    18   10   12 1
    19   12   13 1
    20   12   39 1
    21   12   40 1
    22   13   14 1
    23   14   18 1
    24   14   15 2
    25   15   16 1
    26   16   17 2
    27   17   18 1
    28   17   20 1
    29   18   19 1
    30   19   41 1
    31   19   42 1
    32   20   21 1
    33   20   43 1
    34   20   44 1
    35   21   22 1
    36   22   27 ar
    37   22   23 ar
    38   23   24 ar
    39   23   45 1
    40   24   25 ar
    41   24   46 1
    42   25   26 ar
    43   25   47 1
    44   26   27 ar
    45   26   48 1
    46   27   28 1
    47   29   33 1
    48   29   30 1
    49   29   49 1
    50   30   31 1
    51   30   50 1
    52   30   51 1
    53   31   32 1
    54   31   52 1
    55   31   53 1
    56   32   33 1
    57   32   54 1
    58   32   55 1
    59   33   56 1
    60   33   57 1
    61   34   58 1
    62   34   59 1
    63   34   60 1
@<TRIPOS>MOLECULE
ZINC14566631
   53    54     0     0     0
SMALL
USER_CHARGES
2-methoxyethyl 4-[[3-[(3-chloro-4-fluoro-phenyl)carbamoyl]phenyl]carbamothioylamino]-4-oxo-butanoate
@<TRIPOS>ATOM
      1 C1         -7.4750    7.8827    3.0279 C.3       1 <0>         0.0303
      2 O1         -6.2023    7.4675    2.5279 O.3       1 <0>        -0.3867
      3 C2         -6.0066    7.7398    1.1388 C.3       1 <0>         0.0598
      4 C3         -4.6184    7.2558    0.7149 C.3       1 <0>         0.0688
      5 O2         -4.5518    5.8105    0.8362 O.3       1 <0>        -0.3455
      6 C4         -3.3923    5.2235    0.5003 C.2       1 <0>         0.4666
      7 O3         -2.4638    5.8953    0.1177 O.2       1 <0>        -0.5126
      8 C5         -3.2487    3.7267    0.6005 C.3       1 <0>        -0.1017
      9 C6         -1.8407    3.3190    0.1622 C.3       1 <0>        -0.1258
     10 C7         -1.6970    1.8222    0.2624 C.2       1 <0>         0.4896
     11 O4         -2.6288    1.1482    0.6463 O.2       1 <0>        -0.4019
     12 N1         -0.5328    1.2329   -0.0749 N.am      1 <0>        -0.6411
     13 C8         -0.4044   -0.1057    0.0147 C.2       1 <0>         0.5094
     14 S1         -1.7178   -1.0569    0.5636 S.2       1 <0>        -0.4806
     15 N2          0.7580   -0.6956   -0.3278 N.pl3     1 <0>        -0.6217
     16 C9          0.9317   -2.0690   -0.1257 C.ar      1 <0>         0.1157
     17 C10         0.4750   -2.6624    1.0455 C.ar      1 <0>        -0.0398
     18 C11         0.6399   -4.0196    1.2479 C.ar      1 <0>        -0.1153
     19 C12         1.2685   -4.7932    0.2932 C.ar      1 <0>        -0.0733
     20 C13         1.7355   -4.2061   -0.8840 C.ar      1 <0>        -0.1353
     21 C14         1.5643   -2.8370   -1.0906 C.ar      1 <0>        -0.0561
     22 C15         2.4096   -5.0321   -1.9080 C.2       1 <0>         0.5654
     23 O5          2.8158   -4.5186   -2.9323 O.2       1 <0>        -0.5115
     24 N3          2.5737   -6.3545   -1.7061 N.am      1 <0>        -0.6677
     25 C16         3.3127   -7.1154   -2.6190 C.ar      1 <0>         0.1514
     26 C17         2.9620   -8.4360   -2.8682 C.ar      1 <0>        -0.1107
     27 C18         3.6890   -9.1840   -3.7733 C.ar      1 <0>        -0.1189
     28 C19         4.7743   -8.6221   -4.4242 C.ar      1 <0>         0.0950
     29 C20         5.1296   -7.3064   -4.1736 C.ar      1 <0>        -0.0540
     30 C21         4.4008   -6.5528   -3.2726 C.ar      1 <0>        -0.0870
     31 Cl1         6.4900   -6.6040   -4.9919 Cl        1 <0>        -0.0407
     32 F1          5.4875   -9.3574   -5.3051 F         1 <0>        -0.1248
     33 H1         -7.5852    8.9586    2.8924 H         1 <0>         0.0427
     34 H2         -8.2653    7.3652    2.4842 H         1 <0>         0.0443
     35 H3         -7.5452    7.6410    4.0884 H         1 <0>         0.0891
     36 H4         -6.0863    8.8127    0.9641 H         1 <0>         0.0753
     37 H5         -6.7665    7.2193    0.5560 H         1 <0>         0.0639
     38 H6         -3.8636    7.7095    1.3573 H         1 <0>         0.0815
     39 H7         -4.4342    7.5425   -0.3204 H         1 <0>         0.0886
     40 H8         -3.9836    3.2471   -0.0461 H         1 <0>         0.1192
     41 H9         -3.4130    3.4141    1.6317 H         1 <0>         0.1203
     42 H10        -1.1058    3.7986    0.8088 H         1 <0>         0.1113
     43 H11        -1.6763    3.6316   -0.8690 H         1 <0>         0.1109
     44 H12         0.2114    1.7718   -0.3859 H         1 <0>         0.4143
     45 H13         1.4742   -0.1679   -0.7145 H         1 <0>         0.4109
     46 H14        -0.0140   -2.0615    1.7980 H         1 <0>         0.1480
     47 H15         0.2793   -4.4757    2.1580 H         1 <0>         0.1405
     48 H16         1.3994   -5.8526    0.4571 H         1 <0>         0.1304
     49 H17         1.9232   -2.3772   -1.9996 H         1 <0>         0.1414
     50 H18         2.1796   -6.7789   -0.9279 H         1 <0>         0.4159
     51 H19         2.1184   -8.8764   -2.3576 H         1 <0>         0.1455
     52 H20         3.4138  -10.2096   -3.9700 H         1 <0>         0.1522
     53 H21         4.6779   -5.5274   -3.0769 H         1 <0>         0.1548
@<TRIPOS>BOND
     1    1    2 1
     2    1   33 1
     3    1   34 1
     4    1   35 1
     5    2    3 1
     6    3    4 1
     7    3   36 1
     8    3   37 1
     9    4    5 1
    10    4   38 1
    11    4   39 1
    12    5    6 1
    13    6    7 2
    14    6    8 1
    15    8    9 1
    16    8   40 1
    17    8   41 1
    18    9   10 1
    19    9   42 1
    20    9   43 1
    21   10   11 2
    22   10   12 am
    23   12   13 1
    24   12   44 1
    25   13   14 2
    26   13   15 1
    27   15   16 1
    28   15   45 1
    29   16   21 ar
    30   16   17 ar
    31   17   18 ar
    32   17   46 1
    33   18   19 ar
    34   18   47 1
    35   19   20 ar
    36   19   48 1
    37   20   21 ar
    38   20   22 1
    39   21   49 1
    40   22   23 2
    41   22   24 am
    42   24   25 1
    43   24   50 1
    44   25   30 ar
    45   25   26 ar
    46   26   27 ar
    47   26   51 1
    48   27   28 ar
    49   27   52 1
    50   28   29 ar
    51   28   32 1
    52   29   30 ar
    53   29   31 1
    54   30   53 1
@<TRIPOS>MOLECULE
ZINC21760564
   53    54     0     0     0
SMALL
USER_CHARGES
[2-[(3-amino-3-oxo-propyl)-(4-fluorophenyl)amino]-2-oxo-ethyl] 2-[[(E)-4,4,4-trifluoro-3-oxo-but-1-enyl]amino]benzoate
@<TRIPOS>ATOM
      1 C1         -4.7676   -0.3970    0.0818 C.ar      1 <0>        -0.1626
      2 C2         -3.5550   -1.0615   -0.0128 C.ar      1 <0>        -0.0320
      3 C3         -2.3692   -0.3556   -0.0097 C.ar      1 <0>        -0.1896
      4 C4         -2.3843    1.0299    0.0881 C.ar      1 <0>         0.2332
      5 C5         -3.6105    1.7057    0.1890 C.ar      1 <0>        -0.1841
      6 C6         -4.8028    0.9768    0.1796 C.ar      1 <0>        -0.0172
      7 C7         -3.6405    3.1749    0.2990 C.2       1 <0>         0.5323
      8 O1         -2.6114    3.8130    0.1970 O.2       1 <0>        -0.5169
      9 O2         -4.8092    3.8108    0.5129 O.3       1 <0>        -0.3175
     10 C8         -4.7636    5.2588    0.6105 C.3       1 <0>         0.0465
     11 C9         -6.1535    5.7903    0.8487 C.2       1 <0>         0.5208
     12 O3         -7.0904    5.0241    0.9282 O.2       1 <0>        -0.4918
     13 N1         -6.3555    7.1170    0.9732 N.am      1 <0>        -0.5660
     14 C10        -5.2446    8.0496    0.7672 C.3       1 <0>         0.1151
     15 C11        -5.1864    8.4559   -0.7068 C.3       1 <0>        -0.1670
     16 C12        -4.0437    9.4152   -0.9187 C.2       1 <0>         0.5222
     17 O4         -3.3446    9.7418    0.0170 O.2       1 <0>        -0.5487
     18 N2         -3.7986    9.9102   -2.1481 N.am      1 <0>        -0.8772
     19 C13        -7.6272    7.6041    1.2995 C.ar      1 <0>         0.1241
     20 C14        -8.6806    7.4495    0.4082 C.ar      1 <0>        -0.0737
     21 C15        -9.9354    7.9255    0.7344 C.ar      1 <0>        -0.1422
     22 C16       -10.1407    8.5666    1.9445 C.ar      1 <0>         0.1047
     23 C17        -9.0902    8.7268    2.8323 C.ar      1 <0>        -0.1418
     24 C18        -7.8351    8.2472    2.5124 C.ar      1 <0>        -0.0875
     25 F1        -11.3677    9.0360    2.2596 F         1 <0>        -0.1350
     26 N3         -1.1906    1.7433    0.0919 N.pl3     1 <0>        -0.6425
     27 C19         0.0012    1.0792    0.1242 C.2       1 <0>         0.2474
     28 C20         1.1644    1.7743    0.1223 C.2       1 <0>        -0.3759
     29 C21         2.3894    1.0915    0.1497 C.2       1 <0>         0.3769
     30 O5          2.4075   -0.1233    0.1751 O.2       1 <0>        -0.4348
     31 C22         3.6830    1.8646    0.1475 C.3       1 <0>         0.4241
     32 F2          4.7598    0.9718    0.1776 F         1 <0>        -0.1675
     33 F3          3.7574    2.6460   -1.0105 F         1 <0>        -0.1702
     34 F4          3.7329    2.6934    1.2734 F         1 <0>        -0.1699
     35 H1         -5.6898   -0.9591    0.0791 H         1 <0>         0.1388
     36 H2         -3.5380   -2.1387   -0.0891 H         1 <0>         0.1399
     37 H3         -1.4285   -0.8810   -0.0838 H         1 <0>         0.1414
     38 H4         -5.7505    1.4895    0.2527 H         1 <0>         0.1481
     39 H5         -4.1115    5.5495    1.4473 H         1 <0>         0.1137
     40 H6         -4.3666    5.6771   -0.3262 H         1 <0>         0.1090
     41 H7         -5.3971    8.9445    1.3885 H         1 <0>         0.1023
     42 H8         -4.2998    7.5629    1.0510 H         1 <0>         0.0972
     43 H9         -5.0339    7.5610   -1.3280 H         1 <0>         0.0967
     44 H10        -6.1312    8.9426   -0.9906 H         1 <0>         0.1043
     45 H11        -2.9645   10.6104   -2.3028 H         1 <0>         0.4264
     46 H12        -4.4327    9.6140   -2.9968 H         1 <0>         0.4219
     47 H13        -8.5198    6.9535   -0.5376 H         1 <0>         0.1345
     48 H14       -10.7561    7.8012    0.0435 H         1 <0>         0.1422
     49 H15        -9.2524    9.2268    3.7758 H         1 <0>         0.1431
     50 H16        -7.0161    8.3720    3.2052 H         1 <0>         0.1383
     51 H17        -1.2070    2.8429    0.0689 H         1 <0>         0.4565
     52 H18         0.0176   -0.0203    0.1518 H         1 <0>         0.1671
     53 H19         1.1480    2.8739    0.0993 H         1 <0>         0.1429
@<TRIPOS>BOND
     1    1    6 ar
     2    1    2 ar
     3    1   35 1
     4    2    3 ar
     5    2   36 1
     6    3    4 ar
     7    3   37 1
     8    4    5 ar
     9    4   26 1
    10    5    6 ar
    11    5    7 1
    12    6   38 1
    13    7    8 2
    14    7    9 1
    15    9   10 1
    16   10   11 1
    17   10   39 1
    18   10   40 1
    19   11   12 2
    20   11   13 am
    21   13   14 1
    22   13   19 1
    23   14   15 1
    24   14   41 1
    25   14   42 1
    26   15   16 1
    27   15   43 1
    28   15   44 1
    29   16   17 2
    30   16   18 am
    31   18   45 1
    32   18   46 1
    33   19   24 ar
    34   19   20 ar
    35   20   21 ar
    36   20   47 1
    37   21   22 ar
    38   21   48 1
    39   22   23 ar
    40   22   25 1
    41   23   24 ar
    42   23   49 1
    43   24   50 1
    44   26   27 1
    45   26   51 1
    46   27   28 2
    47   27   52 1
    48   28   29 1
    49   28   53 1
    50   29   30 2
    51   29   31 1
    52   31   32 1
    53   31   33 1
    54   31   34 1
@<TRIPOS>MOLECULE
ZINC06551999
   57    61     0     0     0
SMALL
USER_CHARGES

@<TRIPOS>ATOM
      1 C1         -0.0167    1.3781    0.0096 C.ar      1 <0>        -0.1153
      2 C2          1.1709    2.0855    0.0021 C.ar      1 <0>        -0.1163
      3 C3          2.3773    1.4107   -0.0130 C.ar      1 <0>        -0.0987
      4 C4          2.3960    0.0285   -0.0201 C.ar      1 <0>        -0.0892
      5 C5          1.2084   -0.6789   -0.0117 C.ar      1 <0>        -0.1165
      6 C6          0.0021   -0.0041    0.0020 C.ar      1 <0>        -0.1177
      7 C7          3.7112   -0.7071   -0.0376 C.3       1 <0>         0.0047
      8 C8          4.1644   -0.9594    1.3773 C.2       1 <0>         0.2068
      9 N1          4.9044   -0.1701    2.1034 N.2       1 <0>        -0.2750
     10 N2          5.1007   -0.6913    3.2617 N.2       1 <0>        -0.2903
     11 C9          4.4913   -1.8516    3.3377 C.2       1 <0>         0.1442
     12 N3          3.8704   -2.0565    2.1390 N.pl3     1 <0>        -0.4547
     13 C10         3.0601   -3.2129    1.7488 C.3       1 <0>         0.1887
     14 C11         3.9468   -4.2607    1.1266 C.2       1 <0>        -0.0634
     15 C12         4.5683   -5.2564    1.7837 C.2       1 <0>        -0.1614
     16 C13         5.2884   -5.9972    0.8185 C.2       1 <0>        -0.2159
     17 C14         5.0639   -5.4099   -0.3707 C.2       1 <0>        -0.0178
     18 O1          4.2460   -4.3620   -0.1788 O.3       1 <0>        -0.1709
     19 S1          4.4726   -2.9363    4.7262 S.3       1 <0>         0.0847
     20 C15         5.4697   -2.0726    5.9712 C.3       1 <0>        -0.1439
     21 C16         5.5356   -2.9035    7.2268 C.2       1 <0>         0.5342
     22 O2          4.9659   -3.9730    7.2767 O.2       1 <0>        -0.4829
     23 N4          6.2275   -2.4580    8.2941 N.am      1 <0>        -0.6113
     24 C17         6.2881   -3.2225    9.4494 C.2       1 <0>         0.0302
     25 C18         6.9394   -2.9257   10.6321 C.2       1 <0>        -0.2178
     26 C19         6.8491   -3.9076   11.7115 C.2       1 <0>        -0.0909
     27 C20         6.1262   -4.9987   11.4012 C.2       1 <0>        -0.2470
     28 S2          5.5821   -4.7166    9.7356 S.3       1 <0>         0.3268
     29 C21         6.0688   -5.9769   12.5432 C.3       1 <0>        -0.0314
     30 C22         7.2177   -5.5479   13.4827 C.3       1 <0>        -0.1159
     31 C23         7.3588   -4.0500   13.1440 C.3       1 <0>        -0.0600
     32 C24         7.6905   -1.6773   10.7971 C.2       1 <0>         0.5831
     33 O3          7.1330   -0.6837   11.2254 O.2       1 <0>        -0.5328
     34 N5          8.9982   -1.6300   10.4746 N.am      1 <0>        -0.8475
     35 H1         -0.9591    1.9053    0.0259 H         1 <0>         0.1239
     36 H2          1.1563    3.1654    0.0076 H         1 <0>         0.1254
     37 H3          3.3051    1.9634   -0.0196 H         1 <0>         0.1278
     38 H4          1.2231   -1.7588   -0.0176 H         1 <0>         0.1174
     39 H5         -0.9258   -0.5567    0.0082 H         1 <0>         0.1244
     40 H6          3.5884   -1.6586   -0.5549 H         1 <0>         0.0967
     41 H7          4.4573   -0.1052   -0.5563 H         1 <0>         0.1134
     42 H8          2.5708   -3.6278    2.6300 H         1 <0>         0.1308
     43 H9          2.3052   -2.9007    1.0272 H         1 <0>         0.1177
     44 H10         4.5258   -5.4521    2.8449 H         1 <0>         0.1556
     45 H11         5.9013   -6.8675    1.0010 H         1 <0>         0.1545
     46 H12         5.4694   -5.7291   -1.3194 H         1 <0>         0.2084
     47 H13         6.4772   -1.9166    5.5855 H         1 <0>         0.1356
     48 H14         5.0138   -1.1086    6.1970 H         1 <0>         0.1361
     49 H15         6.6832   -1.6026    8.2542 H         1 <0>         0.4233
     50 H16         5.1105   -5.9049   13.0575 H         1 <0>         0.0854
     51 H17         6.2321   -6.9923   12.1823 H         1 <0>         0.0802
     52 H18         6.9399   -5.6871   14.5274 H         1 <0>         0.0847
     53 H19         8.1349   -6.0885   13.2492 H         1 <0>         0.0773
     54 H20         8.4039   -3.7462   13.2046 H         1 <0>         0.0723
     55 H21         6.7510   -3.4510   13.8222 H         1 <0>         0.0826
     56 H22         9.4426   -2.4218   10.1333 H         1 <0>         0.4035
     57 H23         9.4951   -0.8041   10.5838 H         1 <0>         0.4037
@<TRIPOS>BOND
     1    1    6 ar
     2    1    2 ar
     3    1   35 1
     4    2    3 ar
     5    2   36 1
     6    3    4 ar
     7    3   37 1
     8    4    5 ar
     9    4    7 1
    10    5    6 ar
    11    5   38 1
    12    6   39 1
    13    7    8 1
    14    7   40 1
    15    7   41 1
    16    8   12 1
    17    8    9 2
    18    9   10 1
    19   10   11 2
    20   11   12 1
    21   11   19 1
    22   12   13 1
    23   13   14 1
    24   13   42 1
    25   13   43 1
    26   14   18 1
    27   14   15 2
    28   15   16 1
    29   15   44 1
    30   16   17 2
    31   16   45 1
    32   17   18 1
    33   17   46 1
    34   19   20 1
    35   20   21 1
    36   20   47 1
    37   20   48 1
    38   21   22 2
    39   21   23 am
    40   23   24 1
    41   23   49 1
    42   24   28 1
    43   24   25 2
    44   25   26 1
    45   25   32 1
    46   26   31 1
    47   26   27 2
    48   27   28 1
    49   27   29 1
    50   29   30 1
    51   29   50 1
    52   29   51 1
    53   30   31 1
    54   30   52 1
    55   30   53 1
    56   31   54 1
    57   31   55 1
    58   32   33 2
    59   32   34 am
    60   34   56 1
    61   34   57 1
@<TRIPOS>MOLECULE
ZINC13468657
   52    53     0     0     0
SMALL
USER_CHARGES

@<TRIPOS>ATOM
      1 C1          2.9451   -0.6153    1.2219 C.3       1 <0>        -0.1529
      2 C2          1.7259   -0.7073    0.3021 C.3       1 <0>         0.0592
      3 O1          1.9853   -1.6506   -0.7396 O.3       1 <0>        -0.3443
      4 C3          0.9909   -1.8860   -1.6099 C.2       1 <0>         0.4214
      5 O2         -0.1091   -1.4283   -1.4087 O.2       1 <0>        -0.4094
      6 C4          1.2464   -2.7212   -2.8380 C.3       1 <0>        -0.0645
      7 H1          2.1888   -2.4184   -3.2944 H         1 <0>         0.1385
      8 C5          1.3204   -4.1992   -2.4448 C.3       1 <0>        -0.0071
      9 C6         -0.0267   -4.6314   -1.8590 C.3       1 <0>        -0.0660
     10 H2          0.0059   -5.6936   -1.6166 H         1 <0>         0.1413
     11 C7         -1.1304   -4.3758   -2.8879 C.3       1 <0>         0.2851
     12 N1         -1.1608   -2.9482   -3.2306 N.3       1 <0>        -0.6523
     13 C8          0.1063   -2.5202   -3.8389 C.3       1 <0>         0.2824
     14 C9          0.0167   -1.0410   -4.2193 C.3       1 <0>         0.4300
     15 F1          1.2383   -0.6232   -4.7581 F         1 <0>        -0.1708
     16 F2         -0.9963   -0.8639   -5.1679 F         1 <0>        -0.1787
     17 F3         -0.2739   -0.2832   -3.0798 F         1 <0>        -0.1428
     18 O3          0.3585   -3.2985   -5.0105 O.3       1 <0>        -0.5214
     19 C10        -2.4813   -4.7876   -2.2993 C.3       1 <0>         0.4291
     20 F4         -2.8421   -3.8910   -1.2878 F         1 <0>        -0.1339
     21 F5         -3.4530   -4.7710   -3.3056 F         1 <0>        -0.1810
     22 F6         -2.3840   -6.0775   -1.7662 F         1 <0>        -0.1724
     23 O4         -0.8706   -5.1427   -4.0653 O.3       1 <0>        -0.5215
     24 C11        -0.3095   -3.8384   -0.6091 C.2       1 <0>         0.4208
     25 O5         -1.2220   -3.0467   -0.5894 O.2       1 <0>        -0.4076
     26 O6          0.4524   -4.0117    0.4823 O.3       1 <0>        -0.3463
     27 C12         0.0311   -3.3536    1.6788 C.3       1 <0>         0.0599
     28 C13         1.0425   -3.6260    2.7940 C.3       1 <0>        -0.1532
     29 C14         1.6292   -5.0297   -3.6637 C.ar      1 <0>        -0.1152
     30 C15         2.3969   -4.5069   -4.6935 C.ar      1 <0>        -0.0269
     31 C16         2.6556   -5.3072   -5.7955 C.ar      1 <0>        -0.1756
     32 C17         2.1435   -6.5906   -5.8309 C.ar      1 <0>         0.1007
     33 N2          1.4169   -7.0546   -4.8333 N.ar      1 <0>        -0.4842
     34 C18         1.1559   -6.3238   -3.7669 C.ar      1 <0>         0.1493
     35 H3          3.1450   -1.5936    1.6591 H         1 <0>         0.0685
     36 H4          3.8115   -0.2910    0.6455 H         1 <0>         0.0681
     37 H5          2.7473    0.1042    2.0165 H         1 <0>         0.0809
     38 H6          0.8595   -1.0317    0.8785 H         1 <0>         0.0706
     39 H7          1.5260    0.2709   -0.1351 H         1 <0>         0.0670
     40 H8          2.1034   -4.3391   -1.6996 H         1 <0>         0.1275
     41 H9         -1.9410   -2.7379   -3.8349 H         1 <0>         0.3651
     42 H10        -0.2843   -3.1612   -5.7198 H         1 <0>         0.3801
     43 H11        -1.4899   -4.9746   -4.7888 H         1 <0>         0.3818
     44 H12        -0.0324   -2.2803    1.5000 H         1 <0>         0.0705
     45 H13        -0.9475   -3.7310    1.9757 H         1 <0>         0.0673
     46 H14         2.0211   -3.2486    2.4971 H         1 <0>         0.0682
     47 H15         0.7211   -3.1241    3.7066 H         1 <0>         0.0807
     48 H16         1.1060   -4.6994    2.9727 H         1 <0>         0.0686
     49 H17         2.7837   -3.5001   -4.6385 H         1 <0>         0.1245
     50 H18         3.2495   -4.9326   -6.6160 H         1 <0>         0.1293
     51 H19         2.3405   -7.2205   -6.6858 H         1 <0>         0.1490
     52 H20         0.5614   -6.7400   -2.9670 H         1 <0>         0.1427
@<TRIPOS>BOND
     1    1    2 1
     2    1   35 1
     3    1   36 1
     4    1   37 1
     5    2    3 1
     6    2   38 1
     7    2   39 1
     8    3    4 1
     9    4    5 2
    10    4    6 1
    11    6    7 1
    12    6   13 1
    13    6    8 1
    14    8    9 1
    15    8   29 1
    16    8   40 1
    17    9   10 1
    18    9   11 1
    19    9   24 1
    20   11   12 1
    21   11   19 1
    22   11   23 1
    23   12   13 1
    24   12   41 1
    25   13   14 1
    26   13   18 1
    27   14   15 1
    28   14   16 1
    29   14   17 1
    30   18   42 1
    31   19   20 1
    32   19   21 1
    33   19   22 1
    34   23   43 1
    35   24   25 2
    36   24   26 1
    37   26   27 1
    38   27   28 1
    39   27   44 1
    40   27   45 1
    41   28   46 1
    42   28   47 1
    43   28   48 1
    44   29   34 ar
    45   29   30 ar
    46   30   31 ar
    47   30   49 1
    48   31   32 ar
    49   31   50 1
    50   32   33 ar
    51   32   51 1
    52   33   34 ar
    53   34   52 1
@<TRIPOS>MOLECULE
ZINC09616829
   54    57     0     0     0
SMALL
USER_CHARGES
4-[[2-[[5-[(2-fluorophenoxy)methyl]-4-phenyl-1,2,4-triazol-3-yl]sulfanyl]acetyl]amino]benzamide
@<TRIPOS>ATOM
      1 C1          1.8676   -0.8850    0.3649 C.ar      1 <0>        -0.0952
      2 C2          0.5934   -1.4202    0.3191 C.ar      1 <0>        -0.1045
      3 C3         -0.5061   -0.5860    0.2649 C.ar      1 <0>        -0.0956
      4 C4         -0.3310    0.7911    0.2568 C.ar      1 <0>         0.0883
      5 C5          0.9493    1.3256    0.3033 C.ar      1 <0>        -0.0916
      6 C6          2.0450    0.4863    0.3575 C.ar      1 <0>        -0.1052
      7 N1         -1.4453    1.6406    0.1959 N.pl3     1 <0>        -0.4034
      8 C7         -1.8688    2.5205    1.1564 C.2       1 <0>         0.1860
      9 N2         -2.9374    3.1091    0.6985 N.2       1 <0>        -0.2460
     10 N3         -3.2178    2.6669   -0.4751 N.2       1 <0>        -0.2870
     11 C8         -2.3324    1.7677   -0.8376 C.2       1 <0>         0.1560
     12 S1         -2.2960    0.8886   -2.3642 S.3       1 <0>         0.1045
     13 C9         -3.7549    1.5958   -3.1690 C.3       1 <0>        -0.1564
     14 C10        -3.9280    0.9744   -4.5310 C.2       1 <0>         0.5374
     15 O1         -3.1425    0.1360   -4.9193 O.2       1 <0>        -0.4984
     16 N4         -4.9559    1.3504   -5.3175 N.am      1 <0>        -0.6653
     17 C11        -5.0545    0.8585   -6.6185 C.ar      1 <0>         0.1743
     18 C12        -3.9010    0.6041   -7.3537 C.ar      1 <0>        -0.1297
     19 C13        -3.9947    0.1138   -8.6367 C.ar      1 <0>        -0.0631
     20 C14        -5.2505   -0.1182   -9.2043 C.ar      1 <0>        -0.1555
     21 C15        -6.4072    0.1434   -8.4651 C.ar      1 <0>        -0.0355
     22 C16        -6.3063    0.6286   -7.1807 C.ar      1 <0>        -0.1504
     23 C17        -5.3548   -0.6389  -10.5815 C.2       1 <0>         0.5648
     24 O2         -6.4480   -0.8407  -11.0739 O.2       1 <0>        -0.5402
     25 N5         -4.2383   -0.8908  -11.2931 N.am      1 <0>        -0.8511
     26 C18        -1.2189    2.7635    2.4942 C.3       1 <0>         0.1528
     27 O3         -0.2487    3.8053    2.3703 O.3       1 <0>        -0.3017
     28 C19         0.4336    4.1502    3.4945 C.ar      1 <0>         0.0972
     29 C20         0.1706    3.5036    4.6926 C.ar      1 <0>        -0.1816
     30 C21         0.8683    3.8527    5.8331 C.ar      1 <0>        -0.0870
     31 C22         1.8215    4.8531    5.7837 C.ar      1 <0>        -0.1244
     32 C23         2.0835    5.5037    4.5923 C.ar      1 <0>        -0.1147
     33 C24         1.3915    5.1551    3.4464 C.ar      1 <0>         0.0731
     34 F1          1.6466    5.7913    2.2822 F         1 <0>        -0.1309
     35 H1          2.7258   -1.5392    0.4070 H         1 <0>         0.1357
     36 H2          0.4579   -2.4917    0.3255 H         1 <0>         0.1388
     37 H3         -1.5010   -1.0046    0.2291 H         1 <0>         0.1336
     38 H4          1.0885    2.3965    0.2971 H         1 <0>         0.1342
     39 H5          3.0413    0.9016    0.3937 H         1 <0>         0.1375
     40 H6         -4.6379    1.3941   -2.5627 H         1 <0>         0.1341
     41 H7         -3.6252    2.6729   -3.2749 H         1 <0>         0.1351
     42 H8         -5.6271    1.9632   -4.9785 H         1 <0>         0.4192
     43 H9         -2.9309    0.7875   -6.9158 H         1 <0>         0.1420
     44 H10        -3.0988   -0.0874   -9.2053 H         1 <0>         0.1315
     45 H11        -7.3791   -0.0351   -8.9007 H         1 <0>         0.1432
     46 H12        -7.1998    0.8307   -6.6087 H         1 <0>         0.1369
     47 H13        -3.3662   -0.7298  -10.9002 H         1 <0>         0.4011
     48 H14        -4.3069   -1.2330  -12.1981 H         1 <0>         0.4065
     49 H15        -1.9781    3.0583    3.2187 H         1 <0>         0.1072
     50 H16        -0.7298    1.8498    2.8319 H         1 <0>         0.0878
     51 H17        -0.5766    2.7248    4.7335 H         1 <0>         0.1380
     52 H18         0.6659    3.3463    6.7652 H         1 <0>         0.1354
     53 H19         2.3621    5.1269    6.6776 H         1 <0>         0.1372
     54 H20         2.8285    6.2848    4.5564 H         1 <0>         0.1447
@<TRIPOS>BOND
     1    1    6 ar
     2    1    2 ar
     3    1   35 1
     4    2    3 ar
     5    2   36 1
     6    3    4 ar
     7    3   37 1
     8    4    5 ar
     9    4    7 1
    10    5    6 ar
    11    5   38 1
    12    6   39 1
    13    7   11 1
    14    7    8 1
    15    8    9 2
    16    8   26 1
    17    9   10 1
    18   10   11 2
    19   11   12 1
    20   12   13 1
    21   13   14 1
    22   13   40 1
    23   13   41 1
    24   14   15 2
    25   14   16 am
    26   16   17 1
    27   16   42 1
    28   17   22 ar
    29   17   18 ar
    30   18   19 ar
    31   18   43 1
    32   19   20 ar
    33   19   44 1
    34   20   21 ar
    35   20   23 1
    36   21   22 ar
    37   21   45 1
    38   22   46 1
    39   23   24 2
    40   23   25 am
    41   25   47 1
    42   25   48 1
    43   26   27 1
    44   26   49 1
    45   26   50 1
    46   27   28 1
    47   28   33 ar
    48   28   29 ar
    49   29   30 ar
    50   29   51 1
    51   30   31 ar
    52   30   52 1
    53   31   32 ar
    54   31   53 1
    55   32   33 ar
    56   32   54 1
    57   33   34 1
@<TRIPOS>MOLECULE
ZINC14749949
   63    66     0     0     0
SMALL
USER_CHARGES
methyl 3-acetamido-1-[2-(1H-indol-3-yl)ethyl]-5-[[(1S)-1-methyl-2-methylsulfanyl-ethyl]amino]pyrrolo[5,4-b]pyridine-2-carboxylate
@<TRIPOS>ATOM
      1 C1         -8.6772   -1.3840    5.2485 C.3       1 <0>        -0.1677
      2 C2         -8.0287   -2.7431    5.5192 C.3       1 <0>         0.1680
      3 H1         -7.1622   -2.6097    6.1669 H         1 <0>         0.0892
      4 C3         -9.0406   -3.6636    6.2044 C.3       1 <0>        -0.0983
      5 S1         -8.2301   -5.2217    6.6584 S.3       1 <0>        -0.2483
      6 C4         -9.5469   -6.1874    7.4485 C.3       1 <0>        -0.1258
      7 N1         -7.6034   -3.3424    4.2519 N.pl3     1 <0>        -0.7332
      8 C5         -6.3594   -3.0088    3.7023 C.ar      1 <0>         0.1415
      9 C6         -5.9518   -3.5661    2.4991 C.ar      1 <0>        -0.0876
     10 C7         -4.6983   -3.2012    1.9967 C.ar      1 <0>        -0.1105
     11 C8         -3.9396   -3.5747    0.8019 C.2       1 <0>         0.1667
     12 C9         -2.7516   -2.8752    0.8570 C.2       1 <0>         0.0263
     13 N2         -2.7382   -2.1002    2.0080 N.pl3     1 <0>        -0.4429
     14 C10        -3.9029   -2.2862    2.7137 C.ar      1 <0>         0.2810
     15 N3         -4.3472   -1.7791    3.8577 N.ar      1 <0>        -0.4614
     16 C11        -5.5202   -2.1082    4.3539 C.ar      1 <0>         0.1077
     17 C12        -1.6413   -1.2183    2.4144 C.3       1 <0>         0.1165
     18 C13        -1.8658    0.1776    1.8297 C.3       1 <0>        -0.0516
     19 C14        -0.7374    1.0848    2.2478 C.2       1 <0>        -0.1690
     20 C15        -0.7301    1.9166    3.3014 C.2       1 <0>         0.0623
     21 N4          0.4652    2.5796    3.3642 N.pl3     1 <0>        -0.5948
     22 H2          0.7050    3.2333    4.0394 H         1 <0>         0.4167
     23 C16         1.2770    2.1804    2.3261 C.ar      1 <0>         0.0949
     24 C17         0.5593    1.2265    1.5812 C.ar      1 <0>        -0.0967
     25 C18         1.1411    0.6402    0.4559 C.ar      1 <0>        -0.0759
     26 C19         2.4064    0.9969    0.0827 C.ar      1 <0>        -0.1489
     27 C20         3.1185    1.9373    0.8141 C.ar      1 <0>        -0.0982
     28 C21         2.5635    2.5281    1.9283 C.ar      1 <0>        -0.1303
     29 C22        -1.7127   -2.9383   -0.1060 C.2       1 <0>         0.5345
     30 O1         -1.8369   -3.6438   -1.0896 O.2       1 <0>        -0.4902
     31 O2         -0.5861   -2.2160    0.0683 O.3       1 <0>        -0.3465
     32 C23         0.4189   -2.3277   -0.9413 C.3       1 <0>         0.0260
     33 N5         -4.3381   -4.4607   -0.1936 N.am      1 <0>        -0.6493
     34 C24        -5.4715   -4.2312   -0.8859 C.2       1 <0>         0.5153
     35 O3         -6.0639   -3.1819   -0.7486 O.2       1 <0>        -0.5223
     36 C25        -6.0027   -5.2784   -1.8304 C.3       1 <0>        -0.1701
     37 H3         -9.5437   -1.5175    4.6008 H         1 <0>         0.0626
     38 H4         -8.9936   -0.9382    6.1915 H         1 <0>         0.0681
     39 H5         -7.9563   -0.7282    4.7604 H         1 <0>         0.0676
     40 H6         -9.4236   -3.1783    7.1021 H         1 <0>         0.0964
     41 H7         -9.8656   -3.8686    5.5221 H         1 <0>         0.0865
     42 H8        -10.3612   -6.3393    6.7400 H         1 <0>         0.0762
     43 H9         -9.1514   -7.1541    7.7602 H         1 <0>         0.1027
     44 H10        -9.9192   -5.6490    8.3201 H         1 <0>         0.0764
     45 H11        -8.1835   -3.9702    3.7934 H         1 <0>         0.4026
     46 H12        -6.5796   -4.2682    1.9706 H         1 <0>         0.1301
     47 H13        -5.8396   -1.6704    5.2880 H         1 <0>         0.1614
     48 H14        -0.6971   -1.6191    2.0455 H         1 <0>         0.1053
     49 H15        -1.6093   -1.1559    3.5021 H         1 <0>         0.0951
     50 H16        -2.8100    0.5784    2.1986 H         1 <0>         0.0753
     51 H17        -1.8979    0.1151    0.7420 H         1 <0>         0.0740
     52 H18        -1.5484    2.0467    3.9942 H         1 <0>         0.1712
     53 H19         0.5931   -0.0924   -0.1179 H         1 <0>         0.1253
     54 H20         2.8561    0.5430   -0.7880 H         1 <0>         0.1211
     55 H21         4.1178    2.2084    0.5070 H         1 <0>         0.1245
     56 H22         3.1259    3.2586    2.4910 H         1 <0>         0.1190
     57 H23         0.0096   -2.0053   -1.8987 H         1 <0>         0.0651
     58 H24         1.2690   -1.6978   -0.6790 H         1 <0>         0.1076
     59 H25         0.7449   -3.3651   -1.0163 H         1 <0>         0.0651
     60 H26        -3.8003   -5.2439   -0.3896 H         1 <0>         0.4155
     61 H27        -6.6810   -5.9415   -1.2934 H         1 <0>         0.0975
     62 H28        -6.5387   -4.7935   -2.6463 H         1 <0>         0.0967
     63 H29        -5.1726   -5.8577   -2.2347 H         1 <0>         0.0840
@<TRIPOS>BOND
     1    1    2 1
     2    1   37 1
     3    1   38 1
     4    1   39 1
     5    2    3 1
     6    2    4 1
     7    2    7 1
     8    4    5 1
     9    4   40 1
    10    4   41 1
    11    5    6 1
    12    6   42 1
    13    6   43 1
    14    6   44 1
    15    7    8 1
    16    7   45 1
    17    8   16 ar
    18    8    9 ar
    19    9   10 ar
    20    9   46 1
    21   10   14 ar
    22   10   11 1
    23   11   12 2
    24   11   33 1
    25   12   13 1
    26   12   29 1
    27   13   14 1
    28   13   17 1
    29   14   15 ar
    30   15   16 ar
    31   16   47 1
    32   17   18 1
    33   17   48 1
    34   17   49 1
    35   18   19 1
    36   18   50 1
    37   18   51 1
    38   19   24 1
    39   19   20 2
    40   20   21 1
    41   20   52 1
    42   21   22 1
    43   21   23 1
    44   23   28 ar
    45   23   24 ar
    46   24   25 ar
    47   25   26 ar
    48   25   53 1
    49   26   27 ar
    50   26   54 1
    51   27   28 ar
    52   27   55 1
    53   28   56 1
    54   29   30 2
    55   29   31 1
    56   31   32 1
    57   32   57 1
    58   32   58 1
    59   32   59 1
    60   33   34 am
    61   33   60 1
    62   34   35 2
    63   34   36 1
    64   36   61 1
    65   36   62 1
    66   36   63 1
@<TRIPOS>MOLECULE
ZINC20974654
   64    66     0     0     0
SMALL
USER_CHARGES
[2-[(3-carbamoyl-5,6-dihydro-4H-cyclopenta[d]thiophen-2-yl)amino]-2-oxo-ethyl] (E)-3-(4-butoxy-3-ethoxy-phenyl)prop-2-enoate
@<TRIPOS>ATOM
      1 C1          2.1595    5.7609    0.0124 C.3       1 <0>        -0.1545
      2 C2          2.3806    4.2470    0.0021 C.3       1 <0>        -0.1222
      3 C3          1.0269    3.5339    0.0112 C.3       1 <0>        -0.1205
      4 C4          1.2479    2.0200    0.0010 C.3       1 <0>         0.0532
      5 O1         -0.0163    1.3539    0.0095 O.3       1 <0>        -0.2990
      6 C5          0.0021   -0.0041    0.0020 C.ar      1 <0>         0.1281
      7 C6          1.2151   -0.6799   -0.0190 C.ar      1 <0>        -0.1806
      8 C7          1.2404   -2.0570   -0.0218 C.ar      1 <0>        -0.0819
      9 C8          0.0409   -2.7785   -0.0142 C.ar      1 <0>        -0.0921
     10 C9         -1.1813   -2.0963    0.0016 C.ar      1 <0>        -0.1417
     11 C10        -1.1972   -0.7156    0.0096 C.ar      1 <0>         0.0981
     12 O2         -2.3827   -0.0495    0.0254 O.3       1 <0>        -0.3025
     13 C11        -3.5720   -0.8417    0.0325 C.3       1 <0>         0.0496
     14 C12        -4.7960    0.0760    0.0502 C.3       1 <0>        -0.1543
     15 C13         0.0647   -4.2479   -0.0233 C.2       1 <0>         0.0248
     16 C14         1.2454   -4.9042   -0.0385 C.2       1 <0>        -0.2218
     17 C15         1.2684   -6.3218   -0.0473 C.2       1 <0>         0.5101
     18 O3          0.2249   -6.9471   -0.0411 O.2       1 <0>        -0.5136
     19 O4          2.4476   -6.9774   -0.0625 O.3       1 <0>        -0.3267
     20 C16         2.3960   -8.4054   -0.0706 C.3       1 <0>         0.0548
     21 C17         3.7976   -8.9587   -0.0874 C.2       1 <0>         0.5134
     22 O5          4.7473   -8.2044   -0.0919 O.2       1 <0>        -0.4783
     23 N1          3.9958  -10.2918   -0.0973 N.am      1 <0>        -0.6297
     24 C18         5.2855  -10.8009   -0.1127 C.2       1 <0>         0.0745
     25 C19         5.6875  -12.1255   -0.1189 C.2       1 <0>        -0.2124
     26 C20         7.1244  -12.3971   -0.1397 C.2       1 <0>        -0.0960
     27 C21         7.9117  -11.3064   -0.1410 C.2       1 <0>        -0.2361
     28 S1          6.7838   -9.9346   -0.1212 S.3       1 <0>         0.2573
     29 C22         9.3729  -11.6656   -0.1600 C.3       1 <0>        -0.0365
     30 C23         9.4045  -13.1437   -0.6076 C.3       1 <0>        -0.1124
     31 C24         8.0167  -13.6389   -0.1541 C.3       1 <0>        -0.0563
     32 C25         4.7081  -13.2167   -0.1091 C.2       1 <0>         0.5834
     33 O6          4.2900  -13.6686   -1.1589 O.2       1 <0>        -0.5428
     34 N2          4.2710  -13.7193    1.0626 N.am      1 <0>        -0.8704
     35 H1          3.1327    6.2736    0.0059 H         1 <0>         0.0583
     36 H2          1.6020    6.0439    0.9175 H         1 <0>         0.0567
     37 H3          1.5848    6.0536   -0.8787 H         1 <0>         0.0567
     38 H4          2.9381    3.9640   -0.9030 H         1 <0>         0.0656
     39 H5          2.9553    3.9543    0.8932 H         1 <0>         0.0656
     40 H6          0.4694    3.8170    0.9162 H         1 <0>         0.0755
     41 H7          0.4523    3.8266   -0.8799 H         1 <0>         0.0756
     42 H8          1.8054    1.7369   -0.9040 H         1 <0>         0.0653
     43 H9          1.8225    1.7273    0.8921 H         1 <0>         0.0653
     44 H10         2.1411   -0.1242   -0.0293 H         1 <0>         0.1417
     45 H11         2.1853   -2.5799   -0.0340 H         1 <0>         0.1373
     46 H12        -2.1095   -2.6485    0.0079 H         1 <0>         0.1422
     47 H13        -3.5987   -1.4711   -0.8692 H         1 <0>         0.0635
     48 H14        -3.5808   -1.4819    0.9269 H         1 <0>         0.0634
     49 H15        -5.7114   -0.5339    0.0557 H         1 <0>         0.0805
     50 H16        -4.7872    0.7162   -0.8443 H         1 <0>         0.0679
     51 H17        -4.7693    0.7054    0.9519 H         1 <0>         0.0679
     52 H18        -0.8788   -4.8133   -0.0177 H         1 <0>         0.1439
     53 H19         2.1889   -4.3388   -0.0440 H         1 <0>         0.1480
     54 H20         1.8732   -8.7585    0.8305 H         1 <0>         0.1096
     55 H21         1.8559   -8.7477   -0.9657 H         1 <0>         0.1101
     56 H22         3.1345  -10.9760   -0.0932 H         1 <0>         0.4484
     57 H23         9.9020  -11.0117   -0.8689 H         1 <0>         0.0789
     58 H24         9.7961  -11.5335    0.8467 H         1 <0>         0.0844
     59 H25         9.5474  -13.1939   -1.6971 H         1 <0>         0.0781
     60 H26        10.2346  -13.6614   -0.1047 H         1 <0>         0.0849
     61 H27         8.0556  -14.0742    0.8554 H         1 <0>         0.0807
     62 H28         7.6047  -14.3783   -0.8566 H         1 <0>         0.0739
     63 H29         3.5363  -14.5379    1.0700 H         1 <0>         0.4229
     64 H30         4.6490  -13.3109    2.0115 H         1 <0>         0.4222
@<TRIPOS>BOND
     1    1    2 1
     2    1   35 1
     3    1   36 1
     4    1   37 1
     5    2    3 1
     6    2   38 1
     7    2   39 1
     8    3    4 1
     9    3   40 1
    10    3   41 1
    11    4    5 1
    12    4   42 1
    13    4   43 1
    14    5    6 1
    15    6   11 ar
    16    6    7 ar
    17    7    8 ar
    18    7   44 1
    19    8    9 ar
    20    8   45 1
    21    9   10 ar
    22    9   15 1
    23   10   11 ar
    24   10   46 1
    25   11   12 1
    26   12   13 1
    27   13   14 1
    28   13   47 1
    29   13   48 1
    30   14   49 1
    31   14   50 1
    32   14   51 1
    33   15   16 2
    34   15   52 1
    35   16   17 1
    36   16   53 1
    37   17   18 2
    38   17   19 1
    39   19   20 1
    40   20   21 1
    41   20   54 1
    42   20   55 1
    43   21   22 2
    44   21   23 am
    45   23   24 1
    46   23   56 1
    47   24   28 1
    48   24   25 2
    49   25   26 1
    50   25   32 1
    51   26   31 1
    52   26   27 2
    53   27   28 1
    54   27   29 1
    55   29   30 1
    56   29   57 1
    57   29   58 1
    58   30   31 1
    59   30   59 1
    60   30   60 1
    61   31   61 1
    62   31   62 1
    63   32   33 2
    64   32   34 am
    65   34   63 1
    66   34   64 1
@<TRIPOS>MOLECULE
ZINC38706112
   68    71     0     0     0
SMALL
USER_CHARGES

@<TRIPOS>ATOM
      1 C1         -0.7353    1.0462   -0.8139 C.3       1 <0>        -0.1183
      2 C2         -0.5905   -0.4421   -0.6273 C.ar      1 <0>        -0.0545
      3 C3         -1.5294   -1.2994   -1.1734 C.ar      1 <0>        -0.1309
      4 C4         -1.4044   -2.6639   -1.0073 C.ar      1 <0>        -0.0353
      5 C5         -0.3300   -3.1808   -0.2877 C.ar      1 <0>        -0.0445
      6 C6          0.6168   -2.3126    0.2628 C.ar      1 <0>         0.1390
      7 C7          0.4825   -0.9451    0.0837 C.ar      1 <0>        -0.1566
      8 O1          1.6682   -2.8080    0.9663 O.3       1 <0>        -0.4932
      9 C8         -0.1913   -4.6472   -0.1058 C.2       1 <0>         0.1192
     10 C9          0.0600   -5.3121    1.0992 C.2       1 <0>        -0.1435
     11 C10         0.1064   -6.6567    0.7847 C.2       1 <0>        -0.0702
     12 N1         -0.1133   -6.7396   -0.5609 N.pl3     1 <0>        -0.3360
     13 H1         -0.1387   -7.5640   -1.0715 H         1 <0>         0.4524
     14 N2         -0.2879   -5.5633   -1.0491 N.2       1 <0>        -0.2416
     15 C11         0.3678   -7.4145    2.0135 C.2       1 <0>         0.5988
     16 O2          0.4673   -8.6252    2.0747 O.2       1 <0>        -0.5189
     17 N3          0.4820   -6.5806    3.0628 N.am      1 <0>        -0.5938
     18 C12         0.3007   -5.2054    2.5801 C.3       1 <0>         0.2545
     19 H2          1.1983   -4.6180    2.7730 H         1 <0>         0.1169
     20 C13        -0.8891   -4.5726    3.2547 C.ar      1 <0>        -0.0912
     21 C14        -2.0537   -5.2985    3.4226 C.ar      1 <0>        -0.0929
     22 C15        -3.1478   -4.7225    4.0408 C.ar      1 <0>        -0.1740
     23 C16        -3.0787   -3.4150    4.4941 C.ar      1 <0>         0.1118
     24 C17        -1.9063   -2.6844    4.3256 C.ar      1 <0>         0.1017
     25 C18        -0.8117   -3.2694    3.7094 C.ar      1 <0>        -0.1461
     26 O3         -1.8336   -1.4008    4.7688 O.3       1 <0>        -0.3040
     27 C19        -0.5988   -0.7120    4.5617 C.3       1 <0>         0.0260
     28 O4         -4.1543   -2.8467    5.1021 O.3       1 <0>        -0.2999
     29 C20        -5.3239   -3.6559    5.2403 C.3       1 <0>         0.0617
     30 C21        -6.4202   -2.8520    5.9423 C.3       1 <0>        -0.0936
     31 C22        -6.8416   -1.6800    5.0536 C.3       1 <0>        -0.1476
     32 C23        -7.6277   -3.7549    6.2021 C.3       1 <0>        -0.1471
     33 C24         0.7421   -6.9763    4.4492 C.3       1 <0>         0.1428
     34 C25         2.2519   -7.0099    4.6953 C.3       1 <0>        -0.1404
     35 C26         2.5235   -7.4231    6.1431 C.3       1 <0>         0.0794
     36 O5          3.9336   -7.4545    6.3730 O.3       1 <0>        -0.5736
     37 C27        -2.4299   -3.5934   -1.6035 C.3       1 <0>        -0.1129
     38 H3         -0.2215    1.3497   -1.7261 H         1 <0>         0.0744
     39 H4         -1.7922    1.3017   -0.8900 H         1 <0>         0.0700
     40 H5         -0.2969    1.5638    0.0394 H         1 <0>         0.0688
     41 H6         -2.3631   -0.8993   -1.7313 H         1 <0>         0.1281
     42 H7          1.2148   -0.2715    0.5037 H         1 <0>         0.1315
     43 H8          2.4719   -2.9262    0.4416 H         1 <0>         0.3919
     44 H9         -2.1089   -6.3178    3.0697 H         1 <0>         0.1194
     45 H10        -4.0566   -5.2915    4.1701 H         1 <0>         0.1344
     46 H11         0.1006   -2.7058    3.5807 H         1 <0>         0.1401
     47 H12        -0.6756    0.2994    4.9608 H         1 <0>         0.1001
     48 H13         0.2041   -1.2440    5.0720 H         1 <0>         0.0546
     49 H14        -0.3830   -0.6659    3.4943 H         1 <0>         0.0565
     50 H15        -5.6727   -3.9618    4.2540 H         1 <0>         0.0613
     51 H16        -5.0863   -4.5399    5.8320 H         1 <0>         0.0611
     52 H17        -6.0408   -2.4710    6.8904 H         1 <0>         0.0818
     53 H18        -5.9813   -1.0367    4.8685 H         1 <0>         0.0638
     54 H19        -7.2210   -2.0610    4.1054 H         1 <0>         0.0532
     55 H20        -7.6226   -1.1073    5.5537 H         1 <0>         0.0571
     56 H21        -7.3276   -4.5899    6.8352 H         1 <0>         0.0577
     57 H22        -8.4088   -3.1822    6.7021 H         1 <0>         0.0657
     58 H23        -8.0072   -4.1359    5.2539 H         1 <0>         0.0578
     59 H24         0.2798   -6.2570    5.1252 H         1 <0>         0.0913
     60 H25         0.3225   -7.9660    4.6294 H         1 <0>         0.0921
     61 H26         2.7142   -7.7292    4.0193 H         1 <0>         0.0766
     62 H27         2.6715   -6.0202    4.5151 H         1 <0>         0.0759
     63 H28         2.0611   -6.7039    6.8191 H         1 <0>         0.0489
     64 H29         2.1039   -8.4128    6.3233 H         1 <0>         0.0492
     65 H30         4.1798   -7.7094    7.2727 H         1 <0>         0.3829
     66 H31        -2.1247   -3.8721   -2.6121 H         1 <0>         0.0781
     67 H32        -2.5101   -4.4891   -0.9876 H         1 <0>         0.0653
     68 H33        -3.3965   -3.0912   -1.6422 H         1 <0>         0.0671
@<TRIPOS>BOND
     1    1    2 1
     2    1   38 1
     3    1   39 1
     4    1   40 1
     5    2    7 ar
     6    2    3 ar
     7    3    4 ar
     8    3   41 1
     9    4    5 ar
    10    4   37 1
    11    5    6 ar
    12    5    9 1
    13    6    7 ar
    14    6    8 1
    15    7   42 1
    16    8   43 1
    17    9   14 2
    18    9   10 1
    19   10   18 1
    20   10   11 2
    21   11   12 1
    22   11   15 1
    23   12   13 1
    24   12   14 1
    25   15   16 2
    26   15   17 am
    27   17   18 1
    28   17   33 1
    29   18   19 1
    30   18   20 1
    31   20   25 ar
    32   20   21 ar
    33   21   22 ar
    34   21   44 1
    35   22   23 ar
    36   22   45 1
    37   23   24 ar
    38   23   28 1
    39   24   25 ar
    40   24   26 1
    41   25   46 1
    42   26   27 1
    43   27   47 1
    44   27   48 1
    45   27   49 1
    46   28   29 1
    47   29   30 1
    48   29   50 1
    49   29   51 1
    50   30   31 1
    51   30   32 1
    52   30   52 1
    53   31   53 1
    54   31   54 1
    55   31   55 1
    56   32   56 1
    57   32   57 1
    58   32   58 1
    59   33   34 1
    60   33   59 1
    61   33   60 1
    62   34   35 1
    63   34   61 1
    64   34   62 1
    65   35   36 1
    66   35   63 1
    67   35   64 1
    68   36   65 1
    69   37   66 1
    70   37   67 1
    71   37   68 1
@<TRIPOS>MOLECULE
ZINC65063568
   58    60     0     0     0
SMALL
USER_CHARGES

@<TRIPOS>ATOM
      1 C1          1.8062   -2.0942   -2.1383 C.3       1 <0>        -0.1163
      2 C2          0.7326   -1.7760   -1.1298 C.ar      1 <0>        -0.1153
      3 C3         -0.2749   -0.8851   -1.4523 C.ar      1 <0>        -0.0416
      4 C4         -1.2601   -0.5913   -0.5304 C.ar      1 <0>        -0.1349
      5 C5         -1.2389   -1.1921    0.7217 C.ar      1 <0>         0.2395
      6 C6         -0.2263   -2.0865    1.0423 C.ar      1 <0>        -0.7048
      7 C7          0.7536   -2.3797    0.1139 C.ar      1 <0>        -0.0062
      8 S1         -0.1949   -2.8513    2.6293 S.o2      1 <0>         2.6842
      9 O1          0.9212   -3.7308    2.6342 O.2       1 <0>        -0.9328
     10 O2         -0.3489   -1.8107    3.5847 O.2       1 <0>        -0.9405
     11 N1         -1.5467   -3.8012    2.7420 N.pl3     1 <0>        -1.0637
     12 C8         -1.6800   -4.9279    1.9235 C.ar      1 <0>         0.1603
     13 C9         -1.3964   -4.8387    0.5669 C.ar      1 <0>        -0.1478
     14 C10        -1.5279   -5.9514   -0.2402 C.ar      1 <0>        -0.0814
     15 C11        -1.9431   -7.1582    0.3037 C.ar      1 <0>         0.0835
     16 C12        -2.2270   -7.2480    1.6587 C.ar      1 <0>        -0.0875
     17 C13        -2.0905   -6.1376    2.4682 C.ar      1 <0>        -0.1119
     18 O3         -2.0723   -8.2535   -0.4917 O.3       1 <0>        -0.2400
     19 C14        -0.9429   -8.8862   -0.8913 C.ar      1 <0>         0.3390
     20 C15        -1.0312   -9.9435   -1.7919 C.ar      1 <0>        -0.1867
     21 C16         0.1122  -10.5812   -2.1940 C.ar      1 <0>         0.0179
     22 C17         1.3402  -10.1408   -1.6786 C.ar      1 <0>        -0.2240
     23 C18         1.3532   -9.0740   -0.7790 C.ar      1 <0>         0.1792
     24 N2          0.2298   -8.4859   -0.4233 N.ar      1 <0>        -0.5267
     25 C19         2.5999  -10.7963   -2.0814 C.2       1 <0>         0.5687
     26 O4          2.5782  -11.7253   -2.8654 O.2       1 <0>        -0.5333
     27 N3          3.7743  -10.3650   -1.5799 N.am      1 <0>        -0.7241
     28 C20         5.0245  -11.0156   -1.9797 C.3       1 <0>         0.1473
     29 C21         6.1827  -10.3494   -1.2826 C.2       1 <0>        -0.1839
     30 C22         7.0147  -11.0639   -0.5661 C.2       1 <0>        -0.1587
     31 N4         -2.2355   -0.8963    1.6583 N.am      1 <0>        -0.6839
     32 C23        -2.7671    0.3412    1.7085 C.2       1 <0>         0.5210
     33 O5         -2.4463    1.1729    0.8861 O.2       1 <0>        -0.5134
     34 C24        -3.7601    0.6915    2.7866 C.3       1 <0>        -0.1734
     35 H1          1.4933   -2.9429   -2.7465 H         1 <0>         0.0748
     36 H2          1.9703   -1.2284   -2.7798 H         1 <0>         0.0715
     37 H3          2.7316   -2.3416   -1.6181 H         1 <0>         0.0718
     38 H4         -0.2908   -0.4183   -2.4261 H         1 <0>         0.1378
     39 H5         -2.0462    0.1050   -0.7826 H         1 <0>         0.1523
     40 H6          1.5392   -3.0784    0.3611 H         1 <0>         0.1497
     41 H7         -2.2460   -3.5764    3.3755 H         1 <0>         0.4267
     42 H8         -1.0735   -3.8992    0.1433 H         1 <0>         0.1391
     43 H9         -1.3077   -5.8821   -1.2952 H         1 <0>         0.1337
     44 H10        -2.5505   -8.1878    2.0813 H         1 <0>         0.1391
     45 H11        -2.3073   -6.2088    3.5238 H         1 <0>         0.1410
     46 H12        -1.9926  -10.2585   -2.1699 H         1 <0>         0.1535
     47 H13         0.0693  -11.4045   -2.8917 H         1 <0>         0.1577
     48 H14         2.2920   -8.7255   -0.3745 H         1 <0>         0.1638
     49 H15         3.7916   -9.6239   -0.9544 H         1 <0>         0.4012
     50 H16         4.9908  -12.0691   -1.7023 H         1 <0>         0.0749
     51 H17         5.1509  -10.9279   -3.0588 H         1 <0>         0.0793
     52 H18         6.3267   -9.2829   -1.3737 H         1 <0>         0.1172
     53 H19         7.8447  -10.5865   -0.0665 H         1 <0>         0.1055
     54 H20         6.8706  -12.1304   -0.4750 H         1 <0>         0.1013
     55 H21        -2.5438   -1.5818    2.2714 H         1 <0>         0.4056
     56 H22        -3.2399    1.1634    3.6203 H         1 <0>         0.1071
     57 H23        -4.5038    1.3802    2.3858 H         1 <0>         0.1036
     58 H24        -4.2547   -0.2157    3.1337 H         1 <0>         0.0842
@<TRIPOS>BOND
     1    1    2 1
     2    1   35 1
     3    1   36 1
     4    1   37 1
     5    2    7 ar
     6    2    3 ar
     7    3    4 ar
     8    3   38 1
     9    4    5 ar
    10    4   39 1
    11    5    6 ar
    12    5   31 1
    13    6    7 ar
    14    6    8 1
    15    7   40 1
    16    8    9 2
    17    8   10 2
    18    8   11 1
    19   11   12 1
    20   11   41 1
    21   12   17 ar
    22   12   13 ar
    23   13   14 ar
    24   13   42 1
    25   14   15 ar
    26   14   43 1
    27   15   16 ar
    28   15   18 1
    29   16   17 ar
    30   16   44 1
    31   17   45 1
    32   18   19 1
    33   19   24 ar
    34   19   20 ar
    35   20   21 ar
    36   20   46 1
    37   21   22 ar
    38   21   47 1
    39   22   23 ar
    40   22   25 1
    41   23   24 ar
    42   23   48 1
    43   25   26 2
    44   25   27 am
    45   27   28 1
    46   27   49 1
    47   28   29 1
    48   28   50 1
    49   28   51 1
    50   29   30 2
    51   29   52 1
    52   30   53 1
    53   30   54 1
    54   31   32 am
    55   31   55 1
    56   32   33 2
    57   32   34 1
    58   34   56 1
    59   34   57 1
    60   34   58 1
@<TRIPOS>MOLECULE
ZINC13495957
   80    84     0     0     0
SMALL
USER_CHARGES
3-[[[(1R)-1-(1-cyclohexyltetrazol-5-yl)propyl]-[2-(m-tolyl)ethyl]amino]methyl]-6-ethoxy-1H-quinolin-2-one
@<TRIPOS>ATOM
      1 C1         -5.4748    4.0358   -0.2338 C.3       1 <0>        -0.1808
      2 C2         -4.7009    5.3549   -0.2770 C.3       1 <0>        -0.1455
      3 C3         -4.4831    5.8653    1.1488 C.3       1 <0>         0.1311
      4 H1         -5.4473    5.9872    1.6424 H         1 <0>         0.1540
      5 C4         -3.7706    7.1925    1.1039 C.2       1 <0>         0.0988
      6 N1         -2.4895    7.3866    0.9063 N.2       1 <0>        -0.2524
      7 N2         -2.2698    8.6558    0.9378 N.2       1 <0>        -0.0490
      8 N3         -3.3776    9.2763    1.1504 N.2       1 <0>        -0.0538
      9 N4         -4.3272    8.4089    1.2531 N.pl3     1 <0>        -0.2739
     10 C5         -5.7443    8.6942    1.4910 C.3       1 <0>         0.1362
     11 C6         -6.2876    9.5622    0.3543 C.3       1 <0>        -0.1305
     12 C7         -7.7676    9.8601    0.6027 C.3       1 <0>        -0.1154
     13 C8         -7.9222   10.6038    1.9309 C.3       1 <0>        -0.1306
     14 C9         -7.3789    9.7357    3.0676 C.3       1 <0>        -0.1152
     15 C10        -5.8989    9.4378    2.8192 C.3       1 <0>        -0.1312
     16 C11        -4.5115    3.8570    2.5009 C.3       1 <0>        -0.0315
     17 C12        -5.3124    4.4574    3.6580 C.3       1 <0>        -0.0998
     18 C13        -6.0731    3.3641    4.3631 C.ar      1 <0>        -0.0999
     19 C14        -7.3542    3.0402    3.9563 C.ar      1 <0>        -0.1161
     20 C15        -8.0503    2.0348    4.6004 C.ar      1 <0>        -0.1076
     21 C16        -7.4689    1.3589    5.6571 C.ar      1 <0>        -0.1062
     22 C17        -6.1900    1.6860    6.0669 C.ar      1 <0>        -0.0737
     23 C18        -5.4922    2.6890    5.4201 C.ar      1 <0>        -0.1110
     24 C19        -5.5565    0.9496    7.2190 C.3       1 <0>        -0.1232
     25 C20        -2.6350    4.3049    1.0378 C.3       1 <0>         0.0556
     26 C21        -1.5989    3.6253    1.8954 C.2       1 <0>        -0.2598
     27 C22        -1.6986    2.2973    2.1506 C.2       1 <0>         0.0504
     28 C23        -0.6721    1.6653    2.9817 C.ar      1 <0>        -0.1143
     29 C24        -0.7203    0.2980    3.2732 C.ar      1 <0>        -0.0873
     30 C25         0.2605   -0.2646    4.0648 C.ar      1 <0>         0.1107
     31 C26         1.2924    0.5220    4.5717 C.ar      1 <0>        -0.1273
     32 C27         1.3507    1.8691    4.2913 C.ar      1 <0>        -0.1224
     33 C28         0.3725    2.4563    3.4955 C.ar      1 <0>         0.1654
     34 N5          0.4128    3.8046    3.2037 N.am      1 <0>        -0.6202
     35 H2          1.1331    4.3490    3.5582 H         1 <0>         0.4244
     36 C29        -0.5315    4.3745    2.4349 C.2       1 <0>         0.5331
     37 O1         -0.4638    5.5682    2.1975 O.2       1 <0>        -0.5115
     38 O2          0.2190   -1.5930    4.3516 O.3       1 <0>        -0.3101
     39 C30         1.2645   -2.1116    5.1762 C.3       1 <0>         0.0516
     40 C31         1.0505   -3.6117    5.3879 C.3       1 <0>        -0.1553
     41 H3         -5.8558    3.8053   -1.2287 H         1 <0>         0.0948
     42 H4         -4.8115    3.2360    0.0955 H         1 <0>         0.0665
     43 H5         -6.3085    4.1263    0.4626 H         1 <0>         0.0756
     44 H6         -5.2701    6.0917   -0.8437 H         1 <0>         0.1157
     45 H7         -3.7354    5.1942   -0.7567 H         1 <0>         0.1061
     46 H8         -6.3015    7.7582    1.5316 H         1 <0>         0.1140
     47 H9         -5.7304   10.4982    0.3137 H         1 <0>         0.0898
     48 H10        -6.1775    9.0325   -0.5919 H         1 <0>         0.0753
     49 H11        -8.3248    8.9242    0.6434 H         1 <0>         0.0690
     50 H12        -8.1547   10.4786   -0.2071 H         1 <0>         0.0823
     51 H13        -8.9766   10.8160    2.1079 H         1 <0>         0.0767
     52 H14        -7.3650   11.5397    1.8903 H         1 <0>         0.0717
     53 H15        -7.9361    8.7997    3.1083 H         1 <0>         0.0685
     54 H16        -7.4890   10.2654    4.0139 H         1 <0>         0.0816
     55 H17        -5.5118    8.8193    3.6290 H         1 <0>         0.0722
     56 H18        -5.3417   10.3737    2.7786 H         1 <0>         0.0904
     57 H19        -5.1970    3.4630    1.7505 H         1 <0>         0.1534
     58 H20        -3.8806    3.0509    2.8755 H         1 <0>         0.1351
     59 H21        -4.6313    4.9375    4.3607 H         1 <0>         0.0926
     60 H22        -6.0139    5.1959    3.2698 H         1 <0>         0.0914
     61 H23        -7.8097    3.5708    3.1333 H         1 <0>         0.1232
     62 H24        -9.0497    1.7795    4.2805 H         1 <0>         0.1297
     63 H25        -8.0142    0.5756    6.1626 H         1 <0>         0.1289
     64 H26        -4.4931    2.9448    5.7405 H         1 <0>         0.1219
     65 H27        -5.7907    1.4633    8.1514 H         1 <0>         0.0763
     66 H28        -5.9450   -0.0681    7.2574 H         1 <0>         0.0727
     67 H29        -4.4756    0.9209    7.0815 H         1 <0>         0.0682
     68 H30        -2.1605    5.0884    0.4469 H         1 <0>         0.1592
     69 H31        -3.0917    3.5733    0.3713 H         1 <0>         0.1448
     70 H32        -2.5146    1.7174    1.7455 H         1 <0>         0.1556
     71 H33        -1.5195   -0.3135    2.8812 H         1 <0>         0.1491
     72 H34         2.0542    0.0711    5.1903 H         1 <0>         0.1459
     73 H35         2.1553    2.4695    4.6896 H         1 <0>         0.1453
     74 H36         2.2261   -1.9468    4.6902 H         1 <0>         0.0666
     75 H37         1.2528   -1.6033    6.1404 H         1 <0>         0.0660
     76 H38         1.0622   -4.1200    4.4237 H         1 <0>         0.0693
     77 H39         1.8480   -4.0073    6.0169 H         1 <0>         0.0840
     78 H40         0.0889   -3.7765    5.8738 H         1 <0>         0.0687
     79 N6         -3.6560    4.9118    1.9177 N.4       1 <0>        -0.3857
     80 H41        -3.1843    5.4165    2.6773 H         1 <0>         0.4322
@<TRIPOS>BOND
     1    1    2 1
     2    1   41 1
     3    1   42 1
     4    1   43 1
     5    2    3 1
     6    2   44 1
     7    2   45 1
     8    3    4 1
     9    3    5 1
    10    3   79 1
    11    5    9 1
    12    5    6 2
    13    6    7 1
    14    7    8 2
    15    8    9 1
    16    9   10 1
    17   10   15 1
    18   10   11 1
    19   10   46 1
    20   11   12 1
    21   11   47 1
    22   11   48 1
    23   12   13 1
    24   12   49 1
    25   12   50 1
    26   13   14 1
    27   13   51 1
    28   13   52 1
    29   14   15 1
    30   14   53 1
    31   14   54 1
    32   15   55 1
    33   15   56 1
    34   16   17 1
    35   16   57 1
    36   16   58 1
    37   16   79 1
    38   17   18 1
    39   17   59 1
    40   17   60 1
    41   18   23 ar
    42   18   19 ar
    43   19   20 ar
    44   19   61 1
    45   20   21 ar
    46   20   62 1
    47   21   22 ar
    48   21   63 1
    49   22   23 ar
    50   22   24 1
    51   23   64 1
    52   24   65 1
    53   24   66 1
    54   24   67 1
    55   25   26 1
    56   25   68 1
    57   25   69 1
    58   25   79 1
    59   26   36 1
    60   26   27 2
    61   27   28 1
    62   27   70 1
    63   28   33 ar
    64   28   29 ar
    65   29   30 ar
    66   29   71 1
    67   30   31 ar
    68   30   38 1
    69   31   32 ar
    70   31   72 1
    71   32   33 ar
    72   32   73 1
    73   33   34 1
    74   34   35 1
    75   34   36 am
    76   36   37 2
    77   38   39 1
    78   39   40 1
    79   39   74 1
    80   39   75 1
    81   40   76 1
    82   40   77 1
    83   40   78 1
    84   79   80 1
@<TRIPOS>MOLECULE
ZINC35778281
   75    78     0     0     0
SMALL
USER_CHARGES

@<TRIPOS>ATOM
      1 C1         -1.4537    2.5440    0.5256 C.3       1 <0>        -0.1081
      2 C2         -1.3933    1.0535    0.3115 C.ar      1 <0>        -0.1082
      3 C3         -1.6134    0.5263   -0.9465 C.ar      1 <0>        -0.0816
      4 C4         -1.5587   -0.8409   -1.1435 C.ar      1 <0>        -0.1435
      5 C5         -1.2832   -1.6842   -0.0828 C.ar      1 <0>        -0.0862
      6 C6         -1.0620   -1.1621    1.1767 C.ar      1 <0>        -0.2045
      7 C7         -1.1111    0.2102    1.3760 C.ar      1 <0>         0.1163
      8 O1         -0.8883    0.7267    2.6131 O.3       1 <0>        -0.2983
      9 C8         -0.6035   -0.2011    3.6619 C.3       1 <0>         0.0323
     10 C9         -0.3829    0.5603    4.9705 C.3       1 <0>         0.0884
     11 H1         -1.2471    1.1931    5.1728 H         1 <0>         0.1336
     12 C10        -0.2016   -0.4370    6.1165 C.3       1 <0>        -0.0451
     13 N1         -0.1095    0.2910    7.3892 N.4       1 <0>        -0.3786
     14 C11         0.1838   -0.6549    8.4742 C.3       1 <0>         0.0751
     15 C12         1.5590   -1.2379    8.2743 C.2       1 <0>        -0.2927
     16 C13         1.8566   -2.4695    7.6609 C.2       1 <0>         0.1508
     17 N2          3.1628   -2.6286    7.6746 N.2       1 <0>        -0.2294
     18 N3          3.7353   -1.5101    8.2934 N.pl3     1 <0>        -0.3482
     19 C14         2.7322   -0.6664    8.6483 C.2       1 <0>         0.2916
     20 O2          2.8766    0.5324    9.2685 O.3       1 <0>        -0.2307
     21 C15         2.9259    0.5463   10.6269 C.ar      1 <0>         0.0561
     22 C16         2.9351   -0.6468   11.3341 C.ar      1 <0>        -0.1611
     23 C17         2.9858   -0.6303   12.7147 C.ar      1 <0>        -0.0867
     24 C18         3.0268    0.5740   13.3928 C.ar      1 <0>        -0.0993
     25 C19         3.0173    1.7658   12.6919 C.ar      1 <0>        -0.1141
     26 C20         2.9729    1.7555   11.3094 C.ar      1 <0>         0.0950
     27 F1          2.9693    2.9198   10.6240 F         1 <0>        -0.1243
     28 C21         5.1663   -1.2866    8.5135 C.3       1 <0>         0.0833
     29 C22         0.8687   -3.4231    7.0972 C.ar      1 <0>        -0.0440
     30 C23        -0.3036   -3.7086    7.7939 C.ar      1 <0>        -0.1071
     31 C24        -1.2190   -4.5958    7.2648 C.ar      1 <0>        -0.1129
     32 C25        -0.9741   -5.2014    6.0456 C.ar      1 <0>        -0.0958
     33 C26         0.1881   -4.9215    5.3498 C.ar      1 <0>        -0.1110
     34 C27         1.1077   -4.0315    5.8668 C.ar      1 <0>        -0.0875
     35 C28        -1.3854    0.9667    7.6602 C.3       1 <0>        -0.0172
     36 C29        -1.2461    1.8368    8.9110 C.3       1 <0>        -0.1159
     37 C30        -0.1969    2.9224    8.6628 C.3       1 <0>        -0.1690
     38 C31        -2.5918    2.4914    9.2294 C.3       1 <0>        -0.1502
     39 O3          0.7867    1.3734    4.8571 O.3       1 <0>        -0.5399
     40 H2         -0.4647    2.9742    0.3674 H         1 <0>         0.0704
     41 H3         -2.1585    2.9842   -0.1798 H         1 <0>         0.0687
     42 H4         -1.7815    2.7518    1.5442 H         1 <0>         0.0681
     43 H5         -1.8287    1.1829   -1.7766 H         1 <0>         0.1334
     44 H6         -1.7317   -1.2511   -2.1275 H         1 <0>         0.1286
     45 H7         -1.2413   -2.7520   -0.2392 H         1 <0>         0.1271
     46 H8         -0.8469   -1.8211    2.0048 H         1 <0>         0.1235
     47 H9         -1.4425   -0.8872    3.7778 H         1 <0>         0.0804
     48 H10         0.2955   -0.7652    3.4138 H         1 <0>         0.0748
     49 H11        -1.0547   -1.1148    6.1466 H         1 <0>         0.1440
     50 H12         0.7122   -1.0097    5.9586 H         1 <0>         0.1355
     51 H13         0.1457   -0.1337    9.4308 H         1 <0>         0.1370
     52 H14        -0.5551   -1.4562    8.4673 H         1 <0>         0.1431
     53 H15         2.9024   -1.5883   10.8059 H         1 <0>         0.1343
     54 H16         2.9929   -1.5595   13.2652 H         1 <0>         0.1421
     55 H17         3.0660    0.5838   14.4720 H         1 <0>         0.1468
     56 H18         3.0491    2.7051   13.2240 H         1 <0>         0.1545
     57 H19         5.5691   -0.6830    7.7002 H         1 <0>         0.0956
     58 H20         5.3113   -0.7648    9.4595 H         1 <0>         0.0952
     59 H21         5.6833   -2.2457    8.5447 H         1 <0>         0.1104
     60 H22        -0.4955   -3.2369    8.7462 H         1 <0>         0.1265
     61 H23        -2.1281   -4.8179    7.8040 H         1 <0>         0.1342
     62 H24        -1.6927   -5.8955    5.6356 H         1 <0>         0.1330
     63 H25         0.3746   -5.3974    4.3984 H         1 <0>         0.1341
     64 H26         2.0127   -3.8102    5.3206 H         1 <0>         0.1300
     65 H27        -1.6525    1.5936    6.8094 H         1 <0>         0.1348
     66 H28        -2.1643    0.2214    7.8210 H         1 <0>         0.1341
     67 H29        -0.9355    1.2169    9.7521 H         1 <0>         0.0905
     68 H30        -0.0976    3.5423    9.5539 H         1 <0>         0.0832
     69 H31         0.7618    2.4561    8.4360 H         1 <0>         0.0515
     70 H32        -0.5074    3.5423    7.8217 H         1 <0>         0.0751
     71 H33        -3.3393    1.7180    9.4062 H         1 <0>         0.0675
     72 H34        -2.4926    3.1113   10.1205 H         1 <0>         0.0775
     73 H35        -2.9024    3.1113    8.3883 H         1 <0>         0.0690
     74 H36         1.5959    0.8756    4.6768 H         1 <0>         0.3876
     75 H37         0.6286    0.9765    7.3318 H         1 <0>         0.4267
@<TRIPOS>BOND
     1    1    2 1
     2    1   40 1
     3    1   41 1
     4    1   42 1
     5    2    7 ar
     6    2    3 ar
     7    3    4 ar
     8    3   43 1
     9    4    5 ar
    10    4   44 1
    11    5    6 ar
    12    5   45 1
    13    6    7 ar
    14    6   46 1
    15    7    8 1
    16    8    9 1
    17    9   10 1
    18    9   47 1
    19    9   48 1
    20   10   11 1
    21   10   12 1
    22   10   39 1
    23   12   13 1
    24   12   49 1
    25   12   50 1
    26   13   14 1
    27   13   35 1
    28   13   75 1
    29   14   15 1
    30   14   51 1
    31   14   52 1
    32   15   19 2
    33   15   16 1
    34   16   17 2
    35   16   29 1
    36   17   18 1
    37   18   19 1
    38   18   28 1
    39   19   20 1
    40   20   21 1
    41   21   26 ar
    42   21   22 ar
    43   22   23 ar
    44   22   53 1
    45   23   24 ar
    46   23   54 1
    47   24   25 ar
    48   24   55 1
    49   25   26 ar
    50   25   56 1
    51   26   27 1
    52   28   57 1
    53   28   58 1
    54   28   59 1
    55   29   34 ar
    56   29   30 ar
    57   30   31 ar
    58   30   60 1
    59   31   32 ar
    60   31   61 1
    61   32   33 ar
    62   32   62 1
    63   33   34 ar
    64   33   63 1
    65   34   64 1
    66   35   36 1
    67   35   65 1
    68   35   66 1
    69   36   37 1
    70   36   38 1
    71   36   67 1
    72   37   68 1
    73   37   69 1
    74   37   70 1
    75   38   71 1
    76   38   72 1
    77   38   73 1
    78   39   74 1
@<TRIPOS>MOLECULE
ZINC38713699
   73    77     0     0     0
SMALL
USER_CHARGES

@<TRIPOS>ATOM
      1 C1          0.7052    1.5970   -2.2270 C.3       1 <0>        -0.1884
      2 C2          0.3558    0.1143   -2.3701 C.3       1 <0>        -0.0189
      3 N1          0.8654   -0.6234   -1.2065 N.4       1 <0>        -0.3847
      4 C3          0.1643   -0.1740    0.0037 C.3       1 <0>        -0.0156
      5 C4          0.8014   -0.8243    1.2334 C.3       1 <0>        -0.1894
      6 C5          0.6361   -2.0615   -1.3996 C.3       1 <0>        -0.0107
      7 C6          1.4681   -2.5560   -2.5846 C.3       1 <0>        -0.1877
      8 C7          1.3299   -4.0749   -2.7063 C.3       1 <0>         0.1499
      9 N2          2.1266   -4.5483   -3.8409 N.am      1 <0>        -0.5973
     10 C8          1.6596   -4.6793   -5.2309 C.3       1 <0>         0.2332
     11 H1          0.8289   -5.3831   -5.2838 H         1 <0>         0.1245
     12 C9          2.8258   -5.1997   -6.0048 C.2       1 <0>        -0.2388
     13 C10         2.9724   -5.5410   -7.4225 C.2       1 <0>         0.4520
     14 O1          2.1353   -5.2657   -8.2648 O.2       1 <0>        -0.4311
     15 C11         4.2357   -6.2523   -7.7359 C.ar      1 <0>        -0.2083
     16 C12         4.4235   -6.8246   -9.0065 C.ar      1 <0>        -0.0528
     17 C13         5.5679   -7.4844   -9.3070 C.ar      1 <0>        -0.1146
     18 C14         6.5903   -7.6039   -8.3417 C.ar      1 <0>        -0.0051
     19 C15         7.7796   -8.2896   -8.6362 C.ar      1 <0>        -0.1124
     20 C16         8.7541   -8.3901   -7.6889 C.ar      1 <0>        -0.0877
     21 C17         8.5889   -7.8228   -6.4287 C.ar      1 <0>        -0.1129
     22 C18         7.4463   -7.1520   -6.1085 C.ar      1 <0>        -0.0885
     23 C19         6.4227   -7.0303   -7.0600 C.ar      1 <0>        -0.0667
     24 C20         5.2235   -6.3417   -6.7517 C.ar      1 <0>         0.1633
     25 O2          5.0783   -5.7957   -5.5262 O.3       1 <0>        -0.1729
     26 C21         3.8699   -5.3475   -5.1352 C.2       1 <0>         0.0794
     27 C22         3.4179   -4.9350   -3.7960 C.2       1 <0>         0.5769
     28 O3          4.1071   -4.9445   -2.7954 O.2       1 <0>        -0.4796
     29 C23         1.2365   -3.3355   -5.7660 C.ar      1 <0>        -0.0964
     30 C24         1.9783   -2.2085   -5.4647 C.ar      1 <0>        -0.1068
     31 C25         1.5943   -0.9735   -5.9531 C.ar      1 <0>        -0.1872
     32 C26         0.4639   -0.8634   -6.7469 C.ar      1 <0>         0.1173
     33 C27        -0.2825   -1.9979   -7.0506 C.ar      1 <0>         0.1100
     34 C28         0.1107   -3.2334   -6.5618 C.ar      1 <0>        -0.1372
     35 O4         -1.3926   -1.8950   -7.8293 O.3       1 <0>        -0.3006
     36 C29        -2.1095   -3.1012   -8.0997 C.3       1 <0>         0.0223
     37 O5          0.0846    0.3508   -7.2279 O.3       1 <0>        -0.2988
     38 C30         0.8982    1.4713   -6.8751 C.3       1 <0>         0.0557
     39 C31         0.3184    2.7403   -7.5031 C.3       1 <0>        -0.1564
     40 H2          0.2498    1.9916   -1.3187 H         1 <0>         0.0822
     41 H3          1.7877    1.7113   -2.1699 H         1 <0>         0.0807
     42 H4          0.3271    2.1444   -3.0904 H         1 <0>         0.1057
     43 H5         -0.7267    0.0001   -2.4272 H         1 <0>         0.1308
     44 H6          0.8112   -0.2803   -3.2784 H         1 <0>         0.1295
     45 H7          0.2400    0.9103    0.0859 H         1 <0>         0.1332
     46 H8         -0.8854   -0.4614   -0.0566 H         1 <0>         0.1298
     47 H9          0.2475   -0.5338    2.1260 H         1 <0>         0.1068
     48 H10         0.7744   -1.9087    1.1259 H         1 <0>         0.0804
     49 H11         1.8361   -0.4939    1.3242 H         1 <0>         0.0810
     50 H12         0.9302   -2.6005   -0.4991 H         1 <0>         0.1367
     51 H13        -0.4210   -2.2373   -1.5993 H         1 <0>         0.1340
     52 H14         1.1121   -2.0842   -3.5005 H         1 <0>         0.1061
     53 H15         2.5152   -2.2979   -2.4262 H         1 <0>         0.0939
     54 H16         1.6858   -4.5466   -1.7904 H         1 <0>         0.1036
     55 H17         0.2828   -4.3329   -2.8647 H         1 <0>         0.1030
     56 H18         3.6463   -6.7373   -9.7514 H         1 <0>         0.1460
     57 H19         5.6979   -7.9200  -10.2867 H         1 <0>         0.1451
     58 H20         7.9214   -8.7359   -9.6094 H         1 <0>         0.1405
     59 H21         9.6678   -8.9178   -7.9193 H         1 <0>         0.1345
     60 H22         9.3759   -7.9157   -5.6950 H         1 <0>         0.1341
     61 H23         7.3295   -6.7167   -5.1270 H         1 <0>         0.1367
     62 H24         2.8595   -2.2929   -4.8460 H         1 <0>         0.1210
     63 H25         2.1751   -0.0945   -5.7156 H         1 <0>         0.1369
     64 H26        -0.4647   -4.1161   -6.7990 H         1 <0>         0.1431
     65 H27        -2.4495   -3.5399   -7.1616 H         1 <0>         0.0557
     66 H28        -2.9706   -2.8786   -8.7298 H         1 <0>         0.1067
     67 H29        -1.4553   -3.8052   -8.6140 H         1 <0>         0.0623
     68 H30         0.9178    1.5790   -5.7906 H         1 <0>         0.0553
     69 H31         1.9121    1.3143   -7.2430 H         1 <0>         0.0640
     70 H32        -0.6955    2.8973   -7.1352 H         1 <0>         0.0680
     71 H33         0.9390    3.5951   -7.2340 H         1 <0>         0.0814
     72 H34         0.2988    2.6327   -8.5876 H         1 <0>         0.0716
     73 H35         1.8544   -0.4511   -1.1058 H         1 <0>         0.4227
@<TRIPOS>BOND
     1    1    2 1
     2    1   40 1
     3    1   41 1
     4    1   42 1
     5    2    3 1
     6    2   43 1
     7    2   44 1
     8    3    4 1
     9    3    6 1
    10    3   73 1
    11    4    5 1
    12    4   45 1
    13    4   46 1
    14    5   47 1
    15    5   48 1
    16    5   49 1
    17    6    7 1
    18    6   50 1
    19    6   51 1
    20    7    8 1
    21    7   52 1
    22    7   53 1
    23    8    9 1
    24    8   54 1
    25    8   55 1
    26    9   27 am
    27    9   10 1
    28   10   11 1
    29   10   12 1
    30   10   29 1
    31   12   26 2
    32   12   13 1
    33   13   14 2
    34   13   15 1
    35   15   24 ar
    36   15   16 ar
    37   16   17 ar
    38   16   56 1
    39   17   18 ar
    40   17   57 1
    41   18   23 ar
    42   18   19 ar
    43   19   20 ar
    44   19   58 1
    45   20   21 ar
    46   20   59 1
    47   21   22 ar
    48   21   60 1
    49   22   23 ar
    50   22   61 1
    51   23   24 ar
    52   24   25 1
    53   25   26 1
    54   26   27 1
    55   27   28 2
    56   29   34 ar
    57   29   30 ar
    58   30   31 ar
    59   30   62 1
    60   31   32 ar
    61   31   63 1
    62   32   33 ar
    63   32   37 1
    64   33   34 ar
    65   33   35 1
    66   34   64 1
    67   35   36 1
    68   36   65 1
    69   36   66 1
    70   36   67 1
    71   37   38 1
    72   38   39 1
    73   38   68 1
    74   38   69 1
    75   39   70 1
    76   39   71 1
    77   39   72 1
@<TRIPOS>MOLECULE
ZINC40014180
   81    84     0     0     0
SMALL
USER_CHARGES

@<TRIPOS>ATOM
      1 C1          1.0454    1.8503   -4.5491 C.3       1 <0>        -0.1590
      2 C2          0.7386    0.3579   -4.6881 C.3       1 <0>        -0.1206
      3 C3          1.3145   -0.3952   -3.4873 C.3       1 <0>        -0.1494
      4 C4          1.0077   -1.8877   -3.6263 C.3       1 <0>        -0.0156
      5 N1          1.5607   -2.6108   -2.4734 N.4       1 <0>        -0.3849
      6 C5          0.8686   -2.1841   -1.2499 C.3       1 <0>        -0.0153
      7 C6          1.5504   -2.8123   -0.0328 C.3       1 <0>        -0.1500
      8 C7          0.8010   -2.4060    1.2378 C.3       1 <0>        -0.1205
      9 C8          1.4828   -3.0342    2.4549 C.3       1 <0>        -0.1592
     10 C9          1.3717   -4.0550   -2.6646 C.3       1 <0>        -0.0108
     11 C10         2.1997   -4.5235   -3.8627 C.3       1 <0>        -0.1739
     12 C11         2.0891   -6.0437   -3.9960 C.3       1 <0>         0.1457
     13 N2          2.8821   -6.4923   -5.1433 N.am      1 <0>        -0.5978
     14 C12         2.4024   -6.6205   -6.5291 C.3       1 <0>         0.2399
     15 H1          2.0745   -5.6512   -6.9047 H         1 <0>         0.1202
     16 C13         3.5699   -7.1115   -7.3204 C.2       1 <0>        -0.2436
     17 C14         3.7046   -7.4352   -8.7444 C.2       1 <0>         0.4573
     18 O1          2.8508   -7.1707   -9.5724 O.2       1 <0>        -0.4235
     19 C15         4.9807   -8.1155   -9.0812 C.ar      1 <0>        -0.1857
     20 C16         5.1743   -8.6643  -10.3488 C.ar      1 <0>        -0.0686
     21 C17         6.3638   -9.2971  -10.6425 C.ar      1 <0>         0.0871
     22 C18         7.3612   -9.3859   -9.6782 C.ar      1 <0>        -0.0848
     23 C19         7.1801   -8.8460   -8.4254 C.ar      1 <0>        -0.1010
     24 C20         5.9870   -8.1986   -8.1051 C.ar      1 <0>         0.1284
     25 O2          5.8401   -7.6682   -6.8691 O.3       1 <0>        -0.1771
     26 C21         4.6259   -7.2468   -6.4645 C.2       1 <0>         0.0869
     27 C22         4.1809   -6.8546   -5.1158 C.2       1 <0>         0.5751
     28 O3          4.8811   -6.8597   -4.1230 O.2       1 <0>        -0.4793
     29 F1          6.5598   -9.8313  -11.8679 F         1 <0>        -0.1232
     30 C23         1.2711   -7.6137   -6.5978 C.ar      1 <0>        -0.1537
     31 C24         1.3216   -8.7707   -5.8424 C.ar      1 <0>        -0.0584
     32 C25         0.2861   -9.6830   -5.9040 C.ar      1 <0>        -0.1514
     33 C26        -0.8054   -9.4373   -6.7243 C.ar      1 <0>         0.1510
     34 C27        -0.8539   -8.2754   -7.4809 C.ar      1 <0>        -0.2072
     35 C28         0.1818   -7.3638   -7.4119 C.ar      1 <0>        -0.0460
     36 O4         -1.8252  -10.3334   -6.7870 O.3       1 <0>        -0.3114
     37 C29        -2.9165  -10.0148   -7.6528 C.3       1 <0>         0.0576
     38 C30        -3.9595  -11.1325   -7.5911 C.3       1 <0>        -0.1212
     39 C31        -5.1280  -10.7914   -8.5181 C.3       1 <0>        -0.1212
     40 C32        -6.1709  -11.9091   -8.4564 C.3       1 <0>        -0.1542
     41 H2          0.5949    2.2300   -3.6320 H         1 <0>         0.0591
     42 H3          2.1248    1.9974   -4.5116 H         1 <0>         0.0593
     43 H4          0.6351    2.3869   -5.4046 H         1 <0>         0.0671
     44 H5         -0.3408    0.2108   -4.7256 H         1 <0>         0.0731
     45 H6          1.1890   -0.0218   -5.6052 H         1 <0>         0.0729
     46 H7          2.3939   -0.2482   -3.4498 H         1 <0>         0.0864
     47 H8          0.8641   -0.0156   -2.5702 H         1 <0>         0.0870
     48 H9         -0.0717   -2.0348   -3.6638 H         1 <0>         0.1311
     49 H10         1.4582   -2.2673   -4.5434 H         1 <0>         0.1314
     50 H11         0.9099   -1.0979   -1.1691 H         1 <0>         0.1337
     51 H12        -0.1720   -2.5061   -1.2900 H         1 <0>         0.1308
     52 H13         1.5388   -3.8979   -0.1299 H         1 <0>         0.0867
     53 H14         2.5814   -2.4637    0.0263 H         1 <0>         0.0872
     54 H15         0.8126   -1.3204    1.3349 H         1 <0>         0.0730
     55 H16        -0.2300   -2.7545    1.1787 H         1 <0>         0.0729
     56 H17         0.9490   -2.7447    3.3601 H         1 <0>         0.0669
     57 H18         1.4713   -4.1198    2.3578 H         1 <0>         0.0593
     58 H19         2.5139   -2.6856    2.5140 H         1 <0>         0.0595
     59 H20         1.6957   -4.5855   -1.7692 H         1 <0>         0.1373
     60 H21         0.3174   -4.2623   -2.8481 H         1 <0>         0.1351
     61 H22         1.8248   -4.0510   -4.7706 H         1 <0>         0.0947
     62 H23         3.2434   -4.2468   -3.7136 H         1 <0>         0.0949
     63 H24         2.4641   -6.5162   -3.0881 H         1 <0>         0.1033
     64 H25         1.0455   -6.3203   -4.1452 H         1 <0>         0.1046
     65 H26         4.3972   -8.5945  -11.0955 H         1 <0>         0.1598
     66 H27         8.2893   -9.8849   -9.9150 H         1 <0>         0.1607
     67 H28         7.9649   -8.9238   -7.6875 H         1 <0>         0.1606
     68 H29         2.1716   -8.9615   -5.2040 H         1 <0>         0.1228
     69 H30         0.3264  -10.5869   -5.3143 H         1 <0>         0.1356
     70 H31        -1.7025   -8.0819   -8.1203 H         1 <0>         0.1340
     71 H32         0.1424   -6.4571   -7.9973 H         1 <0>         0.1304
     72 H33        -3.3705   -9.0763   -7.3348 H         1 <0>         0.0639
     73 H34        -2.5519   -9.9141   -8.6750 H         1 <0>         0.0657
     74 H35        -3.5055  -12.0711   -7.9091 H         1 <0>         0.0762
     75 H36        -4.3241  -11.2332   -6.5689 H         1 <0>         0.0750
     76 H37        -5.5820   -9.8529   -8.2001 H         1 <0>         0.0645
     77 H38        -4.7633  -10.6907   -9.5403 H         1 <0>         0.0659
     78 H39        -5.7169  -12.8477   -8.7744 H         1 <0>         0.0575
     79 H40        -6.5356  -12.0099   -7.4341 H         1 <0>         0.0566
     80 H41        -7.0034  -11.6661   -9.1168 H         1 <0>         0.0596
     81 H42         2.5457   -2.4086   -2.3905 H         1 <0>         0.4235
@<TRIPOS>BOND
     1    1    2 1
     2    1   41 1
     3    1   42 1
     4    1   43 1
     5    2    3 1
     6    2   44 1
     7    2   45 1
     8    3    4 1
     9    3   46 1
    10    3   47 1
    11    4    5 1
    12    4   48 1
    13    4   49 1
    14    5    6 1
    15    5   10 1
    16    5   81 1
    17    6    7 1
    18    6   50 1
    19    6   51 1
    20    7    8 1
    21    7   52 1
    22    7   53 1
    23    8    9 1
    24    8   54 1
    25    8   55 1
    26    9   56 1
    27    9   57 1
    28    9   58 1
    29   10   11 1
    30   10   59 1
    31   10   60 1
    32   11   12 1
    33   11   61 1
    34   11   62 1
    35   12   13 1
    36   12   63 1
    37   12   64 1
    38   13   27 am
    39   13   14 1
    40   14   15 1
    41   14   16 1
    42   14   30 1
    43   16   26 2
    44   16   17 1
    45   17   18 2
    46   17   19 1
    47   19   24 ar
    48   19   20 ar
    49   20   21 ar
    50   20   65 1
    51   21   22 ar
    52   21   29 1
    53   22   23 ar
    54   22   66 1
    55   23   24 ar
    56   23   67 1
    57   24   25 1
    58   25   26 1
    59   26   27 1
    60   27   28 2
    61   30   35 ar
    62   30   31 ar
    63   31   32 ar
    64   31   68 1
    65   32   33 ar
    66   32   69 1
    67   33   34 ar
    68   33   36 1
    69   34   35 ar
    70   34   70 1
    71   35   71 1
    72   36   37 1
    73   37   38 1
    74   37   72 1
    75   37   73 1
    76   38   39 1
    77   38   74 1
    78   38   75 1
    79   39   40 1
    80   39   76 1
    81   39   77 1
    82   40   78 1
    83   40   79 1
    84   40   80 1
@<TRIPOS>MOLECULE
ZINC01867836
   74    78     0     0     0
SMALL
USER_CHARGES

@<TRIPOS>ATOM
      1 C1          0.1636    0.2259   -5.1972 C.3       1 <0>         0.0235
      2 O1         -0.9367    1.1309   -5.0857 O.3       1 <0>        -0.3025
      3 C2         -2.1692    0.5851   -4.9050 C.ar      1 <0>         0.1135
      4 C3         -2.3151   -0.7909   -4.8309 C.ar      1 <0>        -0.1711
      5 C4         -3.5686   -1.3440   -4.6468 C.ar      1 <0>        -0.1047
      6 C5         -4.6786   -0.5273   -4.5366 C.ar      1 <0>        -0.1024
      7 C6         -4.5400    0.8462   -4.6101 C.ar      1 <0>        -0.1658
      8 C7         -3.2857    1.4074   -4.7884 C.ar      1 <0>         0.1055
      9 O2         -3.1468    2.7586   -4.8549 O.3       1 <0>        -0.3017
     10 C8         -4.3364    3.5401   -4.7273 C.3       1 <0>         0.0253
     11 C9         -6.0428   -1.1356   -4.3365 C.3       1 <0>        -0.0878
     12 C10        -6.3203   -1.2840   -2.8392 C.3       1 <0>         0.0631
     13 N1         -7.6884   -1.7693   -2.6419 N.pl3     1 <0>        -0.5681
     14 C11        -7.8934   -2.9485   -2.1283 C.2       1 <0>         0.3581
     15 C12        -9.2039   -3.4643   -2.0468 C.2       1 <0>        -0.3228
     16 C13        -9.4157   -4.6389   -1.4087 C.2       1 <0>         0.3527
     17 O3        -10.6439   -5.1787   -1.3001 O.3       1 <0>        -0.2023
     18 C14       -11.7411   -4.4011   -1.4709 C.ar      1 <0>         0.0774
     19 C15       -12.9671   -4.8340   -0.9792 C.ar      1 <0>        -0.1038
     20 C16       -14.0934   -4.0534   -1.1442 C.ar      1 <0>        -0.0811
     21 C17       -14.0036   -2.8391   -1.8000 C.ar      1 <0>        -0.1098
     22 C18       -12.7866   -2.4061   -2.2907 C.ar      1 <0>        -0.0781
     23 C19       -11.6546   -3.1844   -2.1283 C.ar      1 <0>        -0.1233
     24 C20       -10.3375   -2.6953   -2.6649 C.3       1 <0>         0.0537
     25 H1        -10.2226   -1.6359   -2.4353 H         1 <0>         0.0986
     26 C21       -10.3124   -2.8844   -4.1597 C.ar      1 <0>        -0.1016
     27 C22       -10.4390   -4.1512   -4.6984 C.ar      1 <0>        -0.0995
     28 C23       -10.4160   -4.3247   -6.0696 C.ar      1 <0>        -0.1082
     29 C24       -10.2669   -3.2313   -6.9022 C.ar      1 <0>        -0.1055
     30 C25       -10.1412   -1.9644   -6.3636 C.ar      1 <0>        -0.1083
     31 C26       -10.1685   -1.7905   -4.9925 C.ar      1 <0>        -0.1217
     32 C27        -8.2672   -5.3483   -0.8156 C.ar      1 <0>        -0.1306
     33 C28        -7.4258   -4.6891    0.0851 C.ar      1 <0>        -0.0831
     34 C29        -6.3528   -5.3540    0.6383 C.ar      1 <0>        -0.1765
     35 C30        -6.1045   -6.6778    0.3030 C.ar      1 <0>         0.1524
     36 C31        -6.9393   -7.3414   -0.5944 C.ar      1 <0>         0.1107
     37 C32        -8.0205   -6.6834   -1.1483 C.ar      1 <0>        -0.1218
     38 O4         -6.6928   -8.6385   -0.9205 O.3       1 <0>        -0.2940
     39 C33        -7.5890   -9.2562   -1.8465 C.3       1 <0>         0.0194
     40 O5         -5.0448   -7.3282    0.8507 O.3       1 <0>        -0.2908
     41 C34        -4.2302   -6.5885    1.7623 C.3       1 <0>         0.0181
     42 H2          1.0854    0.7903   -5.3379 H         1 <0>         0.1066
     43 H3          0.2376   -0.3699   -4.2875 H         1 <0>         0.0575
     44 H4          0.0070   -0.4329   -6.0513 H         1 <0>         0.0582
     45 H5         -1.4497   -1.4311   -4.9174 H         1 <0>         0.1407
     46 H6         -3.6810   -2.4166   -4.5892 H         1 <0>         0.1279
     47 H7         -5.4088    1.4820   -4.5242 H         1 <0>         0.1361
     48 H8         -4.8003    3.3405   -3.7614 H         1 <0>         0.0542
     49 H9         -4.0851    4.5984   -4.7980 H         1 <0>         0.1060
     50 H10        -5.0310    3.2774   -5.5252 H         1 <0>         0.0559
     51 H11        -6.7980   -0.4893   -4.7837 H         1 <0>         0.0883
     52 H12        -6.0765   -2.1162   -4.8112 H         1 <0>         0.0899
     53 H13        -5.6165   -1.9960   -2.4081 H         1 <0>         0.1179
     54 H14        -6.2039   -0.3167   -2.3505 H         1 <0>         0.1207
     55 H15        -7.0601   -3.5315   -1.7648 H         1 <0>         0.1987
     56 H16       -13.0385   -5.7824   -0.4676 H         1 <0>         0.1457
     57 H17       -15.0452   -4.3911   -0.7615 H         1 <0>         0.1464
     58 H18       -14.8854   -2.2290   -1.9291 H         1 <0>         0.1404
     59 H19       -12.7190   -1.4576   -2.8026 H         1 <0>         0.1364
     60 H20       -10.5555   -5.0054   -4.0479 H         1 <0>         0.1139
     61 H21       -10.5142   -5.3145   -6.4904 H         1 <0>         0.1284
     62 H22       -10.2482   -3.3669   -7.9735 H         1 <0>         0.1296
     63 H23       -10.0244   -1.1102   -7.0141 H         1 <0>         0.1295
     64 H24       -10.0741   -0.8003   -4.5718 H         1 <0>         0.1205
     65 H25        -7.6162   -3.6589    0.3472 H         1 <0>         0.1390
     66 H26        -5.7034   -4.8436    1.3342 H         1 <0>         0.1559
     67 H27        -8.6708   -7.1978   -1.8404 H         1 <0>         0.1516
     68 H28        -8.5993   -9.2439   -1.4376 H         1 <0>         0.0615
     69 H29        -7.5718   -8.7089   -2.7889 H         1 <0>         0.0593
     70 H30        -7.2795  -10.2870   -2.0192 H         1 <0>         0.1124
     71 H31        -3.4219   -7.2236    2.1250 H         1 <0>         0.1129
     72 H32        -3.8101   -5.7213    1.2528 H         1 <0>         0.0626
     73 H33        -4.8370   -6.2563    2.6046 H         1 <0>         0.0641
     74 H34        -8.4416   -1.2124   -2.8938 H         1 <0>         0.4260
@<TRIPOS>BOND
     1    1    2 1
     2    1   42 1
     3    1   43 1
     4    1   44 1
     5    2    3 1
     6    3    8 ar
     7    3    4 ar
     8    4    5 ar
     9    4   45 1
    10    5    6 ar
    11    5   46 1
    12    6    7 ar
    13    6   11 1
    14    7    8 ar
    15    7   47 1
    16    8    9 1
    17    9   10 1
    18   10   48 1
    19   10   49 1
    20   10   50 1
    21   11   12 1
    22   11   51 1
    23   11   52 1
    24   12   13 1
    25   12   53 1
    26   12   54 1
    27   13   14 2
    28   13   74 1
    29   14   15 1
    30   14   55 1
    31   15   24 1
    32   15   16 2
    33   16   17 1
    34   16   32 1
    35   17   18 1
    36   18   23 ar
    37   18   19 ar
    38   19   20 ar
    39   19   56 1
    40   20   21 ar
    41   20   57 1
    42   21   22 ar
    43   21   58 1
    44   22   23 ar
    45   22   59 1
    46   23   24 1
    47   24   25 1
    48   24   26 1
    49   26   31 ar
    50   26   27 ar
    51   27   28 ar
    52   27   60 1
    53   28   29 ar
    54   28   61 1
    55   29   30 ar
    56   29   62 1
    57   30   31 ar
    58   30   63 1
    59   31   64 1
    60   32   37 ar
    61   32   33 ar
    62   33   34 ar
    63   33   65 1
    64   34   35 ar
    65   34   66 1
    66   35   36 ar
    67   35   40 1
    68   36   37 ar
    69   36   38 1
    70   37   67 1
    71   38   39 1
    72   39   68 1
    73   39   69 1
    74   39   70 1
    75   40   41 1
    76   41   71 1
    77   41   72 1
    78   41   73 1
@<TRIPOS>MOLECULE
ZINC11684049
   60    62     0     0     0
SMALL
USER_CHARGES
(2-ethyl-6-methyl-phenyl)carbamoylmethyl 2-[(3-cyanophenyl)carbamoylmethylsulfanyl]benzoate
@<TRIPOS>ATOM
      1 C1         12.7579   10.0371    0.2606 C.3       1 <0>        -0.1472
      2 C2         12.2800   10.5888    1.6054 C.3       1 <0>        -0.0865
      3 C3         11.8677   12.0287    1.4396 C.ar      1 <0>        -0.0831
      4 C4         12.7651   13.0413    1.7177 C.ar      1 <0>        -0.1148
      5 C5         12.3873   14.3627    1.5668 C.ar      1 <0>        -0.1117
      6 C6         11.1103   14.6752    1.1372 C.ar      1 <0>        -0.1160
      7 C7         10.2106   13.6674    0.8512 C.ar      1 <0>        -0.0653
      8 C8         10.5850   12.3391    1.0077 C.ar      1 <0>         0.1326
      9 N1          9.6735   11.3157    0.7253 N.am      1 <0>        -0.6719
     10 C9          8.4858   11.2767    1.3611 C.2       1 <0>         0.5147
     11 O1          8.1628   12.1837    2.0988 O.2       1 <0>        -0.4918
     12 C10         7.5592   10.1062    1.1555 C.3       1 <0>         0.0510
     13 O2          6.3545   10.2984    1.9431 O.3       1 <0>        -0.3247
     14 C11         5.4159    9.3339    1.8709 C.2       1 <0>         0.5057
     15 O3          5.5993    8.3589    1.1689 O.2       1 <0>        -0.4782
     16 C12         4.1684    9.4615    2.6425 C.ar      1 <0>        -0.1211
     17 C13         3.9525   10.5814    3.4511 C.ar      1 <0>        -0.0345
     18 C14         2.7833   10.6947    4.1698 C.ar      1 <0>        -0.1415
     19 C15         1.8162    9.7036    4.0965 C.ar      1 <0>        -0.0560
     20 C16         2.0107    8.5950    3.2998 C.ar      1 <0>        -0.1537
     21 C17         3.1869    8.4589    2.5707 C.ar      1 <0>        -0.0574
     22 S1          3.4417    7.0404    1.5569 S.3       1 <0>         0.0870
     23 C18         1.8965    6.1505    1.8673 C.3       1 <0>        -0.2096
     24 C19         1.8902    4.8653    1.0804 C.2       1 <0>         0.5349
     25 O4          2.8373    4.5791    0.3788 O.2       1 <0>        -0.4949
     26 N2          0.8322    4.0338    1.1563 N.am      1 <0>        -0.6695
     27 C20         0.8576    2.8060    0.4851 C.ar      1 <0>         0.1447
     28 C21        -0.3124    2.2850   -0.0551 C.ar      1 <0>        -0.1133
     29 C22        -0.2929    1.0731   -0.7194 C.ar      1 <0>        -0.0980
     30 C23         0.8883    0.3715   -0.8504 C.ar      1 <0>        -0.0831
     31 C24         2.0681    0.8833   -0.3063 C.ar      1 <0>        -0.0057
     32 C25         2.0492    2.1099    0.3588 C.ar      1 <0>        -0.0744
     33 C26         3.2941    0.1547   -0.4355 C.1       1 <0>         0.2512
     34 N3          4.2667   -0.4232   -0.5380 N.1       1 <0>        -0.4067
     35 C27         8.8216   14.0086    0.3763 C.3       1 <0>        -0.1077
     36 H1         13.6091   10.6208   -0.0897 H         1 <0>         0.0595
     37 H2         13.0561    8.9956    0.3805 H         1 <0>         0.0618
     38 H3         11.9488   10.1019   -0.4669 H         1 <0>         0.0511
     39 H4         13.0891   10.5239    2.3329 H         1 <0>         0.0764
     40 H5         11.4287   10.0051    1.9557 H         1 <0>         0.0704
     41 H6         13.7629   12.8006    2.0537 H         1 <0>         0.1263
     42 H7         13.0907   15.1526    1.7852 H         1 <0>         0.1256
     43 H8         10.8182   15.7083    1.0203 H         1 <0>         0.1263
     44 H9          9.8965   10.6344    0.0719 H         1 <0>         0.4100
     45 H10         8.0568    9.1891    1.4707 H         1 <0>         0.1076
     46 H11         7.2956   10.0324    0.1005 H         1 <0>         0.1065
     47 H12         4.7016   11.3570    3.5118 H         1 <0>         0.1464
     48 H13         2.6184   11.5606    4.7939 H         1 <0>         0.1363
     49 H14         0.9025    9.8028    4.6637 H         1 <0>         0.1347
     50 H15         1.2504    7.8299    3.2450 H         1 <0>         0.1346
     51 H16         1.0531    6.7688    1.5600 H         1 <0>         0.1227
     52 H17         1.8139    5.9258    2.9307 H         1 <0>         0.1233
     53 H18         0.0532    4.2864    1.6761 H         1 <0>         0.4164
     54 H19        -1.2400    2.8290    0.0448 H         1 <0>         0.1357
     55 H20        -1.2053    0.6736   -1.1370 H         1 <0>         0.1409
     56 H21         0.8993   -0.5753   -1.3699 H         1 <0>         0.1367
     57 H22         2.9593    2.5131    0.7779 H         1 <0>         0.1450
     58 H23         8.1946   14.2538    1.2335 H         1 <0>         0.0846
     59 H24         8.8679   14.8647   -0.2968 H         1 <0>         0.0627
     60 H25         8.3979   13.1541   -0.1512 H         1 <0>         0.0553
@<TRIPOS>BOND
     1    1    2 1
     2    1   36 1
     3    1   37 1
     4    1   38 1
     5    2    3 1
     6    2   39 1
     7    2   40 1
     8    3    8 ar
     9    3    4 ar
    10    4    5 ar
    11    4   41 1
    12    5    6 ar
    13    5   42 1
    14    6    7 ar
    15    6   43 1
    16    7    8 ar
    17    7   35 1
    18    8    9 1
    19    9   10 am
    20    9   44 1
    21   10   11 2
    22   10   12 1
    23   12   13 1
    24   12   45 1
    25   12   46 1
    26   13   14 1
    27   14   15 2
    28   14   16 1
    29   16   21 ar
    30   16   17 ar
    31   17   18 ar
    32   17   47 1
    33   18   19 ar
    34   18   48 1
    35   19   20 ar
    36   19   49 1
    37   20   21 ar
    38   20   50 1
    39   21   22 1
    40   22   23 1
    41   23   24 1
    42   23   51 1
    43   23   52 1
    44   24   25 2
    45   24   26 am
    46   26   27 1
    47   26   53 1
    48   27   32 ar
    49   27   28 ar
    50   28   29 ar
    51   28   54 1
    52   29   30 ar
    53   29   55 1
    54   30   31 ar
    55   30   56 1
    56   31   32 ar
    57   31   33 1
    58   32   57 1
    59   33   34 3
    60   35   58 1
    61   35   59 1
    62   35   60 1
@<TRIPOS>MOLECULE
ZINC14041389
   56    57     0     0     0
SMALL
USER_CHARGES
ethyl 2-[(2R)-1-[(3-bromo-4-butoxy-benzoyl)carbamothioyl]-3-oxo-piperazin-2-yl]acetate
@<TRIPOS>ATOM
      1 C1         -3.8889   -7.0744   11.6419 C.3       1 <0>        -0.1533
      2 C2         -3.7738   -6.0481   10.5130 C.3       1 <0>        -0.1211
      3 C3         -3.1203   -6.7020    9.2939 C.3       1 <0>        -0.1203
      4 C4         -3.0052   -5.6757    8.1651 C.3       1 <0>         0.0535
      5 O1         -2.3948   -6.2864    7.0265 O.3       1 <0>        -0.2939
      6 C5         -2.2177   -5.5066    5.9298 C.ar      1 <0>         0.1903
      7 C6         -2.6244   -4.1777    5.9514 C.ar      1 <0>        -0.2107
      8 C7         -2.4418   -3.3816    4.8429 C.ar      1 <0>        -0.0277
      9 C8         -1.8567   -3.9143    3.6905 C.ar      1 <0>        -0.1673
     10 C9         -1.4486   -5.2508    3.6725 C.ar      1 <0>         0.0143
     11 C10        -1.6295   -6.0393    4.7878 C.ar      1 <0>        -0.1360
     12 Br1        -1.0780   -7.8479    4.7654 Br        1 <0>        -0.0197
     13 C11        -1.6650   -3.0663    2.4987 C.2       1 <0>         0.5454
     14 O2         -1.1515   -3.5298    1.4992 O.2       1 <0>        -0.4073
     15 N1         -2.0592   -1.7776    2.5181 N.am      1 <0>        -0.6111
     16 C12        -1.8841   -1.0029    1.4293 C.2       1 <0>         0.5510
     17 S1         -1.0413   -1.6143    0.0703 S.2       1 <0>        -0.5152
     18 N2         -2.3724    0.2531    1.4103 N.pl3     1 <0>        -0.5728
     19 C13        -2.2392    1.1092    0.2194 C.3       1 <0>         0.0833
     20 C14        -1.4130    2.3378    0.6045 C.3       1 <0>         0.0931
     21 N3         -1.8878    2.9074    1.8581 N.am      1 <0>        -0.7086
     22 C15        -2.5894    2.2400    2.7753 C.2       1 <0>         0.5235
     23 O3         -2.8612    2.8000    3.8161 O.2       1 <0>        -0.5279
     24 C16        -3.0596    0.8246    2.5780 C.3       1 <0>         0.1272
     25 H1         -2.8268    0.2356    3.4651 H         1 <0>         0.1225
     26 C17        -4.5707    0.8153    2.3387 C.3       1 <0>        -0.1258
     27 C18        -5.0648   -0.6079    2.3024 C.2       1 <0>         0.4699
     28 O4         -4.2773   -1.5225    2.3613 O.2       1 <0>        -0.5113
     29 O5         -6.3800   -0.8596    2.2102 O.3       1 <0>        -0.3488
     30 C19        -6.7843   -2.2540    2.1865 C.3       1 <0>         0.0642
     31 C20        -8.3080   -2.3415    2.0789 C.3       1 <0>        -0.1546
     32 H2         -4.4994   -7.9138   11.3089 H         1 <0>         0.0568
     33 H3         -2.8950   -7.4321   11.9106 H         1 <0>         0.0569
     34 H4         -4.3545   -6.6086   12.5104 H         1 <0>         0.0583
     35 H5         -3.1634   -5.2087   10.8460 H         1 <0>         0.0653
     36 H6         -4.7678   -5.6905   10.2444 H         1 <0>         0.0650
     37 H7         -3.7307   -7.5414    8.9610 H         1 <0>         0.0769
     38 H8         -2.1263   -7.0596    9.5626 H         1 <0>         0.0772
     39 H9         -2.3947   -4.8363    8.4981 H         1 <0>         0.0682
     40 H10        -3.9992   -5.3181    7.8964 H         1 <0>         0.0676
     41 H11        -3.0801   -3.7676    6.8405 H         1 <0>         0.1444
     42 H12        -2.7544   -2.3480    4.8621 H         1 <0>         0.1271
     43 H13        -0.9917   -5.6649    2.7858 H         1 <0>         0.1569
     44 H14        -2.4690   -1.4077    3.3157 H         1 <0>         0.4056
     45 H15        -3.2263    1.4217   -0.1212 H         1 <0>         0.0915
     46 H16        -1.7332    0.5598   -0.5745 H         1 <0>         0.1491
     47 H17        -1.4947    3.0865   -0.1835 H         1 <0>         0.1051
     48 H18        -0.3685    2.0466    0.7156 H         1 <0>         0.0834
     49 H19        -1.6788    3.8372    2.0387 H         1 <0>         0.4103
     50 H20        -4.7910    1.3007    1.3879 H         1 <0>         0.1248
     51 H21        -5.0696    1.3527    3.1451 H         1 <0>         0.1376
     52 H22        -6.3304   -2.7493    1.3281 H         1 <0>         0.0737
     53 H23        -6.4561   -2.7431    3.1036 H         1 <0>         0.0729
     54 H24        -8.7618   -1.8462    2.9373 H         1 <0>         0.0683
     55 H25        -8.6362   -1.8524    1.1618 H         1 <0>         0.0685
     56 H26        -8.6114   -3.3883    2.0611 H         1 <0>         0.0837
@<TRIPOS>BOND
     1    1    2 1
     2    1   32 1
     3    1   33 1
     4    1   34 1
     5    2    3 1
     6    2   35 1
     7    2   36 1
     8    3    4 1
     9    3   37 1
    10    3   38 1
    11    4    5 1
    12    4   39 1
    13    4   40 1
    14    5    6 1
    15    6   11 ar
    16    6    7 ar
    17    7    8 ar
    18    7   41 1
    19    8    9 ar
    20    8   42 1
    21    9   10 ar
    22    9   13 1
    23   10   11 ar
    24   10   43 1
    25   11   12 1
    26   13   14 2
    27   13   15 am
    28   15   16 1
    29   15   44 1
    30   16   17 2
    31   16   18 1
    32   18   24 1
    33   18   19 1
    34   19   20 1
    35   19   45 1
    36   19   46 1
    37   20   21 1
    38   20   47 1
    39   20   48 1
    40   21   22 am
    41   21   49 1
    42   22   23 2
    43   22   24 1
    44   24   25 1
    45   24   26 1
    46   26   27 1
    47   26   50 1
    48   26   51 1
    49   27   28 2
    50   27   29 1
    51   29   30 1
    52   30   31 1
    53   30   52 1
    54   30   53 1
    55   31   54 1
    56   31   55 1
    57   31   56 1
@<TRIPOS>MOLECULE
ZINC19316330
   50    51     0     0     0
SMALL
USER_CHARGES
[2-(methyl-(3-thienylmethyl)amino)-2-oxo-ethyl] (2S,3S)-2-[(3,4-dichlorophenyl)sulfonylamino]-3-hydroxy-butanoate
@<TRIPOS>ATOM
      1 C1         -0.9545   11.1090   -5.1248 C.3       1 <0>        -0.1484
      2 C2         -1.5045    9.7499   -4.6877 C.3       1 <0>         0.1233
      3 H1         -2.6044    9.7495   -4.6771 H         1 <0>         0.0652
      4 C3         -0.9580    8.6581   -5.6099 C.3       1 <0>         0.1382
      5 H2          0.1346    8.5721   -5.5163 H         1 <0>         0.1357
      6 C4         -1.6050    7.3409   -5.2672 C.2       1 <0>         0.4448
      7 O1         -2.2490    6.7492   -6.1009 O.2       1 <0>        -0.4846
      8 O2         -1.4658    6.8250   -4.0359 O.3       1 <0>        -0.3328
      9 C5         -2.1163    5.5530   -3.7767 C.3       1 <0>         0.0461
     10 C6         -1.8517    5.1342   -2.3535 C.2       1 <0>         0.5181
     11 O3         -1.1809    5.8384   -1.6289 O.2       1 <0>        -0.5097
     12 N1         -2.3604    3.9771   -1.8858 N.am      1 <0>        -0.6054
     13 C7         -3.1706    3.1264   -2.7610 C.3       1 <0>         0.0679
     14 C8         -2.1031    3.5700   -0.5022 C.3       1 <0>         0.1717
     15 C9         -0.8428    2.7456   -0.4472 C.2       1 <0>        -0.1568
     16 C10        -0.8955    1.3727   -0.5992 C.2       1 <0>        -0.1479
     17 C11         0.2560    0.6601   -0.5396 C.2       1 <0>        -0.1752
     18 S1          1.4701    1.9419   -0.2745 S.3       1 <0>         0.0367
     19 C12         0.3600    3.3398   -0.2537 C.2       1 <0>        -0.1383
     20 N2         -1.2561    9.0009   -7.0026 N.pl3     1 <0>        -1.0966
     21 S2         -0.0362    9.0553   -8.1213 S.o2      1 <0>         2.6920
     22 O4         -0.6392    9.3896   -9.3638 O.2       1 <0>        -0.9383
     23 O5          1.0067    9.8313   -7.5474 O.2       1 <0>        -0.9338
     24 C13         0.5895    7.4169   -8.2898 C.ar      1 <0>        -0.6775
     25 C14         1.6301    6.9886   -7.4864 C.ar      1 <0>        -0.0105
     26 C15         2.1181    5.7018   -7.6138 C.ar      1 <0>        -0.1176
     27 C16         1.5728    4.8451   -8.5533 C.ar      1 <0>         0.0211
     28 C17         0.5347    5.2758   -9.3617 C.ar      1 <0>        -0.0535
     29 C18         0.0437    6.5623   -9.2289 C.ar      1 <0>         0.0103
     30 Cl1        -0.1510    4.2018  -10.5407 Cl        1 <0>        -0.0311
     31 Cl2         2.1898    3.2308   -8.7182 Cl        1 <0>        -0.0281
     32 O6         -1.1016    9.4831   -3.3429 O.3       1 <0>        -0.5855
     33 H3         -1.3474   11.8939   -4.4618 H         1 <0>         0.0731
     34 H4         -1.2646   11.3143   -6.1600 H         1 <0>         0.0759
     35 H5          0.1439   11.0959   -5.0668 H         1 <0>         0.0767
     36 H6         -3.2002    5.6570   -3.9328 H         1 <0>         0.1071
     37 H7         -1.7184    4.7911   -4.4631 H         1 <0>         0.1049
     38 H8         -3.4942    2.2330   -2.2068 H         1 <0>         0.0862
     39 H9         -2.5720    2.8208   -3.6318 H         1 <0>         0.0647
     40 H10        -4.0539    3.6866   -3.1016 H         1 <0>         0.0678
     41 H11        -1.9840    4.4644    0.1270 H         1 <0>         0.0984
     42 H12        -2.9490    2.9718   -0.1327 H         1 <0>         0.0913
     43 H13        -1.8403    0.8749   -0.7601 H         1 <0>         0.1318
     44 H14         0.4018   -0.4059   -0.6330 H         1 <0>         0.1854
     45 H15         0.5877    4.3873   -0.1217 H         1 <0>         0.1896
     46 H16        -2.3004    9.0607   -7.3429 H         1 <0>         0.4561
     47 H17         2.0591    7.6587   -6.7561 H         1 <0>         0.1575
     48 H18         2.9282    5.3666   -6.9831 H         1 <0>         0.1561
     49 H19        -0.7659    6.8991   -9.8595 H         1 <0>         0.1610
     50 H20        -1.4047    8.5457   -2.8536 H         1 <0>         0.4173
@<TRIPOS>BOND
     1    1    2 1
     2    1   33 1
     3    1   34 1
     4    1   35 1
     5    2    3 1
     6    2    4 1
     7    2   32 1
     8    4    5 1
     9    4    6 1
    10    4   20 1
    11    6    7 2
    12    6    8 1
    13    8    9 1
    14    9   10 1
    15    9   36 1
    16    9   37 1
    17   10   11 2
    18   10   12 am
    19   12   13 1
    20   12   14 1
    21   13   38 1
    22   13   39 1
    23   13   40 1
    24   14   15 1
    25   14   41 1
    26   14   42 1
    27   15   19 2
    28   15   16 1
    29   16   17 2
    30   16   43 1
    31   17   18 1
    32   17   44 1
    33   18   19 1
    34   19   45 1
    35   20   21 1
    36   20   46 1
    37   21   22 2
    38   21   23 2
    39   21   24 1
    40   24   29 ar
    41   24   25 ar
    42   25   26 ar
    43   25   47 1
    44   26   27 ar
    45   26   48 1
    46   27   28 ar
    47   27   31 1
    48   28   29 ar
    49   28   30 1
    50   29   49 1
    51   32   50 1
@<TRIPOS>MOLECULE
ZINC32697801
   61    64     0     0     0
SMALL
USER_CHARGES
ethyl 4-acetyl-2-[[2-[(4,5-diphenyl-1H-imidazol-2-yl)sulfanyl]acetyl]amino]-5-methyl-furan-3-carboxylate
@<TRIPOS>ATOM
      1 C1         -5.4779    2.2797    4.7651 C.3       1 <0>        -0.1553
      2 C2         -3.9679    2.4536    4.9398 C.3       1 <0>         0.0558
      3 O1         -3.4001    3.0049    3.7225 O.3       1 <0>        -0.3480
      4 C3         -2.0686    3.2210    3.7109 C.2       1 <0>         0.5404
      5 O2         -1.4008    2.9554    4.6923 O.2       1 <0>        -0.4802
      6 C4         -1.4274    3.7750    2.5175 C.2       1 <0>        -0.2229
      7 C5         -0.8598    3.0259    1.3706 C.2       1 <0>        -0.1975
      8 C6         -0.3745    3.9729    0.5185 C.2       1 <0>         0.0438
      9 O3         -0.6014    5.1870    1.0324 O.3       1 <0>        -0.1413
     10 C7         -1.2207    5.1094    2.2180 C.2       1 <0>         0.3115
     11 N1         -1.5909    6.1807    3.0072 N.am      1 <0>        -0.6395
     12 C8         -1.3311    7.4390    2.6003 C.2       1 <0>         0.5319
     13 O4         -0.7724    7.6306    1.5412 O.2       1 <0>        -0.4769
     14 C9         -1.7349    8.6079    3.4614 C.3       1 <0>        -0.1410
     15 S1         -1.2528   10.1514    2.6482 S.3       1 <0>         0.0673
     16 C10        -1.8279   11.3168    3.8381 C.2       1 <0>         0.1718
     17 N2         -1.7164   12.6702    3.7346 N.pl3     1 <0>        -0.5527
     18 H1         -1.2327   13.1164    2.8531 H         1 <0>         0.4561
     19 C11        -2.2913   13.2149    4.8680 C.2       1 <0>         0.0594
     20 C12        -2.7290   12.1505    5.6314 C.2       1 <0>         0.0700
     21 N3         -2.4264   11.0180    4.9668 N.2       1 <0>        -0.4762
     22 C13        -3.4093   12.2380    6.9441 C.ar      1 <0>        -0.0060
     23 C14        -3.0572   13.2385    7.8500 C.ar      1 <0>        -0.0998
     24 C15        -3.6983   13.3181    9.0692 C.ar      1 <0>        -0.1188
     25 C16        -4.6809   12.4014    9.3983 C.ar      1 <0>        -0.1158
     26 C17        -5.0310   11.4036    8.5062 C.ar      1 <0>        -0.1215
     27 C18        -4.4008   11.3168    7.2818 C.ar      1 <0>        -0.0929
     28 C19        -2.4081   14.6481    5.1991 C.ar      1 <0>        -0.0240
     29 C20        -3.6119   15.1590    5.6911 C.ar      1 <0>        -0.0858
     30 C21        -3.7119   16.4984    6.0044 C.ar      1 <0>        -0.1152
     31 C22        -2.6272   17.3381    5.8212 C.ar      1 <0>        -0.1100
     32 C23        -1.4337   16.8402    5.3284 C.ar      1 <0>        -0.1171
     33 C24        -1.3172   15.5018    5.0167 C.ar      1 <0>        -0.1081
     34 C25         0.3076    3.6957   -0.7964 C.3       1 <0>        -0.0852
     35 C26        -0.8227    1.5731    1.1933 C.2       1 <0>         0.4256
     36 O5          0.1135    0.9329    1.6248 O.2       1 <0>        -0.4322
     37 C27        -1.9472    0.8727    0.4750 C.3       1 <0>        -0.1986
     38 H2         -5.9080    1.8620    5.6874 H         1 <0>         0.0841
     39 H3         -5.6735    1.5952    3.9265 H         1 <0>         0.0689
     40 H4         -5.9377    3.2568    4.5558 H         1 <0>         0.0687
     41 H5         -3.7723    3.1381    5.7784 H         1 <0>         0.0748
     42 H6         -3.5080    1.4765    5.1491 H         1 <0>         0.0744
     43 H7         -2.0978    6.0069    3.9679 H         1 <0>         0.4662
     44 H8         -2.8250    8.5958    3.6083 H         1 <0>         0.1374
     45 H9         -1.2326    8.5352    4.4373 H         1 <0>         0.1373
     46 H10        -2.2872   13.9519    7.5960 H         1 <0>         0.1220
     47 H11        -3.4294   14.0947    9.7698 H         1 <0>         0.1237
     48 H12        -5.1770   12.4653   10.3555 H         1 <0>         0.1224
     49 H13        -5.7988   10.6910    8.7688 H         1 <0>         0.1237
     50 H14        -4.6749   10.5375    6.5862 H         1 <0>         0.1241
     51 H15        -4.4606   14.5057    5.8304 H         1 <0>         0.1264
     52 H16        -4.6403   16.8939    6.3890 H         1 <0>         0.1281
     53 H17        -2.7125   18.3869    6.0642 H         1 <0>         0.1257
     54 H18        -0.5913   17.5013    5.1880 H         1 <0>         0.1265
     55 H19        -0.3850   15.1145    4.6330 H         1 <0>         0.1204
     56 H20         0.5932    4.6471   -1.2690 H         1 <0>         0.0916
     57 H21        -0.3804    3.1494   -1.4583 H         1 <0>         0.0969
     58 H22         1.2079    3.0884   -0.6215 H         1 <0>         0.0966
     59 H23        -1.7436   -0.2078    0.4406 H         1 <0>         0.0907
     60 H24        -2.0272    1.2636   -0.5501 H         1 <0>         0.0993
     61 H25        -2.8915    1.0511    1.0102 H         1 <0>         0.0987
@<TRIPOS>BOND
     1    1    2 1
     2    1   38 1
     3    1   39 1
     4    1   40 1
     5    2    3 1
     6    2   41 1
     7    2   42 1
     8    3    4 1
     9    4    5 2
    10    4    6 1
    11    6   10 2
    12    6    7 1
    13    7    8 2
    14    7   35 1
    15    8    9 1
    16    8   34 1
    17    9   10 1
    18   10   11 1
    19   11   12 am
    20   11   43 1
    21   12   13 2
    22   12   14 1
    23   14   15 1
    24   14   44 1
    25   14   45 1
    26   15   16 1
    27   16   21 2
    28   16   17 1
    29   17   18 1
    30   17   19 1
    31   19   20 2
    32   19   28 1
    33   20   21 1
    34   20   22 1
    35   22   27 ar
    36   22   23 ar
    37   23   24 ar
    38   23   46 1
    39   24   25 ar
    40   24   47 1
    41   25   26 ar
    42   25   48 1
    43   26   27 ar
    44   26   49 1
    45   27   50 1
    46   28   33 ar
    47   28   29 ar
    48   29   30 ar
    49   29   51 1
    50   30   31 ar
    51   30   52 1
    52   31   32 ar
    53   31   53 1
    54   32   33 ar
    55   32   54 1
    56   33   55 1
    57   34   56 1
    58   34   57 1
    59   34   58 1
    60   35   36 2
    61   35   37 1
    62   37   59 1
    63   37   60 1
    64   37   61 1
@<TRIPOS>MOLECULE
ZINC56896086
   69    72     0     0     0
SMALL
USER_CHARGES

@<TRIPOS>ATOM
      1 C1          3.6403    1.0452  -17.8658 C.3       1 <0>         0.0262
      2 O1          3.6584    1.6504  -16.5714 O.3       1 <0>        -0.3175
      3 C2          3.7870    0.8195  -15.5037 C.ar      1 <0>         0.1284
      4 C3          3.8992   -0.5495  -15.6981 C.ar      1 <0>        -0.2064
      5 C4          4.0302   -1.3919  -14.6111 C.ar      1 <0>        -0.0712
      6 C5          4.0491   -0.8717  -13.3302 C.ar      1 <0>        -0.1239
      7 C6          3.9369    0.4923  -13.1337 C.ar      1 <0>        -0.0718
      8 C7          3.8119    1.3395  -14.2177 C.ar      1 <0>        -0.1498
      9 C8          4.1916   -1.7930  -12.1461 C.3       1 <0>        -0.0870
     10 C9          5.6748   -1.9768  -11.8186 C.3       1 <0>         0.1212
     11 N1          5.8134   -2.8724  -10.6675 N.am      1 <0>        -0.6997
     12 C10         7.0382   -3.1808  -10.1973 C.2       1 <0>         0.5076
     13 O2          8.0262   -2.7166  -10.7273 O.2       1 <0>        -0.5172
     14 C11         7.1796   -4.0944   -9.0230 C.2       1 <0>         0.5099
     15 O3          6.1916   -4.5586   -8.4930 O.2       1 <0>        -0.5140
     16 N2          8.4044   -4.4028   -8.5528 N.am      1 <0>        -0.6982
     17 C12         8.5430   -5.2985   -7.4017 C.3       1 <0>         0.1222
     18 C13        10.0255   -5.5834   -7.1528 C.3       1 <0>         0.1212
     19 H1         10.5527   -4.6444   -6.9845 H         1 <0>         0.0623
     20 C14        10.6116   -6.2803   -8.3536 C.ar      1 <0>        -0.1423
     21 C15        11.3536   -5.5698   -9.2849 C.ar      1 <0>        -0.0722
     22 C16        11.8734   -6.2523  -10.3738 C.ar      1 <0>        -0.1691
     23 C17        11.6365   -7.6088  -10.4942 C.ar      1 <0>         0.1014
     24 N3         10.9257   -8.2522   -9.5890 N.ar      1 <0>        -0.4838
     25 C18        10.4211   -7.6366   -8.5374 C.ar      1 <0>         0.1305
     26 N4         10.1670   -6.4432   -5.9701 N.3       1 <0>        -0.5235
     27 C19         9.4294   -5.8906   -4.8262 C.3       1 <0>         0.0303
     28 C20         9.4507   -6.8997   -3.6732 C.3       1 <0>         0.1269
     29 N5         10.8488   -7.2622   -3.3954 N.pl3     1 <0>        -0.6317
     30 C21        11.6921   -7.6953   -4.5199 C.3       1 <0>         0.1282
     31 C22        11.5825   -6.6548   -5.6395 C.3       1 <0>         0.0429
     32 C23        11.3622   -7.1963   -2.0981 C.ar      1 <0>         0.2196
     33 C24        10.5896   -6.6724   -1.0694 C.ar      1 <0>        -0.2008
     34 C25        11.1001   -6.6092    0.2122 C.ar      1 <0>        -0.0711
     35 C26        12.3791   -7.0663    0.4720 C.ar      1 <0>        -0.1805
     36 C27        13.1510   -7.5884   -0.5497 C.ar      1 <0>        -0.0711
     37 C28        12.6445   -7.6598   -1.8325 C.ar      1 <0>        -0.2005
     38 H2          4.5724    0.5035  -18.0268 H         1 <0>         0.0564
     39 H3          2.8014    0.3523  -17.9313 H         1 <0>         0.0564
     40 H4          3.5332    1.8182  -18.6269 H         1 <0>         0.1017
     41 H5          3.8838   -0.9564  -16.6984 H         1 <0>         0.1293
     42 H6          4.1176   -2.4577  -14.7619 H         1 <0>         0.1259
     43 H7          3.9516    0.8962  -12.1322 H         1 <0>         0.1306
     44 H8          3.7288    2.4053  -14.0640 H         1 <0>         0.1323
     45 H9          3.6804   -1.3609  -11.2859 H         1 <0>         0.0826
     46 H10         3.7493   -2.7606  -12.3833 H         1 <0>         0.0817
     47 H11         6.1861   -2.4089  -12.6788 H         1 <0>         0.0761
     48 H12         6.1171   -1.0092  -11.5814 H         1 <0>         0.0770
     49 H13         5.0236   -3.2434  -10.2439 H         1 <0>         0.4143
     50 H14         9.1942   -4.0318   -8.9764 H         1 <0>         0.4112
     51 H15         8.1107   -4.8260   -6.5197 H         1 <0>         0.0834
     52 H16         8.0222   -6.2343   -7.6047 H         1 <0>         0.0902
     53 H17        11.5222   -4.5098   -9.1650 H         1 <0>         0.1321
     54 H18        12.4559   -5.7308  -11.1189 H         1 <0>         0.1369
     55 H19        12.0380   -8.1479  -11.3395 H         1 <0>         0.1560
     56 H20         9.8484   -8.1980   -7.8141 H         1 <0>         0.1626
     57 H21         9.8997   -4.9612   -4.5049 H         1 <0>         0.0442
     58 H22         8.3979   -5.6944   -5.1189 H         1 <0>         0.0948
     59 H23         9.0055   -6.4508   -2.7854 H         1 <0>         0.0889
     60 H24         8.8908   -7.7910   -3.9564 H         1 <0>         0.0729
     61 H25        12.7287   -7.7724   -4.1918 H         1 <0>         0.0872
     62 H26        11.3476   -8.6631   -4.8844 H         1 <0>         0.0717
     63 H27        12.1126   -7.0130   -6.5220 H         1 <0>         0.0864
     64 H28        12.0228   -5.7149   -5.3069 H         1 <0>         0.0422
     65 H29         9.5909   -6.3146   -1.2718 H         1 <0>         0.1212
     66 H30        10.4999   -6.2020    1.0125 H         1 <0>         0.1200
     67 H31        12.7762   -7.0150    1.4751 H         1 <0>         0.1174
     68 H32        14.1495   -7.9445   -0.3434 H         1 <0>         0.1199
     69 H33        13.2462   -8.0719   -2.6291 H         1 <0>         0.1205
@<TRIPOS>BOND
     1    1    2 1
     2    1   38 1
     3    1   39 1
     4    1   40 1
     5    2    3 1
     6    3    8 ar
     7    3    4 ar
     8    4    5 ar
     9    4   41 1
    10    5    6 ar
    11    5   42 1
    12    6    7 ar
    13    6    9 1
    14    7    8 ar
    15    7   43 1
    16    8   44 1
    17    9   10 1
    18    9   45 1
    19    9   46 1
    20   10   11 1
    21   10   47 1
    22   10   48 1
    23   11   12 am
    24   11   49 1
    25   12   13 2
    26   12   14 1
    27   14   15 2
    28   14   16 am
    29   16   17 1
    30   16   50 1
    31   17   18 1
    32   17   51 1
    33   17   52 1
    34   18   19 1
    35   18   20 1
    36   18   26 1
    37   20   25 ar
    38   20   21 ar
    39   21   22 ar
    40   21   53 1
    41   22   23 ar
    42   22   54 1
    43   23   24 ar
    44   23   55 1
    45   24   25 ar
    46   25   56 1
    47   26   31 1
    48   26   27 1
    49   27   28 1
    50   27   57 1
    51   27   58 1
    52   28   29 1
    53   28   59 1
    54   28   60 1
    55   29   30 1
    56   29   32 1
    57   30   31 1
    58   30   61 1
    59   30   62 1
    60   31   63 1
    61   31   64 1
    62   32   37 ar
    63   32   33 ar
    64   33   34 ar
    65   33   65 1
    66   34   35 ar
    67   34   66 1
    68   35   36 ar
    69   35   67 1
    70   36   37 ar
    71   36   68 1
    72   37   69 1
@<TRIPOS>MOLECULE
ZINC09586811
   50    53     0     0     0
SMALL
USER_CHARGES
dimethyl 5-amino-3-[[4-phenyl-5-(2-thienyl)-1,2,4-triazol-3-yl]sulfanylmethyl]thiophene-2,4-dicarboxylate
@<TRIPOS>ATOM
      1 C1         -0.9410    0.8532   -4.3500 C.3       1 <0>         0.0320
      2 O1         -1.5867    0.6835   -3.0606 O.3       1 <0>        -0.3438
      3 C2         -1.4698   -0.5240   -2.4715 C.2       1 <0>         0.5329
      4 O2         -0.8449   -1.4108   -3.0211 O.2       1 <0>        -0.4890
      5 C3         -2.0960   -0.7676   -1.1685 C.2       1 <0>        -0.2770
      6 C4         -1.4117   -0.5257    0.0127 C.2       1 <0>         0.0653
      7 C5         -2.0631   -0.7826    1.1892 C.2       1 <0>        -0.2635
      8 S1         -3.6570   -1.3605    0.6383 S.3       1 <0>         0.2339
      9 C6         -3.4072   -1.2526   -1.0735 C.2       1 <0>         0.1880
     10 N1         -4.2802   -1.5662   -2.0881 N.pl3     1 <0>        -0.7870
     11 C7         -1.5738   -0.6217    2.5568 C.2       1 <0>         0.5554
     12 O3         -0.4466   -0.2089    2.7550 O.2       1 <0>        -0.4848
     13 O4         -2.3723   -0.9309    3.5998 O.3       1 <0>        -0.3494
     14 C8         -1.8289   -0.7492    4.9089 C.3       1 <0>         0.0364
     15 C9          0.0021   -0.0041    0.0020 C.3       1 <0>        -0.0778
     16 S2         -0.0225    1.8057    0.0120 S.3       1 <0>         0.0549
     17 C10         1.7084    2.1353   -0.0028 C.2       1 <0>         0.1723
     18 N2          2.6715    1.2421   -0.0110 N.2       1 <0>        -0.2785
     19 N3          3.8168    1.8243   -0.0233 N.2       1 <0>        -0.2510
     20 C11         3.6583    3.1299   -0.0152 C.2       1 <0>         0.2732
     21 N4          2.3002    3.3705   -0.0018 N.pl3     1 <0>        -0.4163
     22 C12         1.6602    4.6174    0.0107 C.ar      1 <0>         0.0988
     23 C13         1.7892    5.4764   -1.0724 C.ar      1 <0>        -0.0971
     24 C14         1.1525    6.7021   -1.0596 C.ar      1 <0>        -0.1002
     25 C15         0.3970    7.0789    0.0355 C.ar      1 <0>        -0.0976
     26 C16         0.2709    6.2277    1.1180 C.ar      1 <0>        -0.1018
     27 C17         0.9005    4.9984    1.1086 C.ar      1 <0>        -0.0940
     28 C18         4.7267    4.1415   -0.0201 C.2       1 <0>        -0.1064
     29 C19         6.0647    3.9876    0.2429 C.2       1 <0>        -0.0958
     30 C20         6.8825    5.0931    0.1760 C.2       1 <0>        -0.1600
     31 C21         6.3433    6.2973   -0.1467 C.2       1 <0>        -0.1653
     32 S3          4.6212    5.8877   -0.3773 S.3       1 <0>         0.0887
     33 H1          0.1302    0.6808   -4.2454 H         1 <0>         0.0644
     34 H2         -1.3562    0.1390   -5.0610 H         1 <0>         0.0640
     35 H3         -1.1122    1.8671   -4.7114 H         1 <0>         0.1045
     36 H4         -4.0082   -1.4577   -3.0129 H         1 <0>         0.4169
     37 H5         -5.1682   -1.8959   -1.8793 H         1 <0>         0.4218
     38 H6         -2.5723   -1.0339    5.6536 H         1 <0>         0.1054
     39 H7         -0.9422   -1.3725    5.0240 H         1 <0>         0.0638
     40 H8         -1.5579    0.2974    5.0478 H         1 <0>         0.0637
     41 H9          0.5123   -0.3556   -0.8948 H         1 <0>         0.1065
     42 H10         0.5293   -0.3651    0.8851 H         1 <0>         0.1384
     43 H11         2.3834    5.1848   -1.9257 H         1 <0>         0.1308
     44 H12         1.2489    7.3689   -1.9037 H         1 <0>         0.1377
     45 H13        -0.0959    8.0398    0.0453 H         1 <0>         0.1351
     46 H14        -0.3202    6.5246    1.9717 H         1 <0>         0.1378
     47 H15         0.8017    4.3340    1.9543 H         1 <0>         0.1330
     48 H16         6.4681    3.0187    0.4976 H         1 <0>         0.1464
     49 H17         7.9398    5.0039    0.3772 H         1 <0>         0.1432
     50 H18         6.8319    7.2556   -0.2435 H         1 <0>         0.1917
@<TRIPOS>BOND
     1    1    2 1
     2    1   33 1
     3    1   34 1
     4    1   35 1
     5    2    3 1
     6    3    4 2
     7    3    5 1
     8    5    9 2
     9    5    6 1
    10    6    7 2
    11    6   15 1
    12    7    8 1
    13    7   11 1
    14    8    9 1
    15    9   10 1
    16   10   36 1
    17   10   37 1
    18   11   12 2
    19   11   13 1
    20   13   14 1
    21   14   38 1
    22   14   39 1
    23   14   40 1
    24   15   16 1
    25   15   41 1
    26   15   42 1
    27   16   17 1
    28   17   21 1
    29   17   18 2
    30   18   19 1
    31   19   20 2
    32   20   21 1
    33   20   28 1
    34   21   22 1
    35   22   27 ar
    36   22   23 ar
    37   23   24 ar
    38   23   43 1
    39   24   25 ar
    40   24   44 1
    41   25   26 ar
    42   25   45 1
    43   26   27 ar
    44   26   46 1
    45   27   47 1
    46   28   32 1
    47   28   29 2
    48   29   30 1
    49   29   48 1
    50   30   31 2
    51   30   49 1
    52   31   32 1
    53   31   50 1
@<TRIPOS>MOLECULE
ZINC14540599
   60    63     0     0     0
SMALL
USER_CHARGES
methyl 3-acetamido-1-[2-(4-methoxyphenyl)ethyl]-5-(2-thienylmethylamino)pyrrolo[5,4-b]pyridine-2-carboxylate
@<TRIPOS>ATOM
      1 C1         -4.8621   -0.9030    0.1607 C.3       1 <0>        -0.1712
      2 C2         -3.4166   -1.3202    0.2486 C.2       1 <0>         0.5212
      3 O1         -3.1321   -2.4697    0.5105 O.2       1 <0>        -0.5287
      4 N1         -2.4401   -0.4159    0.0362 N.am      1 <0>        -0.6559
      5 C3         -1.1093   -0.8205    0.0189 C.2       1 <0>         0.1564
      6 C4         -0.3660   -1.3372   -1.1314 C.ar      1 <0>        -0.1116
      7 C5         -0.6996   -1.5789   -2.4687 C.ar      1 <0>        -0.0964
      8 C6          0.2817   -2.0941   -3.3023 C.ar      1 <0>         0.1397
      9 C7          1.5495   -2.3495   -2.7843 C.ar      1 <0>         0.1075
     10 N2          1.8369   -2.1131   -1.5229 N.ar      1 <0>        -0.4581
     11 C8          0.9372   -1.6204   -0.6793 C.ar      1 <0>         0.2778
     12 N3          0.9979   -1.2963    0.6550 N.pl3     1 <0>        -0.4418
     13 C9         -0.2297   -0.8105    1.0819 C.2       1 <0>         0.0494
     14 C10        -0.5328   -0.3795    2.3984 C.2       1 <0>         0.5326
     15 O2         -1.6462    0.0347    2.6617 O.2       1 <0>        -0.4809
     16 O3          0.4152   -0.4235    3.3579 O.3       1 <0>        -0.3503
     17 C11         0.0403    0.0262    4.6614 C.3       1 <0>         0.0320
     18 C12         2.1845   -1.4419    1.5017 C.3       1 <0>         0.1147
     19 C13         2.1874   -2.8319    2.1410 C.3       1 <0>        -0.0857
     20 C14         3.4080   -2.9817    3.0121 C.ar      1 <0>        -0.1188
     21 C15         4.5799   -3.4842    2.4775 C.ar      1 <0>        -0.0703
     22 C16         5.7018   -3.6172    3.2726 C.ar      1 <0>        -0.2062
     23 C17         5.6486   -3.2566    4.6112 C.ar      1 <0>         0.1265
     24 C18         4.4699   -2.7579    5.1465 C.ar      1 <0>        -0.1509
     25 C19         3.3524   -2.6216    4.3459 C.ar      1 <0>        -0.0701
     26 O4          6.7495   -3.3912    5.3966 O.3       1 <0>        -0.3183
     27 C20         7.9281   -3.9113    4.7781 C.3       1 <0>         0.0267
     28 N4          0.0012   -2.3551   -4.6492 N.pl3     1 <0>        -0.7402
     29 C21         1.0441   -2.8993   -5.5224 C.3       1 <0>         0.2120
     30 C22         0.4892   -3.0869   -6.9109 C.2       1 <0>        -0.1742
     31 C23         0.4743   -2.2156   -7.9491 C.2       1 <0>        -0.1302
     32 C24        -0.0947   -2.6087   -9.1460 C.2       1 <0>        -0.1646
     33 C25        -0.6209   -3.8539   -9.2461 C.2       1 <0>        -0.1627
     34 S1         -0.3121   -4.5172   -7.6176 S.3       1 <0>         0.0539
     35 H1         -5.0698   -0.5210   -0.8387 H         1 <0>         0.0908
     36 H2         -5.5013   -1.7628    0.3612 H         1 <0>         0.0950
     37 H3         -5.0606   -0.1234    0.8962 H         1 <0>         0.0927
     38 H4         -2.6653    0.5170   -0.1047 H         1 <0>         0.4128
     39 H5         -1.6917   -1.3701   -2.8407 H         1 <0>         0.1341
     40 H6          2.3136   -2.7510   -3.4333 H         1 <0>         0.1635
     41 H7         -0.7820   -0.5847    5.0339 H         1 <0>         0.0642
     42 H8          0.8926   -0.0619    5.3352 H         1 <0>         0.1058
     43 H9         -0.2756    1.0681    4.6094 H         1 <0>         0.0641
     44 H10         3.0814   -1.3193    0.8946 H         1 <0>         0.0979
     45 H11         2.1684   -0.6824    2.2835 H         1 <0>         0.1067
     46 H12         1.2905   -2.9544    2.7482 H         1 <0>         0.0772
     47 H13         2.2035   -3.5913    1.3593 H         1 <0>         0.0781
     48 H14         4.6195   -3.7689    1.4365 H         1 <0>         0.1267
     49 H15         6.6183   -4.0056    2.8535 H         1 <0>         0.1286
     50 H16         4.4259   -2.4768    6.1884 H         1 <0>         0.1309
     51 H17         2.4347   -2.2331    4.7621 H         1 <0>         0.1295
     52 H18         7.7236   -4.9080    4.3870 H         1 <0>         0.0560
     53 H19         8.2294   -3.2553    3.9613 H         1 <0>         0.0561
     54 H20         8.7301   -3.9672    5.5140 H         1 <0>         0.1009
     55 H21        -0.8835   -2.1755   -5.0040 H         1 <0>         0.4041
     56 H22         1.8858   -2.2076   -5.5579 H         1 <0>         0.0850
     57 H23         1.3797   -3.8602   -5.1323 H         1 <0>         0.0771
     58 H24         0.9008   -1.2291   -7.8429 H         1 <0>         0.1354
     59 H25        -0.1193   -1.9339   -9.9889 H         1 <0>         0.1362
     60 H26        -1.0991   -4.3241  -10.0926 H         1 <0>         0.1877
@<TRIPOS>BOND
     1    1    2 1
     2    1   35 1
     3    1   36 1
     4    1   37 1
     5    2    3 2
     6    2    4 am
     7    4    5 1
     8    4   38 1
     9    5   13 2
    10    5    6 1
    11    6   11 ar
    12    6    7 ar
    13    7    8 ar
    14    7   39 1
    15    8    9 ar
    16    8   28 1
    17    9   10 ar
    18    9   40 1
    19   10   11 ar
    20   11   12 1
    21   12   13 1
    22   12   18 1
    23   13   14 1
    24   14   15 2
    25   14   16 1
    26   16   17 1
    27   17   41 1
    28   17   42 1
    29   17   43 1
    30   18   19 1
    31   18   44 1
    32   18   45 1
    33   19   20 1
    34   19   46 1
    35   19   47 1
    36   20   25 ar
    37   20   21 ar
    38   21   22 ar
    39   21   48 1
    40   22   23 ar
    41   22   49 1
    42   23   24 ar
    43   23   26 1
    44   24   25 ar
    45   24   50 1
    46   25   51 1
    47   26   27 1
    48   27   52 1
    49   27   53 1
    50   27   54 1
    51   28   29 1
    52   28   55 1
    53   29   30 1
    54   29   56 1
    55   29   57 1
    56   30   34 1
    57   30   31 2
    58   31   32 1
    59   31   58 1
    60   32   33 2
    61   32   59 1
    62   33   34 1
    63   33   60 1
@<TRIPOS>MOLECULE
ZINC23041929
   51    54     0     0     0
SMALL
USER_CHARGES
N-[4-[(4-allyl-5-thioxo-1H-1,2,4-triazol-3-yl)methyl]thiazol-2-yl]-3-[5-(2-chlorophenyl)oxazol-2-yl]propanamide
@<TRIPOS>ATOM
      1 C1          5.6759   -3.3154   -1.1309 C.2       1 <0>        -0.1353
      2 C2          5.5387   -2.0398   -0.8660 C.2       1 <0>        -0.2038
      3 C3          4.3551   -1.5593   -0.0664 C.3       1 <0>         0.1442
      4 N1          4.8258   -0.7935    1.0904 N.pl3     1 <0>        -0.4748
      5 C4          5.0538    0.5603    1.1194 C.2       1 <0>         0.2893
      6 N2          5.4666    0.8892    2.3011 N.2       1 <0>        -0.2877
      7 N3          5.5079   -0.2705    3.0873 N.pl3     1 <0>        -0.4853
      8 H1          5.8281   -0.2116    4.1380 H         1 <0>         0.5022
      9 C5          5.1085   -1.2976    2.3084 C.2       1 <0>         0.4854
     10 S1          4.9832   -2.9385    2.7803 S.2       1 <0>        -0.5907
     11 C6          4.8612    1.5070   -0.0372 C.3       1 <0>         0.0287
     12 C7          3.4519    2.0405   -0.0203 C.2       1 <0>         0.0742
     13 C8          3.2159    3.3752   -0.0104 C.2       1 <0>        -0.2450
     14 S2          1.4292    3.3961    0.0072 S.3       1 <0>         0.1754
     15 C9          1.1831    1.6771   -0.0002 C.2       1 <0>         0.2947
     16 N4          2.4200    1.2197   -0.0091 N.2       1 <0>        -0.5499
     17 N5         -0.0111    0.9658    0.0074 N.am      1 <0>        -0.6247
     18 C10        -1.1873    1.6238    0.0165 C.2       1 <0>         0.5231
     19 O1         -1.2038    2.8365    0.0232 O.2       1 <0>        -0.4974
     20 C11        -2.4820    0.8526    0.0185 C.3       1 <0>        -0.1316
     21 C12        -3.6583    1.8309    0.0294 C.3       1 <0>        -0.0113
     22 C13        -4.9531    1.0598    0.0313 C.2       1 <0>         0.1941
     23 N6         -5.5983    0.6672    1.0937 N.2       1 <0>        -0.4715
     24 C14        -6.7047    0.0112    0.7126 C.2       1 <0>        -0.0091
     25 C15        -6.7299    0.0067   -0.6449 C.2       1 <0>        -0.0076
     26 O2         -5.6293    0.6723   -1.0589 O.3       1 <0>        -0.1821
     27 C16        -7.7658   -0.6036   -1.5048 C.ar      1 <0>        -0.0141
     28 C17        -8.1693   -1.9220   -1.2881 C.ar      1 <0>        -0.0795
     29 C18        -9.1365   -2.4857   -2.0941 C.ar      1 <0>        -0.1123
     30 C19        -9.7070   -1.7475   -3.1161 C.ar      1 <0>        -0.0922
     31 C20        -9.3125   -0.4404   -3.3371 C.ar      1 <0>        -0.1096
     32 C21        -8.3494    0.1383   -2.5341 C.ar      1 <0>        -0.0164
     33 Cl1        -7.8607    1.7815   -2.8076 Cl        1 <0>        -0.0525
     34 H2          6.5398   -3.6661   -1.7145 H         1 <0>         0.1085
     35 H3          4.9272   -4.0358   -0.7697 H         1 <0>         0.1101
     36 H4          6.2874   -1.3194   -1.2272 H         1 <0>         0.1144
     37 H5          3.7221   -0.9183   -0.6976 H         1 <0>         0.1173
     38 H6          3.7708   -2.4246    0.2798 H         1 <0>         0.1157
     39 H7          5.5708    2.3429    0.0511 H         1 <0>         0.1284
     40 H8          5.0397    0.9727   -0.9820 H         1 <0>         0.1148
     41 H9          3.9147    4.1987   -0.0122 H         1 <0>         0.2008
     42 H10         0.0038   -0.1341    0.0060 H         1 <0>         0.4562
     43 H11        -2.5359    0.2243   -0.8828 H         1 <0>         0.1131
     44 H12        -2.5274    0.2146    0.9134 H         1 <0>         0.1172
     45 H13        -3.6044    2.4591    0.9308 H         1 <0>         0.1212
     46 H14        -3.6129    2.4690   -0.8655 H         1 <0>         0.1074
     47 H15        -7.4410   -0.4324    1.3664 H         1 <0>         0.1888
     48 H16        -7.7249   -2.4999   -0.4912 H         1 <0>         0.1398
     49 H17        -9.4495   -3.5058   -1.9269 H         1 <0>         0.1391
     50 H18       -10.4636   -2.1942   -3.7442 H         1 <0>         0.1391
     51 H19        -9.7615    0.1302   -4.1366 H         1 <0>         0.1408
@<TRIPOS>BOND
     1    1    2 2
     2    1   34 1
     3    1   35 1
     4    2    3 1
     5    2   36 1
     6    3    4 1
     7    3   37 1
     8    3   38 1
     9    4    9 1
    10    4    5 1
    11    5    6 2
    12    5   11 1
    13    6    7 1
    14    7    8 1
    15    7    9 1
    16    9   10 2
    17   11   12 1
    18   11   39 1
    19   11   40 1
    20   12   16 1
    21   12   13 2
    22   13   14 1
    23   13   41 1
    24   14   15 1
    25   15   16 2
    26   15   17 1
    27   17   18 am
    28   17   42 1
    29   18   19 2
    30   18   20 1
    31   20   21 1
    32   20   43 1
    33   20   44 1
    34   21   22 1
    35   21   45 1
    36   21   46 1
    37   22   26 1
    38   22   23 2
    39   23   24 1
    40   24   25 2
    41   24   47 1
    42   25   26 1
    43   25   27 1
    44   27   32 ar
    45   27   28 ar
    46   28   29 ar
    47   28   48 1
    48   29   30 ar
    49   29   49 1
    50   30   31 ar
    51   30   50 1
    52   31   32 ar
    53   31   51 1
    54   32   33 1
@<TRIPOS>MOLECULE
ZINC36627232
   55    58     0     0     0
SMALL
USER_CHARGES

@<TRIPOS>ATOM
      1 C1          1.1998   -0.8781   -2.0650 C.3       1 <0>        -0.1524
      2 C2          0.5364   -1.0768   -0.7007 C.3       1 <0>         0.0584
      3 O1         -0.7697   -1.6277   -0.8819 O.3       1 <0>        -0.3404
      4 C3         -1.4941   -1.8656    0.2315 C.2       1 <0>         0.5386
      5 O2         -1.0279   -1.6117    1.3264 O.2       1 <0>        -0.4808
      6 C4         -2.7953   -2.4102    0.1258 C.2       1 <0>        -0.2128
      7 C5         -2.9845   -3.7307   -0.0846 C.2       1 <0>         0.2102
      8 N1         -4.2412   -4.2553   -0.1860 N.am      1 <0>        -0.6472
      9 C6         -5.3602   -3.5263   -0.0888 C.2       1 <0>         0.7103
     10 O3         -6.4356   -4.0834   -0.1926 O.2       1 <0>        -0.5553
     11 N2         -5.3330   -2.1953    0.1207 N.am      1 <0>        -0.7081
     12 C7         -4.0243   -1.5328    0.2510 C.3       1 <0>         0.2431
     13 H1         -3.9882   -1.0406    1.2228 H         1 <0>         0.1002
     14 C8         -3.9423   -0.4644   -0.8087 C.ar      1 <0>        -0.1182
     15 C9         -4.3063   -0.7529   -2.1107 C.ar      1 <0>        -0.0881
     16 C10        -4.2311    0.2271   -3.0827 C.ar      1 <0>        -0.1170
     17 C11        -3.7922    1.4957   -2.7526 C.ar      1 <0>        -0.1087
     18 C12        -3.4291    1.7844   -1.4505 C.ar      1 <0>        -0.1167
     19 C13        -3.5084    0.8056   -0.4776 C.ar      1 <0>        -0.1038
     20 C14        -1.7893   -4.6401   -0.2098 C.3       1 <0>        -0.0985
     21 S1         -1.5965   -5.5992    1.3177 S.3       1 <0>         0.0504
     22 C15        -0.1773   -6.5993    1.0169 C.2       1 <0>         0.3751
     23 N3          0.4540   -6.5020   -0.1355 N.2       1 <0>        -0.4997
     24 C16         1.5257   -7.2426   -0.3901 C.2       1 <0>         0.1164
     25 C17         2.0390   -8.1604    0.5458 C.2       1 <0>        -0.2554
     26 C18         3.2168   -8.8889    0.1069 C.2       1 <0>        -0.0853
     27 C19         3.7184   -8.6489   -1.1135 C.2       1 <0>        -0.1854
     28 S2          2.6255   -7.4046   -1.7732 S.3       1 <0>         0.1428
     29 C20         1.3325   -8.2445    1.7868 C.2       1 <0>         0.5617
     30 O4          1.7040   -9.0121    2.6580 O.2       1 <0>        -0.5127
     31 N4          0.2566   -7.4603    1.9829 N.am      1 <0>        -0.5041
     32 C21        -0.4668   -7.5375    3.2545 C.3       1 <0>         0.1138
     33 C22        -1.5469   -8.5837    3.1552 C.2       1 <0>        -0.1951
     34 C23        -1.5949   -9.5604    4.0270 C.2       1 <0>        -0.1385
     35 H2          2.1960   -0.4579   -1.9268 H         1 <0>         0.0811
     36 H3          1.2780   -1.8386   -2.5743 H         1 <0>         0.0676
     37 H4          0.5980   -0.1961   -2.6657 H         1 <0>         0.0680
     38 H5          1.1382   -1.7588   -0.0999 H         1 <0>         0.0686
     39 H6          0.4582   -0.1164   -0.1913 H         1 <0>         0.0707
     40 H7         -4.3282   -5.2095   -0.3372 H         1 <0>         0.4310
     41 H8         -6.1561   -1.6863    0.1875 H         1 <0>         0.4372
     42 H9         -4.6492   -1.7441   -2.3685 H         1 <0>         0.1167
     43 H10        -4.5148    0.0015   -4.1000 H         1 <0>         0.1241
     44 H11        -3.7328    2.2612   -3.5122 H         1 <0>         0.1240
     45 H12        -3.0859    2.7755   -1.1927 H         1 <0>         0.1251
     46 H13        -3.2282    1.0322    0.5405 H         1 <0>         0.1233
     47 H14        -1.9362   -5.3196   -1.0494 H         1 <0>         0.1357
     48 H15        -0.8939   -4.0421   -0.3788 H         1 <0>         0.1299
     49 H16         3.6832   -9.6152    0.7560 H         1 <0>         0.1460
     50 H17         4.5790   -9.1011   -1.5840 H         1 <0>         0.1997
     51 H18         0.2268   -7.8058    4.0514 H         1 <0>         0.1150
     52 H19        -0.9174   -6.5699    3.4754 H         1 <0>         0.1071
     53 H20        -2.2814   -8.5284    2.3654 H         1 <0>         0.1190
     54 H21        -2.3689  -10.3101    3.9559 H         1 <0>         0.1087
     55 H22        -0.8604   -9.6157    4.8169 H         1 <0>         0.1046
@<TRIPOS>BOND
     1    1    2 1
     2    1   35 1
     3    1   36 1
     4    1   37 1
     5    2    3 1
     6    2   38 1
     7    2   39 1
     8    3    4 1
     9    4    5 2
    10    4    6 1
    11    6   12 1
    12    6    7 2
    13    7    8 1
    14    7   20 1
    15    8    9 am
    16    8   40 1
    17    9   10 2
    18    9   11 am
    19   11   12 1
    20   11   41 1
    21   12   13 1
    22   12   14 1
    23   14   19 ar
    24   14   15 ar
    25   15   16 ar
    26   15   42 1
    27   16   17 ar
    28   16   43 1
    29   17   18 ar
    30   17   44 1
    31   18   19 ar
    32   18   45 1
    33   19   46 1
    34   20   21 1
    35   20   47 1
    36   20   48 1
    37   21   22 1
    38   22   31 1
    39   22   23 2
    40   23   24 1
    41   24   28 1
    42   24   25 2
    43   25   26 1
    44   25   29 1
    45   26   27 2
    46   26   49 1
    47   27   28 1
    48   27   50 1
    49   29   30 2
    50   29   31 am
    51   31   32 1
    52   32   33 1
    53   32   51 1
    54   32   52 1
    55   33   34 2
    56   33   53 1
    57   34   54 1
    58   34   55 1
@<TRIPOS>MOLECULE
ZINC32972333
   70    72     0     0     0
SMALL
USER_CHARGES

@<TRIPOS>ATOM
      1 C1          2.3544   -2.7741   -0.4149 C.3       1 <0>        -0.0764
      2 C2          1.6141   -1.5236   -0.0160 C.2       1 <0>         0.0977
      3 C3          1.5724   -0.3285   -0.7416 C.2       1 <0>        -0.2652
      4 C4          0.8066    0.5498   -0.0537 C.2       1 <0>         0.1143
      5 N1          0.3789   -0.0676    1.0675 N.pl3     1 <0>        -0.3690
      6 N2          0.8948   -1.3700    1.0661 N.2       1 <0>        -0.2928
      7 C5         -0.4780    0.5188    2.1009 C.3       1 <0>         0.0979
      8 C6          0.4888    1.9641   -0.4655 C.3       1 <0>        -0.0974
      9 C7          2.2596   -0.0653   -2.0567 C.3       1 <0>         0.1743
     10 N3          1.3633   -0.4280   -3.1573 N.pl3     1 <0>        -0.7030
     11 C8          1.7313   -0.1789   -4.4470 C.2       1 <0>         0.6949
     12 N4          2.9729    0.3184   -4.7185 N.pl3     1 <0>        -0.6422
     13 C9          3.3026    0.7043   -6.0237 C.ar      1 <0>         0.1598
     14 C10         2.3379    1.2744   -6.8438 C.ar      1 <0>        -0.0935
     15 C11         2.6616    1.6558   -8.1319 C.ar      1 <0>        -0.1565
     16 C12         3.9495    1.4702   -8.6080 C.ar      1 <0>         0.0903
     17 C13         4.9187    0.8996   -7.7885 C.ar      1 <0>         0.1162
     18 C14         4.5955    0.5223   -6.4957 C.ar      1 <0>        -0.1958
     19 O1          6.1829    0.7167   -8.2550 O.3       1 <0>        -0.3034
     20 C15         7.1260    0.1255   -7.3589 C.3       1 <0>         0.0256
     21 O2          4.2665    1.8454   -9.8769 O.3       1 <0>        -0.3070
     22 C16         3.2222    2.4240  -10.6623 C.3       1 <0>         0.0260
     23 N5          0.8836   -0.4198   -5.4359 N.2       1 <0>        -0.6837
     24 C17        -0.1854   -1.1992   -5.2268 C.2       1 <0>         0.5491
     25 O3         -0.4158   -1.6306   -4.1111 O.2       1 <0>        -0.5784
     26 C18        -1.0875   -1.5366   -6.3520 C.ar      1 <0>        -0.1185
     27 C19        -0.8232   -1.0489   -7.6318 C.ar      1 <0>        -0.0539
     28 C20        -1.6670   -1.3671   -8.6761 C.ar      1 <0>        -0.1348
     29 C21        -2.7735   -2.1677   -8.4557 C.ar      1 <0>        -0.0441
     30 C22        -3.0413   -2.6541   -7.1885 C.ar      1 <0>        -0.1376
     31 C23        -2.2015   -2.3480   -6.1373 C.ar      1 <0>        -0.0646
     32 C24        -3.6913   -2.5110   -9.6006 C.3       1 <0>        -0.0337
     33 C25        -2.9033   -3.2553  -10.6804 C.3       1 <0>        -0.1391
     34 C26        -4.8279   -3.4011   -9.0939 C.3       1 <0>        -0.1461
     35 C27        -4.2745   -1.2251  -10.1900 C.3       1 <0>        -0.1387
     36 H1          1.7015   -3.4066   -1.0163 H         1 <0>         0.0802
     37 H2          3.2358   -2.5046   -0.9967 H         1 <0>         0.0760
     38 H3          2.6613   -3.3157    0.4799 H         1 <0>         0.0758
     39 H4         -1.5233    0.3308    1.8559 H         1 <0>         0.0777
     40 H5         -0.2442    0.0683    3.0655 H         1 <0>         0.0924
     41 H6         -0.3040    1.5937    2.1503 H         1 <0>         0.0887
     42 H7         -0.4206    1.9719   -1.0664 H         1 <0>         0.0843
     43 H8          0.3420    2.5772    0.4237 H         1 <0>         0.0750
     44 H9          1.3151    2.3662   -1.0517 H         1 <0>         0.0863
     45 H10         2.5138    0.9922   -2.1286 H         1 <0>         0.0737
     46 H11         3.1694   -0.6626   -2.1172 H         1 <0>         0.0740
     47 H12         0.5081   -0.8452   -2.9689 H         1 <0>         0.4362
     48 H13         1.3334    1.4195   -6.4746 H         1 <0>         0.1480
     49 H14         1.9098    2.0986   -8.7684 H         1 <0>         0.1391
     50 H15         5.3473    0.0831   -5.8567 H         1 <0>         0.1366
     51 H16         7.2284    0.7528   -6.4734 H         1 <0>         0.0542
     52 H17         6.7764   -0.8641   -7.0646 H         1 <0>         0.0548
     53 H18         8.0924    0.0367   -7.8551 H         1 <0>         0.1012
     54 H19         2.4054    1.7095  -10.7636 H         1 <0>         0.0558
     55 H20         2.8568    3.3266  -10.1726 H         1 <0>         0.0548
     56 H21         3.6081    2.6772  -11.6498 H         1 <0>         0.0997
     57 H22         3.6269    0.4045   -4.0074 H         1 <0>         0.4172
     58 H23         0.0400   -0.4232   -7.8050 H         1 <0>         0.1384
     59 H24        -1.4634   -0.9901   -9.6675 H         1 <0>         0.1239
     60 H25        -3.9070   -3.2780   -7.0226 H         1 <0>         0.1296
     61 H26        -2.4091   -2.7320   -5.1494 H         1 <0>         0.1290
     62 H27        -2.4879   -4.1714  -10.2606 H         1 <0>         0.0569
     63 H28        -3.5672   -3.5036  -11.5085 H         1 <0>         0.0595
     64 H29        -2.0936   -2.6212  -11.0414 H         1 <0>         0.0582
     65 H30        -5.3893   -2.8708   -8.3246 H         1 <0>         0.0592
     66 H31        -5.4918   -3.6494   -9.9220 H         1 <0>         0.0592
     67 H32        -4.4125   -4.3172   -8.6740 H         1 <0>         0.0594
     68 H33        -3.4648   -0.5910  -10.5510 H         1 <0>         0.0581
     69 H34        -4.9384   -1.4734  -11.0181 H         1 <0>         0.0595
     70 H35        -4.8359   -0.6949   -9.4207 H         1 <0>         0.0566
@<TRIPOS>BOND
     1    1    2 1
     2    1   36 1
     3    1   37 1
     4    1   38 1
     5    2    6 2
     6    2    3 1
     7    3    4 2
     8    3    9 1
     9    4    5 1
    10    4    8 1
    11    5    6 1
    12    5    7 1
    13    7   39 1
    14    7   40 1
    15    7   41 1
    16    8   42 1
    17    8   43 1
    18    8   44 1
    19    9   45 1
    20    9   46 1
    21    9   10 1
    22   10   11 1
    23   10   47 1
    24   11   12 1
    25   11   23 2
    26   12   13 1
    27   12   57 1
    28   13   18 ar
    29   13   14 ar
    30   14   15 ar
    31   14   48 1
    32   15   16 ar
    33   15   49 1
    34   16   17 ar
    35   16   21 1
    36   17   18 ar
    37   17   19 1
    38   18   50 1
    39   19   20 1
    40   20   51 1
    41   20   52 1
    42   20   53 1
    43   21   22 1
    44   22   54 1
    45   22   55 1
    46   22   56 1
    47   23   24 1
    48   24   25 2
    49   24   26 1
    50   26   31 ar
    51   26   27 ar
    52   27   28 ar
    53   27   58 1
    54   28   29 ar
    55   28   59 1
    56   29   30 ar
    57   29   32 1
    58   30   31 ar
    59   30   60 1
    60   31   61 1
    61   32   33 1
    62   32   34 1
    63   32   35 1
    64   33   62 1
    65   33   63 1
    66   33   64 1
    67   34   65 1
    68   34   66 1
    69   34   67 1
    70   35   68 1
    71   35   69 1
    72   35   70 1
@<TRIPOS>MOLECULE
ZINC05501127
   53    55     0     0     0
SMALL
USER_CHARGES
2-[(dimethyl-propylsulfanyl-BLAHyl)-(2-hydroxyethyl)amino]ethanol
@<TRIPOS>ATOM
      1 C1          0.6583    0.8886    1.0906 C.3       1 <0>        -0.1463
      2 C2          1.0552    0.4505   -0.3206 C.3       1 <0>        -0.1121
      3 C3          0.1910    1.1880   -1.3454 C.3       1 <0>        -0.1096
      4 S1          0.6605    0.6698   -3.0149 S.3       1 <0>         0.0114
      5 C4         -0.4588    1.6450   -3.9641 C.ar      1 <0>         0.3293
      6 N1         -0.4347    1.5603   -5.2892 N.ar      1 <0>        -0.5432
      7 C5         -1.2534    2.2630   -6.0532 C.ar      1 <0>         0.4363
      8 C6         -2.1861    3.1489   -5.4439 C.ar      1 <0>        -0.1431
      9 C7         -3.1738    4.0190   -6.0798 C.2       1 <0>        -0.0376
     10 C8         -3.9469    4.7693   -5.2660 C.2       1 <0>        -0.2108
     11 S2         -3.4146    4.3690   -3.6259 S.3       1 <0>         0.1233
     12 C9         -2.1516    3.1916   -4.0351 C.ar      1 <0>         0.1310
     13 N2         -1.3060    2.4539   -3.3420 N.ar      1 <0>        -0.4919
     14 C10        -5.0163    5.7259   -5.6945 C.3       1 <0>         0.1471
     15 O1         -4.8690    5.9508   -7.1055 O.3       1 <0>        -0.3621
     16 C11        -4.7282    4.7462   -7.8634 C.3       1 <0>         0.1070
     17 C12        -3.3616    4.1102   -7.5923 C.3       1 <0>        -0.0866
     18 C13        -5.8324    3.7646   -7.4657 C.3       1 <0>        -0.1782
     19 C14        -4.8482    5.0679   -9.3543 C.3       1 <0>        -0.1367
     20 N3         -1.2008    2.1423   -7.4299 N.pl3     1 <0>        -0.4753
     21 C15         0.0638    2.6727   -7.9569 C.3       1 <0>         0.0571
     22 C16         0.0165    4.2019   -7.9529 C.3       1 <0>         0.0742
     23 O2         -0.0647    4.6725   -6.6061 O.3       1 <0>        -0.5685
     24 C17        -1.3997    0.7470   -7.8440 C.3       1 <0>         0.0502
     25 C18        -2.8808    0.3842   -7.7188 C.3       1 <0>         0.0822
     26 O3         -3.6400    1.1516   -8.6551 O.3       1 <0>        -0.5547
     27 H1         -0.3916    0.6515    1.2629 H         1 <0>         0.0582
     28 H2          1.2740    0.3632    1.8207 H         1 <0>         0.0627
     29 H3          0.8099    1.9631    1.1936 H         1 <0>         0.0583
     30 H4          0.9036   -0.6240   -0.4236 H         1 <0>         0.0729
     31 H5          2.1050    0.6875   -0.4928 H         1 <0>         0.0731
     32 H6         -0.8589    0.9510   -1.1732 H         1 <0>         0.0957
     33 H7          0.3426    2.2625   -1.2424 H         1 <0>         0.0961
     34 H8         -5.9976    5.2978   -5.4899 H         1 <0>         0.0777
     35 H9         -4.9056    6.6676   -5.1568 H         1 <0>         0.1112
     36 H10        -3.3269    3.1119   -8.0285 H         1 <0>         0.1303
     37 H11        -2.5752    4.7286   -8.0251 H         1 <0>         0.0816
     38 H12        -6.8031    4.2507   -7.5633 H         1 <0>         0.0645
     39 H13        -5.7955    2.8924   -8.1184 H         1 <0>         0.0695
     40 H14        -5.6852    3.4514   -6.4321 H         1 <0>         0.0590
     41 H15        -4.0174    5.7056   -9.6565 H         1 <0>         0.0619
     42 H16        -4.8232    4.1420   -9.9290 H         1 <0>         0.0759
     43 H17        -5.7895    5.5854   -9.5397 H         1 <0>         0.0642
     44 H18         0.8891    2.3330   -7.3311 H         1 <0>         0.0623
     45 H19         0.2104    2.3163   -8.9765 H         1 <0>         0.1015
     46 H20         0.9191    4.5945   -8.4212 H         1 <0>         0.0534
     47 H21        -0.8578    4.5399   -8.5092 H         1 <0>         0.0602
     48 H22        -0.0982    5.6357   -6.5273 H         1 <0>         0.3782
     49 H23        -1.0825    0.6267   -8.8798 H         1 <0>         0.0965
     50 H24        -0.8095    0.0906   -7.2046 H         1 <0>         0.0739
     51 H25        -3.0136   -0.6775   -7.9268 H         1 <0>         0.0567
     52 H26        -3.2240    0.6020   -6.7075 H         1 <0>         0.0371
     53 H27        -4.5956    1.0188   -8.5895 H         1 <0>         0.3752
@<TRIPOS>BOND
     1    1    2 1
     2    1   27 1
     3    1   28 1
     4    1   29 1
     5    2    3 1
     6    2   30 1
     7    2   31 1
     8    3    4 1
     9    3   32 1
    10    3   33 1
    11    4    5 1
    12    5   13 ar
    13    5    6 ar
    14    6    7 ar
    15    7    8 ar
    16    7   20 1
    17    8   12 ar
    18    8    9 1
    19    9   17 1
    20    9   10 2
    21   10   11 1
    22   10   14 1
    23   11   12 1
    24   12   13 ar
    25   14   15 1
    26   14   34 1
    27   14   35 1
    28   15   16 1
    29   16   17 1
    30   16   18 1
    31   16   19 1
    32   17   36 1
    33   17   37 1
    34   18   38 1
    35   18   39 1
    36   18   40 1
    37   19   41 1
    38   19   42 1
    39   19   43 1
    40   20   21 1
    41   20   24 1
    42   21   22 1
    43   21   44 1
    44   21   45 1
    45   22   23 1
    46   22   46 1
    47   22   47 1
    48   23   48 1
    49   24   25 1
    50   24   49 1
    51   24   50 1
    52   25   26 1
    53   25   51 1
    54   25   52 1
    55   26   53 1
@<TRIPOS>MOLECULE
ZINC16502363
   57    59     0     0     0
SMALL
USER_CHARGES
N'-[2-(4-butylphenyl)acetyl]-1-ethyl-2-methyl-benzimidazole-5-carbohydrazide
@<TRIPOS>ATOM
      1 C1         -1.9575    2.4292    8.5005 C.3       1 <0>        -0.1541
      2 C2         -2.6962    2.9364    7.2604 C.3       1 <0>        -0.1259
      3 C3         -1.9793    2.4425    6.0022 C.3       1 <0>        -0.1136
      4 C4         -2.7180    2.9497    4.7620 C.3       1 <0>        -0.0833
      5 C5         -2.0119    2.4633    3.5227 C.ar      1 <0>        -0.0761
      6 C6         -2.3665    1.2538    2.9550 C.ar      1 <0>        -0.1165
      7 C7         -1.7194    0.8079    1.8177 C.ar      1 <0>        -0.0992
      8 C8         -0.7181    1.5718    1.2479 C.ar      1 <0>        -0.0770
      9 C9         -0.3599    2.7788    1.8186 C.ar      1 <0>        -0.0993
     10 C10        -1.0099    3.2267    2.9534 C.ar      1 <0>        -0.1165
     11 C11        -0.0127    1.0858    0.0080 C.3       1 <0>        -0.0894
     12 C12        -0.7416    1.5850   -1.2129 C.2       1 <0>         0.5154
     13 O1         -1.7359    2.2682   -1.0884 O.2       1 <0>        -0.5273
     14 N1         -0.2884    1.2723   -2.4431 N.am      1 <0>        -0.5236
     15 N2         -0.9661    1.7364   -3.5781 N.am      1 <0>        -0.5213
     16 C13        -0.5129    1.4237   -4.8083 C.2       1 <0>         0.5691
     17 O2          0.4838    0.7389   -4.9330 O.2       1 <0>        -0.5347
     18 C14        -1.2272    1.9129   -6.0047 C.ar      1 <0>        -0.1446
     19 C15        -2.3759    2.7022   -5.8585 C.ar      1 <0>        -0.0742
     20 C16        -3.0446    3.1602   -6.9560 C.ar      1 <0>        -0.1092
     21 C17        -2.5898    2.8463   -8.2322 C.ar      1 <0>         0.0728
     22 C18        -1.4383    2.0551   -8.3973 C.ar      1 <0>         0.0383
     23 C19        -0.7544    1.5936   -7.2736 C.ar      1 <0>         0.0158
     24 N3         -1.2408    1.9178   -9.7345 N.2       1 <0>        -0.4840
     25 C20        -2.1719    2.5566  -10.3801 C.2       1 <0>         0.2869
     26 N4         -3.0293    3.1466   -9.5032 N.pl3     1 <0>        -0.4858
     27 C21        -4.2032    3.9526   -9.8473 C.3       1 <0>         0.1023
     28 C22        -3.7952    5.4222   -9.9684 C.3       1 <0>        -0.1721
     29 C23        -2.2848    2.6324  -11.8809 C.3       1 <0>        -0.0799
     30 H1         -2.4682    2.7811    9.3969 H         1 <0>         0.0540
     31 H2         -1.9434    1.3393    8.4946 H         1 <0>         0.0537
     32 H3         -0.9347    2.8058    8.4936 H         1 <0>         0.0537
     33 H4         -2.7103    4.0263    7.2663 H         1 <0>         0.0616
     34 H5         -3.7190    2.5598    7.2673 H         1 <0>         0.0616
     35 H6         -1.9652    1.3526    5.9962 H         1 <0>         0.0632
     36 H7         -0.9565    2.8192    5.9953 H         1 <0>         0.0632
     37 H8         -2.7321    4.0396    4.7680 H         1 <0>         0.0720
     38 H9         -3.7408    2.5731    4.7689 H         1 <0>         0.0720
     39 H10        -3.1493    0.6573    3.3998 H         1 <0>         0.1216
     40 H11        -1.9965   -0.1370    1.3742 H         1 <0>         0.1203
     41 H12         0.4254    3.3735    1.3759 H         1 <0>         0.1203
     42 H13        -0.7331    4.1718    3.3968 H         1 <0>         0.1216
     43 H14         0.0021   -0.0041    0.0020 H         1 <0>         0.1106
     44 H15         1.0099    1.4631    0.0003 H         1 <0>         0.1106
     45 H16         0.5068    0.7259   -2.5426 H         1 <0>         0.4332
     46 H17        -1.7613    2.2828   -3.4786 H         1 <0>         0.4313
     47 H18        -2.7346    2.9493   -4.8703 H         1 <0>         0.1332
     48 H19        -3.9292    3.7675   -6.8334 H         1 <0>         0.1303
     49 H20         0.1333    0.9891   -7.3871 H         1 <0>         0.1475
     50 H21        -4.6135    3.6100  -10.7972 H         1 <0>         0.0980
     51 H22        -4.9571    3.8480   -9.0670 H         1 <0>         0.0934
     52 H23        -3.0413    5.5268  -10.7487 H         1 <0>         0.0648
     53 H24        -4.6687    6.0219  -10.2244 H         1 <0>         0.0807
     54 H25        -3.3849    5.7649   -9.0185 H         1 <0>         0.0638
     55 H26        -1.7302    3.4978  -12.2438 H         1 <0>         0.0909
     56 H27        -1.8724    1.7253  -12.3226 H         1 <0>         0.0991
     57 H28        -3.3335    2.7291  -12.1620 H         1 <0>         0.0810
@<TRIPOS>BOND
     1    1    2 1
     2    1   30 1
     3    1   31 1
     4    1   32 1
     5    2    3 1
     6    2   33 1
     7    2   34 1
     8    3    4 1
     9    3   35 1
    10    3   36 1
    11    4    5 1
    12    4   37 1
    13    4   38 1
    14    5   10 ar
    15    5    6 ar
    16    6    7 ar
    17    6   39 1
    18    7    8 ar
    19    7   40 1
    20    8    9 ar
    21    8   11 1
    22    9   10 ar
    23    9   41 1
    24   10   42 1
    25   11   12 1
    26   11   43 1
    27   11   44 1
    28   12   13 2
    29   12   14 am
    30   14   15 1
    31   14   45 1
    32   15   16 am
    33   15   46 1
    34   16   17 2
    35   16   18 1
    36   18   23 ar
    37   18   19 ar
    38   19   20 ar
    39   19   47 1
    40   20   21 ar
    41   20   48 1
    42   21   26 1
    43   21   22 ar
    44   22   23 ar
    45   22   24 1
    46   23   49 1
    47   24   25 2
    48   25   26 1
    49   25   29 1
    50   26   27 1
    51   27   28 1
    52   27   50 1
    53   27   51 1
    54   28   52 1
    55   28   53 1
    56   28   54 1
    57   29   55 1
    58   29   56 1
    59   29   57 1
@<TRIPOS>MOLECULE
ZINC32895018
   50    52     0     0     0
SMALL
USER_CHARGES
2-[3-[2-(4-tert-butylphenyl)-2-oxo-ethyl]sulfanyl-5-(2-thienyl)-1,2,4-triazol-4-yl]acetamide
@<TRIPOS>ATOM
      1 C1          2.3444   16.9622   -0.5347 C.3       1 <0>        -0.1421
      2 C2          2.1341   16.1429    0.7403 C.3       1 <0>        -0.0356
      3 C3          0.6558   16.1808    1.1329 C.3       1 <0>        -0.1491
      4 C4          2.9775   16.7344    1.8715 C.3       1 <0>        -0.1419
      5 C5          2.5523   14.7160    0.4952 C.ar      1 <0>        -0.0308
      6 C6          3.8560   14.4346    0.1255 C.ar      1 <0>        -0.1292
      7 C7          4.2464   13.1316   -0.1006 C.ar      1 <0>        -0.0516
      8 C8          3.3212   12.0931    0.0451 C.ar      1 <0>        -0.1724
      9 C9          2.0043   12.3862    0.4137 C.ar      1 <0>        -0.0659
     10 C10         1.6307   13.6938    0.6414 C.ar      1 <0>        -0.1339
     11 C11         3.7296   10.6997   -0.1942 C.2       1 <0>         0.4195
     12 O1          4.8709   10.4496   -0.5186 O.2       1 <0>        -0.4378
     13 C12         2.7294    9.5836   -0.0362 C.3       1 <0>        -0.1712
     14 S1          3.5297    8.0006   -0.3966 S.3       1 <0>         0.0632
     15 C13         2.1722    6.9065   -0.1424 C.2       1 <0>         0.1662
     16 N1          0.9534    7.2464    0.2104 N.2       1 <0>        -0.2836
     17 N2          0.2125    6.2009    0.3066 N.2       1 <0>        -0.2512
     18 C14         0.9137    5.1260    0.0205 C.2       1 <0>         0.2791
     19 N3          2.1929    5.5454   -0.2707 N.pl3     1 <0>        -0.4449
     20 C15         3.3360    4.7083   -0.6433 C.3       1 <0>         0.0772
     21 C16         3.3744    4.5483   -2.1412 C.2       1 <0>         0.5058
     22 O2          2.5301    5.0811   -2.8298 O.2       1 <0>        -0.5222
     23 N4          4.3471    3.8132   -2.7157 N.am      1 <0>        -0.8678
     24 C17         0.4258    3.7375    0.0181 C.2       1 <0>        -0.0985
     25 C18        -0.8658    3.2748    0.0279 C.2       1 <0>        -0.0943
     26 C19        -1.0805    1.9149    0.0167 C.2       1 <0>        -0.1557
     27 C20        -0.0126    1.0758    0.0080 C.2       1 <0>        -0.1506
     28 S2          1.3606    2.2165    0.0010 S.3       1 <0>         0.0524
     29 H1          3.4072   16.9349   -0.8169 H         1 <0>         0.0590
     30 H2          2.0391   18.0037   -0.3558 H         1 <0>         0.0628
     31 H3          1.7380   16.5369   -1.3480 H         1 <0>         0.0586
     32 H4          0.5047   15.5918    2.0495 H         1 <0>         0.0613
     33 H5          0.0494   15.7555    0.3196 H         1 <0>         0.0613
     34 H6          0.3505   17.2223    1.3118 H         1 <0>         0.0621
     35 H7          2.8263   16.1454    2.7881 H         1 <0>         0.0585
     36 H8          2.6722   17.7759    2.0504 H         1 <0>         0.0627
     37 H9          4.0403   16.7071    1.5892 H         1 <0>         0.0590
     38 H10         4.5694   15.2378    0.0134 H         1 <0>         0.1300
     39 H11         5.2641   12.9136   -0.3890 H         1 <0>         0.1351
     40 H12         1.2828   11.5900    0.5235 H         1 <0>         0.1350
     41 H13         0.6152   13.9214    0.9301 H         1 <0>         0.1364
     42 H14         2.3490    9.5755    0.9959 H         1 <0>         0.1374
     43 H15         1.8933    9.7390   -0.7339 H         1 <0>         0.1374
     44 H16         4.2665    5.1851   -0.3015 H         1 <0>         0.1355
     45 H17         3.2358    3.7197   -0.1714 H         1 <0>         0.1262
     46 H18         4.3751    3.6964   -3.8091 H         1 <0>         0.4340
     47 H19         5.1129    3.3300   -2.0912 H         1 <0>         0.4245
     48 H20        -1.6976    3.9637    0.0393 H         1 <0>         0.1485
     49 H21        -2.0858    1.5202    0.0184 H         1 <0>         0.1467
     50 H22         0.0021   -0.0041    0.0020 H         1 <0>         0.1949
@<TRIPOS>BOND
     1    1    2 1
     2    1   29 1
     3    1   30 1
     4    1   31 1
     5    2    3 1
     6    2    4 1
     7    2    5 1
     8    3   32 1
     9    3   33 1
    10    3   34 1
    11    4   35 1
    12    4   36 1
    13    4   37 1
    14    5   10 ar
    15    5    6 ar
    16    6    7 ar
    17    6   38 1
    18    7    8 ar
    19    7   39 1
    20    8    9 ar
    21    8   11 1
    22    9   10 ar
    23    9   40 1
    24   10   41 1
    25   11   12 2
    26   11   13 1
    27   13   14 1
    28   13   42 1
    29   13   43 1
    30   14   15 1
    31   15   19 1
    32   15   16 2
    33   16   17 1
    34   17   18 2
    35   18   19 1
    36   18   24 1
    37   19   20 1
    38   20   21 1
    39   20   44 1
    40   20   45 1
    41   21   22 2
    42   21   23 am
    43   23   46 1
    44   23   47 1
    45   24   28 1
    46   24   25 2
    47   25   26 1
    48   25   48 1
    49   26   27 2
    50   26   49 1
    51   27   28 1
    52   27   50 1
@<TRIPOS>MOLECULE
ZINC22734257
   53    55     0     0     0
SMALL
USER_CHARGES

@<TRIPOS>ATOM
      1 C1         -0.0184    1.5028    0.0103 C.3       1 <0>        -0.1134
      2 C2          0.0021   -0.0041    0.0020 C.ar      1 <0>        -0.0653
      3 C3          0.0057   -0.6864   -1.2055 C.ar      1 <0>        -0.1229
      4 C4          0.0243   -2.0630   -1.2303 C.ar      1 <0>        -0.0623
      5 C5          0.0401   -2.7784   -0.0302 C.ar      1 <0>         0.0508
      6 C6          0.0368   -2.0823    1.1897 C.ar      1 <0>         0.0610
      7 C7          0.0228   -0.6958    1.1957 C.ar      1 <0>        -0.1135
      8 N1          0.0554   -3.0466    2.1841 N.pl3     1 <0>        -0.5816
      9 C8          0.0691   -4.2652    1.5661 C.2       1 <0>         0.2530
     10 N2          0.0600   -4.1044    0.2655 N.2       1 <0>        -0.4923
     11 S1          0.0959   -5.8203    2.3941 S.3       1 <0>         0.0595
     12 C9          0.1053   -7.0347    1.0467 C.3       1 <0>        -0.1023
     13 C10         1.4064   -6.9049    0.2522 C.3       1 <0>        -0.1454
     14 C11         0.0045   -8.4240    1.6219 C.2       1 <0>         0.5373
     15 O1          0.2934   -8.6220    2.7830 O.2       1 <0>        -0.5191
     16 N3         -0.4068   -9.4464    0.8459 N.am      1 <0>        -0.7221
     17 C12        -0.5048  -10.7969    1.4051 C.3       1 <0>         0.1242
     18 C13        -0.9915  -11.7629    0.3229 C.3       1 <0>        -0.0870
     19 C14        -1.0923  -13.1521    0.8981 C.ar      1 <0>        -0.0828
     20 C15        -0.0018  -14.0004    0.8475 C.ar      1 <0>        -0.1080
     21 C16        -0.0892  -15.2758    1.3738 C.ar      1 <0>        -0.1703
     22 C17        -1.2716  -15.7062    1.9540 C.ar      1 <0>         0.1004
     23 C18        -2.3691  -14.8523    2.0053 C.ar      1 <0>         0.1018
     24 C19        -2.2732  -13.5735    1.4803 C.ar      1 <0>        -0.1655
     25 O2         -3.5318  -15.2702    2.5737 O.3       1 <0>        -0.3058
     26 C20        -4.6165  -14.3400    2.5910 C.3       1 <0>         0.0254
     27 O3         -1.3595  -16.9607    2.4717 O.3       1 <0>        -0.3065
     28 C21        -0.1935  -17.7821    2.3833 C.3       1 <0>         0.0255
     29 H1          1.0042    1.8801    0.0026 H         1 <0>         0.0732
     30 H2         -0.5455    1.8639   -0.8728 H         1 <0>         0.0705
     31 H3         -0.5286    1.8543    0.9071 H         1 <0>         0.0670
     32 H4         -0.0065   -0.1338   -2.1334 H         1 <0>         0.1317
     33 H5          0.0263   -2.5879   -2.1741 H         1 <0>         0.1310
     34 H6          0.0244   -0.1585    2.1325 H         1 <0>         0.1244
     35 H7         -0.7430   -6.8522    0.3870 H         1 <0>         0.1247
     36 H8          1.4120   -7.6347   -0.5575 H         1 <0>         0.0725
     37 H9          1.4793   -5.9001   -0.1639 H         1 <0>         0.0906
     38 H10         2.2547   -7.0875    0.9118 H         1 <0>         0.0717
     39 H11        -0.6379   -9.2880   -0.0827 H         1 <0>         0.4047
     40 H12         0.4750  -11.1146    1.7617 H         1 <0>         0.0745
     41 H13        -1.2109  -10.7960    2.2355 H         1 <0>         0.0731
     42 H14        -1.9713  -11.4453   -0.0336 H         1 <0>         0.0807
     43 H15        -0.2854  -11.7638   -0.5074 H         1 <0>         0.0832
     44 H16         0.9204  -13.6661    0.3956 H         1 <0>         0.1284
     45 H17         0.7639  -15.9367    1.3324 H         1 <0>         0.1369
     46 H18        -3.1224  -12.9075    1.5222 H         1 <0>         0.1359
     47 H19        -4.3226  -13.4493    3.1463 H         1 <0>         0.0555
     48 H20        -4.8735  -14.0625    1.5687 H         1 <0>         0.0551
     49 H21        -5.4809  -14.7988    3.0711 H         1 <0>         0.1018
     50 H22        -0.3988  -18.7539    2.8324 H         1 <0>         0.1017
     51 H23         0.0782  -17.9158    1.3363 H         1 <0>         0.0554
     52 H24         0.6294  -17.3032    2.9140 H         1 <0>         0.0557
     53 H25         0.0584   -2.8866    3.1409 H         1 <0>         0.4276
@<TRIPOS>BOND
     1    1    2 1
     2    1   29 1
     3    1   30 1
     4    1   31 1
     5    2    7 ar
     6    2    3 ar
     7    3    4 ar
     8    3   32 1
     9    4    5 ar
    10    4   33 1
    11    5   10 1
    12    5    6 ar
    13    6    7 ar
    14    6    8 1
    15    7   34 1
    16    8    9 1
    17    8   53 1
    18    9   10 2
    19    9   11 1
    20   11   12 1
    21   12   13 1
    22   12   14 1
    23   12   35 1
    24   13   36 1
    25   13   37 1
    26   13   38 1
    27   14   15 2
    28   14   16 am
    29   16   17 1
    30   16   39 1
    31   17   18 1
    32   17   40 1
    33   17   41 1
    34   18   19 1
    35   18   42 1
    36   18   43 1
    37   19   24 ar
    38   19   20 ar
    39   20   21 ar
    40   20   44 1
    41   21   22 ar
    42   21   45 1
    43   22   23 ar
    44   22   27 1
    45   23   24 ar
    46   23   25 1
    47   24   46 1
    48   25   26 1
    49   26   47 1
    50   26   48 1
    51   26   49 1
    52   27   28 1
    53   28   50 1
    54   28   51 1
    55   28   52 1
@<TRIPOS>MOLECULE
ZINC60334851
   55    57     0     0     0
SMALL
USER_CHARGES

@<TRIPOS>ATOM
      1 C1         -1.9816    1.1694    1.6383 C.3       1 <0>        -0.1505
      2 C2         -2.4656    0.1435    0.6117 C.3       1 <0>         0.0749
      3 C3         -3.2842    0.8513   -0.4698 C.3       1 <0>        -0.1831
      4 O1         -1.3386   -0.4987    0.0122 O.3       1 <0>        -0.3057
      5 C4         -1.5383   -1.7388   -0.5051 C.ar      1 <0>         0.1571
      6 C5         -0.4619   -2.4661   -0.9960 C.ar      1 <0>        -0.1504
      7 C6         -0.6606   -3.7247   -1.5216 C.ar      1 <0>        -0.0502
      8 C7         -1.9457   -4.2683   -1.5597 C.ar      1 <0>        -0.0606
      9 C8         -3.0250   -3.5344   -1.0649 C.ar      1 <0>        -0.0265
     10 C9         -2.8176   -2.2784   -0.5364 C.ar      1 <0>        -0.2126
     11 C10        -2.1632   -5.6178   -2.1231 C.2       1 <0>         0.1252
     12 N1         -3.2897   -6.2955   -2.2515 N.2       1 <0>        -0.4665
     13 C11        -3.2410   -7.5051   -2.7935 C.2       1 <0>        -0.0123
     14 C12        -2.0321   -8.0051   -3.1981 C.2       1 <0>        -0.2008
     15 S1         -0.9738   -6.7538   -2.8145 S.3       1 <0>         0.1711
     16 C13        -4.4703   -8.2999   -2.9575 C.2       1 <0>         0.5953
     17 O2         -4.4160   -9.4084   -3.4552 O.2       1 <0>        -0.5333
     18 N2         -5.6553   -7.7987   -2.5561 N.am      1 <0>        -0.7119
     19 C14        -6.8779   -8.5891   -2.7192 C.3       1 <0>         0.1087
     20 C15        -8.0730   -7.7956   -2.1871 C.3       1 <0>         0.1081
     21 N3         -9.2956   -8.5860   -2.3502 N.am      1 <0>        -0.7287
     22 C16       -10.4806   -8.0849   -1.9488 C.2       1 <0>         0.5217
     23 O3        -10.5348   -6.9796   -1.4525 O.2       1 <0>        -0.5339
     24 C17       -11.7383   -8.8980   -2.1166 C.3       1 <0>        -0.1131
     25 C18       -12.0040   -9.1575   -3.6138 C.3       1 <0>        -0.1160
     26 C19       -13.5449   -9.0732   -3.7464 C.3       1 <0>        -0.1247
     27 C20       -13.9086   -7.9203   -2.7780 C.3       1 <0>        -0.1254
     28 C21       -12.9493   -8.1114   -1.5851 C.3       1 <0>        -0.1203
     29 H1         -2.8413    1.6593    2.0956 H         1 <0>         0.0793
     30 H2         -1.3984    0.6651    2.4088 H         1 <0>         0.0663
     31 H3         -1.3603    1.9149    1.1419 H         1 <0>         0.0686
     32 H4         -3.0869   -0.6020    1.1081 H         1 <0>         0.0767
     33 H5         -4.1439    1.3411   -0.0125 H         1 <0>         0.0749
     34 H6         -2.6629    1.5967   -0.9662 H         1 <0>         0.0695
     35 H7         -3.6291    0.1204   -1.2012 H         1 <0>         0.0641
     36 H8          0.5321   -2.0449   -0.9663 H         1 <0>         0.1411
     37 H9          0.1768   -4.2895   -1.9039 H         1 <0>         0.1349
     38 H10        -4.0208   -3.9516   -1.0929 H         1 <0>         0.1381
     39 H11        -3.6517   -1.7114   -0.1499 H         1 <0>         0.1389
     40 H12        -1.8135   -8.9598   -3.6533 H         1 <0>         0.2098
     41 H13        -5.6986   -6.9147   -2.1592 H         1 <0>         0.4128
     42 H14        -7.0297   -8.8098   -3.7757 H         1 <0>         0.0774
     43 H15        -6.7845   -9.5219   -2.1629 H         1 <0>         0.0774
     44 H16        -7.9212   -7.5750   -1.1305 H         1 <0>         0.0761
     45 H17        -8.1664   -6.8629   -2.7433 H         1 <0>         0.0759
     46 H18        -9.2523   -9.4701   -2.7471 H         1 <0>         0.4042
     47 H19       -11.6447   -9.8443   -1.5837 H         1 <0>         0.1003
     48 H20       -11.5261   -8.3915   -4.2245 H         1 <0>         0.0701
     49 H21       -11.6504  -10.1487   -3.8978 H         1 <0>         0.0742
     50 H22       -13.8317   -8.8244   -4.7682 H         1 <0>         0.0699
     51 H23       -14.0115  -10.0058   -3.4293 H         1 <0>         0.0708
     52 H24       -13.7383   -6.9545   -3.2537 H         1 <0>         0.0665
     53 H25       -14.9450   -8.0086   -2.4521 H         1 <0>         0.0685
     54 H26       -13.4439   -8.6763   -0.7950 H         1 <0>         0.0688
     55 H27       -12.6274   -7.1415   -1.2059 H         1 <0>         0.0895
@<TRIPOS>BOND
     1    1    2 1
     2    1   29 1
     3    1   30 1
     4    1   31 1
     5    2    3 1
     6    2    4 1
     7    2   32 1
     8    3   33 1
     9    3   34 1
    10    3   35 1
    11    4    5 1
    12    5   10 ar
    13    5    6 ar
    14    6    7 ar
    15    6   36 1
    16    7    8 ar
    17    7   37 1
    18    8    9 ar
    19    8   11 1
    20    9   10 ar
    21    9   38 1
    22   10   39 1
    23   11   15 1
    24   11   12 2
    25   12   13 1
    26   13   14 2
    27   13   16 1
    28   14   15 1
    29   14   40 1
    30   16   17 2
    31   16   18 am
    32   18   19 1
    33   18   41 1
    34   19   20 1
    35   19   42 1
    36   19   43 1
    37   20   21 1
    38   20   44 1
    39   20   45 1
    40   21   22 am
    41   21   46 1
    42   22   23 2
    43   22   24 1
    44   24   28 1
    45   24   25 1
    46   24   47 1
    47   25   26 1
    48   25   48 1
    49   25   49 1
    50   26   27 1
    51   26   50 1
    52   26   51 1
    53   27   28 1
    54   27   52 1
    55   27   53 1
    56   28   54 1
    57   28   55 1
@<TRIPOS>MOLECULE
ZINC09410475
   70    74     0     0     0
SMALL
USER_CHARGES
2-(dimethyl-oxo-BLAHyl)oxy-N-(2-hydroxyethylcarbamoyl-phenyl-methyl)-acetamide
@<TRIPOS>ATOM
      1 C1          5.9839   -0.8504   -0.0668 C.3       1 <0>        -0.1398
      2 C2          4.7699    0.0235   -0.3882 C.3       1 <0>         0.1096
      3 C3          4.8498    1.3322    0.4082 C.3       1 <0>        -0.1481
      4 C4          3.6831    2.2256   -0.0202 C.3       1 <0>        -0.0695
      5 C5          2.4021    1.4298   -0.0089 C.ar      1 <0>        -0.2134
      6 C6          2.4122    0.0457   -0.0111 C.ar      1 <0>         0.2376
      7 C7          1.2116   -0.6662   -0.0073 C.ar      1 <0>        -0.2679
      8 C8          0.0021   -0.0041    0.0020 C.ar      1 <0>         0.2268
      9 C9         -0.0170    1.4018    0.0097 C.ar      1 <0>        -0.1918
     10 C10         1.1940    2.1150    0.0020 C.ar      1 <0>         0.2204
     11 O1          1.1776    3.4666    0.0058 O.3       1 <0>        -0.2588
     12 C11         0.0165    4.1416    0.0198 C.2       1 <0>         0.5232
     13 O2          0.0335    5.3596    0.0226 O.2       1 <0>        -0.4628
     14 C12        -1.2237    3.4661    0.0318 C.2       1 <0>        -0.2619
     15 C13        -1.2477    2.1091    0.0312 C.2       1 <0>         0.0405
     16 C14        -2.6751    1.6100    0.0411 C.3       1 <0>        -0.0819
     17 C15        -3.5189    2.8225    0.4914 C.3       1 <0>        -0.1204
     18 C16        -2.6362    4.0099    0.0498 C.3       1 <0>        -0.0541
     19 O3         -1.1606   -0.7038    0.0032 O.3       1 <0>        -0.2687
     20 C17        -1.0600   -2.1292   -0.0050 C.3       1 <0>         0.0354
     21 C18        -2.4419   -2.7304   -0.0023 C.2       1 <0>         0.5245
     22 O4         -3.4169   -2.0092    0.0058 O.2       1 <0>        -0.5042
     23 N1         -2.5942   -4.0695   -0.0089 N.am      1 <0>        -0.7075
     24 C19        -3.9376   -4.6539   -0.0063 C.3       1 <0>         0.1764
     25 H1         -4.6040   -4.0301    0.5894 H         1 <0>         0.1253
     26 C20        -4.4537   -4.7331   -1.4200 C.ar      1 <0>        -0.1047
     27 C21        -3.6026   -5.0954   -2.4472 C.ar      1 <0>        -0.0981
     28 C22        -4.0771   -5.1723   -3.7433 C.ar      1 <0>        -0.1172
     29 C23        -5.4005   -4.8779   -4.0135 C.ar      1 <0>        -0.1098
     30 C24        -6.2503   -4.5104   -2.9870 C.ar      1 <0>        -0.1141
     31 C25        -5.7768   -4.4378   -1.6903 C.ar      1 <0>        -0.0997
     32 C26        -3.8820   -6.0383    0.5864 C.2       1 <0>         0.5186
     33 O5         -2.8243   -6.4922    0.9689 O.2       1 <0>        -0.5324
     34 N2         -5.0076   -6.7722    0.6913 N.am      1 <0>        -0.7129
     35 C27        -4.9535   -8.1180    1.2675 C.3       1 <0>         0.1191
     36 C28        -6.3565   -8.7284    1.2702 C.3       1 <0>         0.0619
     37 O6         -6.7991   -8.9111   -0.0762 O.3       1 <0>        -0.5707
     38 O7          3.5732   -0.6589   -0.0130 O.3       1 <0>        -0.2941
     39 C29         4.7387    0.3329   -1.8863 C.3       1 <0>        -0.1788
     40 H2          5.9137   -1.7873   -0.6195 H         1 <0>         0.0700
     41 H3          6.8953   -0.3262   -0.3545 H         1 <0>         0.0825
     42 H4          6.0077   -1.0602    1.0025 H         1 <0>         0.0689
     43 H5          4.7770    1.1187    1.4746 H         1 <0>         0.0807
     44 H6          5.7943    1.8338    0.1975 H         1 <0>         0.0915
     45 H7          3.5953    3.0638    0.6712 H         1 <0>         0.0884
     46 H8          3.8658    2.6031   -1.0263 H         1 <0>         0.0834
     47 H9          1.2302   -1.7461   -0.0112 H         1 <0>         0.1490
     48 H10        -2.7823    0.7896    0.7508 H         1 <0>         0.0975
     49 H11        -2.9745    1.2900   -0.9569 H         1 <0>         0.0964
     50 H12        -3.6567    2.8209    1.5726 H         1 <0>         0.0759
     51 H13        -4.4802    2.8400   -0.0221 H         1 <0>         0.0843
     52 H14        -2.7175    4.8284    0.7650 H         1 <0>         0.0792
     53 H15        -2.9249    4.3463   -0.9460 H         1 <0>         0.0816
     54 H16        -0.5257   -2.4506   -0.8990 H         1 <0>         0.1035
     55 H17        -0.5180   -2.4603    0.8809 H         1 <0>         0.1049
     56 H18        -1.8144   -4.6463   -0.0154 H         1 <0>         0.4133
     57 H19        -2.5678   -5.3218   -2.2367 H         1 <0>         0.1194
     58 H20        -3.4133   -5.4597   -4.5453 H         1 <0>         0.1244
     59 H21        -5.7705   -4.9353   -5.0265 H         1 <0>         0.1245
     60 H22        -7.2842   -4.2804   -3.1980 H         1 <0>         0.1266
     61 H23        -6.4408   -4.1507   -0.8883 H         1 <0>         0.1249
     62 H24        -5.8535   -6.4092    0.3853 H         1 <0>         0.4070
     63 H25        -4.2871   -8.7418    0.6718 H         1 <0>         0.0790
     64 H26        -4.5802   -8.0608    2.2900 H         1 <0>         0.0864
     65 H27        -6.3324   -9.6922    1.7787 H         1 <0>         0.0670
     66 H28        -7.0425   -8.0600    1.7906 H         1 <0>         0.0552
     67 H29        -7.6833   -9.2952   -0.1508 H         1 <0>         0.3849
     68 H30         3.8780    0.9634   -2.1092 H         1 <0>         0.0671
     69 H31         5.6536    0.8537   -2.1688 H         1 <0>         0.0782
     70 H32         4.6623   -0.5981   -2.4480 H         1 <0>         0.0691
@<TRIPOS>BOND
     1    1    2 1
     2    1   40 1
     3    1   41 1
     4    1   42 1
     5    2   38 1
     6    2    3 1
     7    2   39 1
     8    3    4 1
     9    3   43 1
    10    3   44 1
    11    4    5 1
    12    4   45 1
    13    4   46 1
    14    5   10 ar
    15    5    6 ar
    16    6    7 ar
    17    6   38 1
    18    7    8 ar
    19    7   47 1
    20    8    9 ar
    21    8   19 1
    22    9   15 1
    23    9   10 ar
    24   10   11 1
    25   11   12 1
    26   12   13 2
    27   12   14 1
    28   14   18 1
    29   14   15 2
    30   15   16 1
    31   16   17 1
    32   16   48 1
    33   16   49 1
    34   17   18 1
    35   17   50 1
    36   17   51 1
    37   18   52 1
    38   18   53 1
    39   19   20 1
    40   20   21 1
    41   20   54 1
    42   20   55 1
    43   21   22 2
    44   21   23 am
    45   23   24 1
    46   23   56 1
    47   24   25 1
    48   24   26 1
    49   24   32 1
    50   26   31 ar
    51   26   27 ar
    52   27   28 ar
    53   27   57 1
    54   28   29 ar
    55   28   58 1
    56   29   30 ar
    57   29   59 1
    58   30   31 ar
    59   30   60 1
    60   31   61 1
    61   32   33 2
    62   32   34 am
    63   34   35 1
    64   34   62 1
    65   35   36 1
    66   35   63 1
    67   35   64 1
    68   36   37 1
    69   36   65 1
    70   36   66 1
    71   37   67 1
    72   39   68 1
    73   39   69 1
    74   39   70 1
@<TRIPOS>MOLECULE
ZINC14276205
   49    51     0     0     0
SMALL
USER_CHARGES
N-[4-methoxy-3-[(2,3,5,6-tetrafluoro-4-methoxy-benzoyl)carbamothioylamino]phenyl]furan-2-carboxamide
@<TRIPOS>ATOM
      1 C1          5.9705   -1.0991   -0.3018 C.3       1 <0>         0.0267
      2 O1          4.7159   -0.4218   -0.2051 O.3       1 <0>        -0.3199
      3 C2          4.7469    0.9383   -0.2030 C.ar      1 <0>         0.1245
      4 C3          5.9582    1.6040   -0.2974 C.ar      1 <0>        -0.1868
      5 C4          5.9919    2.9855   -0.2891 C.ar      1 <0>        -0.0624
      6 C5          4.8114    3.7107   -0.1925 C.ar      1 <0>         0.1114
      7 C6          3.5949    3.0483   -0.1035 C.ar      1 <0>        -0.0497
      8 C7          3.5601    1.6621   -0.1113 C.ar      1 <0>         0.0980
      9 N1          2.3340    0.9906   -0.0211 N.pl3     1 <0>        -0.6018
     10 C8          1.2959    1.3772   -0.7888 C.2       1 <0>         0.5102
     11 S1          1.4378    2.7612   -1.7864 S.2       1 <0>        -0.4755
     12 N2          0.1461    0.6743   -0.7711 N.am      1 <0>        -0.6335
     13 C9         -0.8901    1.0577   -1.5429 C.2       1 <0>         0.5488
     14 O2         -0.7893    2.0407   -2.2515 O.2       1 <0>        -0.3634
     15 C10        -2.1439    0.2863   -1.5281 C.ar      1 <0>        -0.1599
     16 C11        -3.1563    0.6075   -0.6146 C.ar      1 <0>         0.1434
     17 C12        -4.3330   -0.1156   -0.6095 C.ar      1 <0>         0.0748
     18 C13        -4.5089   -1.1686   -1.5003 C.ar      1 <0>         0.1114
     19 C14        -3.5053   -1.4955   -2.4054 C.ar      1 <0>         0.0749
     20 C15        -2.3269   -0.7753   -2.4237 C.ar      1 <0>         0.1441
     21 F1         -1.3524   -1.0943   -3.3033 F         1 <0>        -0.0942
     22 F2         -3.6829   -2.5198   -3.2682 F         1 <0>        -0.0958
     23 O3         -5.6656   -1.8801   -1.4867 O.3       1 <0>        -0.3076
     24 C16        -5.7139   -3.0234   -0.6308 C.3       1 <0>         0.0279
     25 F3         -5.3125    0.1969    0.2669 F         1 <0>        -0.0960
     26 F4         -2.9840    1.6262    0.2559 F         1 <0>        -0.0950
     27 N3          4.8484    5.1103   -0.1843 N.am      1 <0>        -0.6564
     28 C17         5.7628    5.7646   -0.9275 C.2       1 <0>         0.6090
     29 O4          6.6100    5.1400   -1.5386 O.2       1 <0>        -0.5023
     30 C18         5.7368    7.2288   -0.9999 C.2       1 <0>        -0.0869
     31 C19         6.5995    8.0125   -1.7116 C.2       1 <0>        -0.1093
     32 C20         6.2082    9.3430   -1.4951 C.2       1 <0>        -0.2258
     33 C21         5.1375    9.3136   -0.6713 C.2       1 <0>         0.0024
     34 O5          4.8529    8.0377   -0.3798 O.3       1 <0>        -0.1645
     35 H1          6.5993   -0.8218    0.5442 H         1 <0>         0.0598
     36 H2          5.8036   -2.1762   -0.2928 H         1 <0>         0.1022
     37 H3          6.4656   -0.8160   -1.2307 H         1 <0>         0.0603
     38 H4          6.8776    1.0425   -0.3730 H         1 <0>         0.1411
     39 H5          6.9378    3.5021   -0.3583 H         1 <0>         0.1478
     40 H6          2.6766    3.6118   -0.0287 H         1 <0>         0.1571
     41 H7          2.2322    0.2473    0.5938 H         1 <0>         0.4122
     42 H8          0.0658   -0.1099   -0.2058 H         1 <0>         0.4146
     43 H9         -4.9385   -3.7307   -0.9252 H         1 <0>         0.0592
     44 H10        -5.5493   -2.7123    0.4008 H         1 <0>         0.0592
     45 H11        -6.6909   -3.4995   -0.7153 H         1 <0>         0.1136
     46 H12         4.2160    5.6091    0.3562 H         1 <0>         0.4169
     47 H13         7.4234    7.6741   -2.3224 H         1 <0>         0.1626
     48 H14         6.6753   10.2245   -1.9089 H         1 <0>         0.1596
     49 H15         4.5970   10.1766   -0.3114 H         1 <0>         0.2132
@<TRIPOS>BOND
     1    1    2 1
     2    1   35 1
     3    1   36 1
     4    1   37 1
     5    2    3 1
     6    3    8 ar
     7    3    4 ar
     8    4    5 ar
     9    4   38 1
    10    5    6 ar
    11    5   39 1
    12    6    7 ar
    13    6   27 1
    14    7    8 ar
    15    7   40 1
    16    8    9 1
    17    9   10 1
    18    9   41 1
    19   10   11 2
    20   10   12 1
    21   12   13 am
    22   12   42 1
    23   13   14 2
    24   13   15 1
    25   15   20 ar
    26   15   16 ar
    27   16   17 ar
    28   16   26 1
    29   17   18 ar
    30   17   25 1
    31   18   19 ar
    32   18   23 1
    33   19   20 ar
    34   19   22 1
    35   20   21 1
    36   23   24 1
    37   24   43 1
    38   24   44 1
    39   24   45 1
    40   27   28 am
    41   27   46 1
    42   28   29 2
    43   28   30 1
    44   30   34 1
    45   30   31 2
    46   31   32 1
    47   31   47 1
    48   32   33 2
    49   32   48 1
    50   33   34 1
    51   33   49 1
@<TRIPOS>MOLECULE
ZINC20569009
   54    56     0     0     0
SMALL
USER_CHARGES
O3'-isopropyl O3-(2-methoxyethyl) (4S)-2-amino-6-bromo-2'-methyl-5'-oxo-spiro[1H-quinoline-4,4'-furan]-3,3'-dicarboxylate
@<TRIPOS>ATOM
      1 C1         -0.6449    0.2200    0.6980 C.3       1 <0>        -0.1318
      2 C2         -1.1981    1.0457    1.8309 C.2       1 <0>         0.2160
      3 C3         -1.1949    2.3893    1.8441 C.2       1 <0>        -0.2849
      4 C4         -1.8423    2.7870    3.1533 C.3       1 <0>         0.0791
      5 C5         -3.1042    3.5584    2.8990 C.ar      1 <0>        -0.0929
      6 C6         -4.2305    2.8986    2.4397 C.ar      1 <0>        -0.0509
      7 C7         -5.3983    3.5984    2.1997 C.ar      1 <0>        -0.1121
      8 C8         -5.4475    4.9642    2.4172 C.ar      1 <0>        -0.0494
      9 C9         -4.3285    5.6295    2.8765 C.ar      1 <0>        -0.1496
     10 C10        -3.1542    4.9280    3.1206 C.ar      1 <0>         0.2233
     11 N1         -2.0255    5.6064    3.5896 N.pl3     1 <0>        -0.6602
     12 C11        -0.9982    4.9147    4.1742 C.2       1 <0>         0.5793
     13 C12        -0.8746    3.5594    3.9949 C.2       1 <0>        -0.4047
     14 C13         0.1825    2.8825    4.6148 C.2       1 <0>         0.5410
     15 O1          0.9102    3.4725    5.3940 O.2       1 <0>        -0.5590
     16 O2          0.3958    1.5751    4.3491 O.3       1 <0>        -0.3469
     17 C14         1.4923    0.9478    5.0171 C.3       1 <0>         0.0708
     18 C15         1.5752   -0.5200    4.5936 C.3       1 <0>         0.0595
     19 O3          1.8867   -0.5972    3.2011 O.3       1 <0>        -0.3826
     20 C16         1.9879   -1.9320    2.7012 C.3       1 <0>         0.0252
     21 N2         -0.0839    5.5828    4.9469 N.pl3     1 <0>        -0.8456
     22 Br1        -6.9319    2.6873    1.5721 Br        1 <0>        -0.0417
     23 C17        -2.1632    1.4578    3.8019 C.2       1 <0>         0.5074
     24 O4         -2.6895    1.2771    4.8744 O.2       1 <0>        -0.4048
     25 O5         -1.7413    0.5201    2.9362 O.3       1 <0>        -0.2631
     26 C18        -0.6921    3.2544    0.8400 C.2       1 <0>         0.5580
     27 O6         -0.1966    2.7910   -0.1698 O.2       1 <0>        -0.5146
     28 O7         -0.7630    4.5915    1.0042 O.3       1 <0>        -0.3367
     29 C19        -0.2369    5.4031   -0.0478 C.3       1 <0>         0.0780
     30 C20        -1.3423    5.7027   -1.0623 C.3       1 <0>        -0.1688
     31 C21         0.2894    6.7160    0.5355 C.3       1 <0>        -0.1455
     32 H1         -0.2584    0.8867   -0.0869 H         1 <0>         0.1319
     33 H2         -1.4427   -0.4126    0.2817 H         1 <0>         0.0936
     34 H3          0.1702   -0.4168    1.0724 H         1 <0>         0.1004
     35 H4         -4.1969    1.8329    2.2678 H         1 <0>         0.1289
     36 H5         -6.3606    5.5090    2.2281 H         1 <0>         0.1427
     37 H6         -4.3659    6.6954    3.0466 H         1 <0>         0.1416
     38 H7         -1.9601    6.6999    3.4898 H         1 <0>         0.4428
     39 H8          2.4275    1.4605    4.7478 H         1 <0>         0.0776
     40 H9          1.3416    1.0076    6.1051 H         1 <0>         0.0836
     41 H10         2.3615   -1.0251    5.1738 H         1 <0>         0.0739
     42 H11         0.6088   -1.0108    4.7809 H         1 <0>         0.0629
     43 H12         2.2286   -1.9044    1.6282 H         1 <0>         0.0896
     44 H13         1.0301   -2.4524    2.8488 H         1 <0>         0.0448
     45 H14         2.7829   -2.4667    3.2417 H         1 <0>         0.0427
     46 H15         0.7435    5.0329    5.4192 H         1 <0>         0.4560
     47 H16        -0.1777    6.6688    5.0947 H         1 <0>         0.4086
     48 H17         0.5739    4.8156   -0.5032 H         1 <0>         0.0840
     49 H18        -0.9373    6.3274   -1.8720 H         1 <0>         0.0731
     50 H19        -2.1636    6.2373   -0.5625 H         1 <0>         0.0643
     51 H20        -1.7207    4.7588   -1.4817 H         1 <0>         0.0621
     52 H21         0.6944    7.3407   -0.2743 H         1 <0>         0.0782
     53 H22         1.0841    6.5006    1.2649 H         1 <0>         0.0620
     54 H23        -0.5319    7.2505    1.0352 H         1 <0>         0.0630
@<TRIPOS>BOND
     1    1    2 1
     2    1   32 1
     3    1   33 1
     4    1   34 1
     5    2   25 1
     6    2    3 2
     7    3    4 1
     8    3   26 1
     9    4   13 1
    10    4    5 1
    11    4   23 1
    12    5   10 ar
    13    5    6 ar
    14    6    7 ar
    15    6   35 1
    16    7    8 ar
    17    7   22 1
    18    8    9 ar
    19    8   36 1
    20    9   10 ar
    21    9   37 1
    22   10   11 1
    23   11   12 1
    24   11   38 1
    25   12   13 2
    26   12   21 1
    27   13   14 1
    28   14   15 2
    29   14   16 1
    30   16   17 1
    31   17   18 1
    32   17   39 1
    33   17   40 1
    34   18   19 1
    35   18   41 1
    36   18   42 1
    37   19   20 1
    38   20   43 1
    39   20   44 1
    40   20   45 1
    41   21   46 1
    42   21   47 1
    43   23   24 2
    44   23   25 1
    45   26   27 2
    46   26   28 1
    47   28   29 1
    48   29   30 1
    49   29   31 1
    50   29   48 1
    51   30   49 1
    52   30   50 1
    53   30   51 1
    54   31   52 1
    55   31   53 1
    56   31   54 1
@<TRIPOS>MOLECULE
ZINC35023584
   60    63     0     0     0
SMALL
USER_CHARGES

@<TRIPOS>ATOM
      1 C1          0.0084    1.3779   -0.0309 C.3       1 <0>         0.0256
      2 O1          0.0215   -0.0511   -0.0364 O.3       1 <0>        -0.3111
      3 C2          0.6195   -0.6585   -1.0948 C.ar      1 <0>         0.1450
      4 C3          1.1873    0.1051   -2.1045 C.ar      1 <0>        -0.2110
      5 C4          1.7949   -0.5147   -3.1790 C.ar      1 <0>        -0.0689
      6 C5          1.8377   -1.8951   -3.2488 C.ar      1 <0>        -0.1585
      7 C6          1.2724   -2.6582   -2.2442 C.ar      1 <0>        -0.0606
      8 C7          0.6684   -2.0430   -1.1645 C.ar      1 <0>        -0.1472
      9 C8          0.0578   -2.8755   -0.0667 C.3       1 <0>         0.1734
     10 N1         -1.3920   -2.9536   -0.2620 N.am      1 <0>        -0.7167
     11 C9         -2.1521   -3.6514    0.6051 C.2       1 <0>         0.5105
     12 O2         -1.6359   -4.2147    1.5470 O.2       1 <0>        -0.5305
     13 C10        -3.6435   -3.7318    0.4042 C.3       1 <0>         0.1082
     14 N2         -4.2371   -4.5411    1.4714 N.pl3     1 <0>        -0.7087
     15 C11        -5.6243   -4.7603    1.4978 C.2       1 <0>         0.0397
     16 C12        -6.4407   -4.2229    0.5195 C.2       1 <0>         0.0629
     17 N3         -7.7499   -4.4381    0.5567 N.2       1 <0>        -0.4480
     18 C13        -8.3053   -5.1631    1.5176 C.2       1 <0>         0.3474
     19 C14        -9.7118   -5.3669    1.5167 C.2       1 <0>        -0.1333
     20 C15       -10.2827   -6.1288    2.5286 C.2       1 <0>        -0.0128
     21 C16        -9.4622   -6.6741    3.5191 C.2       1 <0>        -0.1756
     22 C17        -8.1252   -6.4627    3.4937 C.2       1 <0>         0.1202
     23 N4         -7.5457   -5.7191    2.5108 N.am      1 <0>        -0.4233
     24 C18        -6.2076   -5.5350    2.5163 C.2       1 <0>         0.4991
     25 O3         -5.5165   -6.0290    3.3934 O.2       1 <0>        -0.5232
     26 C19       -10.5516   -4.7788    0.4591 C.2       1 <0>         0.5648
     27 O4        -10.0578   -4.0342   -0.3660 O.2       1 <0>        -0.4848
     28 N5        -11.8674   -5.0659    0.4058 N.am      1 <0>        -0.7292
     29 C20       -12.6802   -4.5725   -0.7086 C.3       1 <0>         0.1666
     30 C21       -14.1054   -5.0290   -0.5316 C.ar      1 <0>        -0.1233
     31 C22       -14.5147   -6.2376   -1.0637 C.ar      1 <0>        -0.0698
     32 C23       -15.8213   -6.6575   -0.9016 C.ar      1 <0>        -0.1556
     33 C24       -16.7206   -5.8673   -0.2060 C.ar      1 <0>         0.1083
     34 C25       -16.3096   -4.6571    0.3265 C.ar      1 <0>        -0.1556
     35 C26       -15.0011   -4.2417    0.1677 C.ar      1 <0>        -0.0697
     36 F1        -17.9983   -6.2766   -0.0473 F         1 <0>        -0.1369
     37 H1          1.0326    1.7506   -0.0422 H         1 <0>         0.0571
     38 H2         -0.5198    1.7397   -0.9131 H         1 <0>         0.0574
     39 H3         -0.4977    1.7331    0.8668 H         1 <0>         0.1021
     40 H4          1.1538    1.1833   -2.0506 H         1 <0>         0.1308
     41 H5          2.2367    0.0793   -3.9654 H         1 <0>         0.1275
     42 H6          2.3133   -2.3779   -4.0898 H         1 <0>         0.1277
     43 H7          1.3068   -3.7362   -2.3012 H         1 <0>         0.1323
     44 H8          0.4825   -3.8790   -0.0927 H         1 <0>         0.0779
     45 H9          0.2702   -2.4160    0.8986 H         1 <0>         0.0811
     46 H10        -1.8049   -2.5032   -1.0153 H         1 <0>         0.4035
     47 H11        -4.0682   -2.7283    0.4302 H         1 <0>         0.0947
     48 H12        -3.8559   -4.1913   -0.5611 H         1 <0>         0.0947
     49 H13        -3.6722   -4.9255    2.1599 H         1 <0>         0.4196
     50 H14        -6.0133   -3.6282   -0.2742 H         1 <0>         0.1673
     51 H15       -11.3492   -6.2973    2.5494 H         1 <0>         0.1505
     52 H16        -9.8970   -7.2674    4.3099 H         1 <0>         0.1638
     53 H17        -7.5063   -6.8920    4.2677 H         1 <0>         0.1828
     54 H18       -12.2761   -5.5993    1.1054 H         1 <0>         0.3982
     55 H19       -12.6474   -3.4831   -0.7278 H         1 <0>         0.0824
     56 H20       -12.2870   -4.9644   -1.6466 H         1 <0>         0.0814
     57 H21       -13.8131   -6.8536   -1.6066 H         1 <0>         0.1363
     58 H22       -16.1409   -7.6015   -1.3177 H         1 <0>         0.1385
     59 H23       -17.0103   -4.0398    0.8691 H         1 <0>         0.1386
     60 H24       -14.6792   -3.2998    0.5868 H         1 <0>         0.1365
@<TRIPOS>BOND
     1    1    2 1
     2    1   37 1
     3    1   38 1
     4    1   39 1
     5    2    3 1
     6    3    8 ar
     7    3    4 ar
     8    4    5 ar
     9    4   40 1
    10    5    6 ar
    11    5   41 1
    12    6    7 ar
    13    6   42 1
    14    7    8 ar
    15    7   43 1
    16    8    9 1
    17    9   10 1
    18    9   44 1
    19    9   45 1
    20   10   11 am
    21   10   46 1
    22   11   12 2
    23   11   13 1
    24   13   14 1
    25   13   47 1
    26   13   48 1
    27   14   15 1
    28   14   49 1
    29   15   24 1
    30   15   16 2
    31   16   17 1
    32   16   50 1
    33   17   18 2
    34   18   23 1
    35   18   19 1
    36   19   20 2
    37   19   26 1
    38   20   21 1
    39   20   51 1
    40   21   22 2
    41   21   52 1
    42   22   23 1
    43   22   53 1
    44   23   24 am
    45   24   25 2
    46   26   27 2
    47   26   28 am
    48   28   29 1
    49   28   54 1
    50   29   30 1
    51   29   55 1
    52   29   56 1
    53   30   35 ar
    54   30   31 ar
    55   31   32 ar
    56   31   57 1
    57   32   33 ar
    58   32   58 1
    59   33   34 ar
    60   33   36 1
    61   34   35 ar
    62   34   59 1
    63   35   60 1
@<TRIPOS>MOLECULE
ZINC25570596
   54    58     0     0     0
SMALL
USER_CHARGES

@<TRIPOS>ATOM
      1 C1         -0.0173    1.4248    0.0099 C.3       1 <0>         0.0268
      2 O1          0.0021   -0.0041    0.0020 O.3       1 <0>        -0.3139
      3 C2          0.6258   -0.6184    1.0415 C.ar      1 <0>         0.1674
      4 C3          1.2024    0.1394    2.0513 C.ar      1 <0>        -0.2428
      5 C4          1.8366   -0.4845    3.1083 C.ar      1 <0>        -0.0382
      6 C5          1.8991   -1.8640    3.1627 C.ar      1 <0>        -0.2448
      7 C6          1.3243   -2.6259    2.1556 C.ar      1 <0>         0.1722
      8 C7          0.6818   -2.0022    1.0969 C.ar      1 <0>        -0.1845
      9 O2          1.3861   -3.9824    2.2096 O.3       1 <0>        -0.3026
     10 C8          2.0583   -4.5570    3.3321 C.3       1 <0>         0.1586
     11 C9          2.0266   -6.0596    3.2214 C.2       1 <0>         0.2114
     12 N1          1.1027   -6.8491    3.6914 N.2       1 <0>        -0.2474
     13 N2          1.3876   -8.0726    3.4195 N.2       1 <0>        -0.2800
     14 C10         2.5187   -8.1301    2.7555 C.2       1 <0>         0.1077
     15 N3          2.9592   -6.8466    2.6039 N.pl3     1 <0>        -0.2904
     16 N4          4.0967   -6.4344    1.9698 N.3       1 <0>        -0.5813
     17 S1          3.3145   -9.5873    2.1657 S.3       1 <0>         0.0982
     18 C11         2.2141  -10.9309    2.6897 C.3       1 <0>        -0.0760
     19 C12         2.7855  -12.2516    2.2424 C.2       1 <0>         0.4257
     20 N5          2.1164  -13.3985    2.5259 N.am      1 <0>        -0.6272
     21 H1          1.2789  -13.3522    3.0129 H         1 <0>         0.4254
     22 C13         2.5922  -14.5981    2.1440 C.2       1 <0>         0.5563
     23 O3          1.9790  -15.6187    2.4056 O.2       1 <0>        -0.4995
     24 C14         3.8289  -14.6574    1.4256 C.2       1 <0>        -0.2367
     25 C15         4.5416  -15.8201    0.9099 C.2       1 <0>        -0.0149
     26 C16         5.7108  -15.6289    0.2524 C.2       1 <0>        -0.1779
     27 S2          5.9208  -13.8592    0.2903 S.3       1 <0>         0.1683
     28 C17         4.4488  -13.4216    1.1789 C.2       1 <0>         0.1043
     29 N6          3.9133  -12.2730    1.5839 N.2       1 <0>        -0.4801
     30 C18         3.9975  -17.1856    1.1017 C.ar      1 <0>        -0.0484
     31 C19         3.5871  -17.6041    2.3666 C.ar      1 <0>        -0.0590
     32 C20         3.0810  -18.8763    2.5390 C.ar      1 <0>        -0.1234
     33 C21         2.9805  -19.7357    1.4597 C.ar      1 <0>        -0.1108
     34 C22         3.3861  -19.3260    0.2022 C.ar      1 <0>        -0.1268
     35 C23         3.8889  -18.0544    0.0166 C.ar      1 <0>        -0.1016
     36 H2          1.0053    1.8021    0.0021 H         1 <0>         0.0578
     37 H3         -0.5445    1.7859   -0.8732 H         1 <0>         0.1025
     38 H4         -0.5275    1.7763    0.9067 H         1 <0>         0.0580
     39 H5          1.1554    1.2176    2.0107 H         1 <0>         0.1308
     40 H6          2.2847    0.1068    3.8931 H         1 <0>         0.1302
     41 H7          2.3961   -2.3494    3.9896 H         1 <0>         0.1303
     42 H8          0.2298   -2.5936    0.3143 H         1 <0>         0.1391
     43 H9          3.0934   -4.2158    3.3494 H         1 <0>         0.0917
     44 H10         1.5590   -4.2498    4.2510 H         1 <0>         0.1034
     45 H11         4.8745   -6.3955    2.6113 H         1 <0>         0.3701
     46 H12         4.3071   -7.0287    1.1820 H         1 <0>         0.3820
     47 H13         2.1233  -10.9235    3.7759 H         1 <0>         0.1414
     48 H14         1.2303  -10.7903    2.2419 H         1 <0>         0.1415
     49 H15         6.3600  -16.3708   -0.1885 H         1 <0>         0.2013
     50 H16         3.6655  -16.9341    3.2101 H         1 <0>         0.1163
     51 H17         2.7631  -19.2017    3.5185 H         1 <0>         0.1218
     52 H18         2.5841  -20.7306    1.5994 H         1 <0>         0.1217
     53 H19         3.3053  -20.0013   -0.6368 H         1 <0>         0.1236
     54 H20         4.2015  -17.7342   -0.9663 H         1 <0>         0.1222
@<TRIPOS>BOND
     1    1    2 1
     2    1   36 1
     3    1   37 1
     4    1   38 1
     5    2    3 1
     6    3    8 ar
     7    3    4 ar
     8    4    5 ar
     9    4   39 1
    10    5    6 ar
    11    5   40 1
    12    6    7 ar
    13    6   41 1
    14    7    8 ar
    15    7    9 1
    16    8   42 1
    17    9   10 1
    18   10   11 1
    19   10   43 1
    20   10   44 1
    21   11   15 1
    22   11   12 2
    23   12   13 1
    24   13   14 2
    25   14   15 1
    26   14   17 1
    27   15   16 1
    28   16   45 1
    29   16   46 1
    30   17   18 1
    31   18   19 1
    32   18   47 1
    33   18   48 1
    34   19   29 2
    35   19   20 1
    36   20   21 1
    37   20   22 am
    38   22   23 2
    39   22   24 1
    40   24   28 2
    41   24   25 1
    42   25   26 2
    43   25   30 1
    44   26   27 1
    45   26   49 1
    46   27   28 1
    47   28   29 1
    48   30   35 ar
    49   30   31 ar
    50   31   32 ar
    51   31   50 1
    52   32   33 ar
    53   32   51 1
    54   33   34 ar
    55   33   52 1
    56   34   35 ar
    57   34   53 1
    58   35   54 1
@<TRIPOS>MOLECULE
ZINC09409946
   59    61     0     0     0
SMALL
USER_CHARGES
2-[4,7-dimethyl-5-(2-methylprop-2-enoxy)-2-oxo-chromen-3-yl]-N-[(4-sulfamoylphenyl)methyl]acetamide
@<TRIPOS>ATOM
      1 C1          4.7984    1.2550   -1.0316 C.3       1 <0>        -0.1227
      2 C2          3.5431    2.0418   -0.7554 C.ar      1 <0>         0.0145
      3 C3          3.6288    3.3965   -0.5026 C.ar      1 <0>        -0.1750
      4 C4          2.4797    4.1309   -0.2471 C.ar      1 <0>         0.1918
      5 C5          1.2302    3.4851   -0.2523 C.ar      1 <0>        -0.1873
      6 C6          0.0246    4.2680    0.0228 C.2       1 <0>         0.0669
      7 C7          0.1641    5.5977    0.2644 C.2       1 <0>        -0.2263
      8 C8          1.4474    6.1817    0.2494 C.2       1 <0>         0.5240
      9 O1          1.5589    7.3748    0.4672 O.2       1 <0>        -0.4630
     10 O2          2.5492    5.4566    0.0008 O.3       1 <0>        -0.2653
     11 C9         -1.0489    6.4457    0.5482 C.3       1 <0>        -0.0817
     12 C10        -1.5912    6.9957   -0.7458 C.2       1 <0>         0.5203
     13 O3         -1.0463    6.7256   -1.7952 O.2       1 <0>        -0.5272
     14 N1         -2.6817    7.7876   -0.7370 N.am      1 <0>        -0.7294
     15 C11        -3.2089    8.3223   -1.9950 C.3       1 <0>         0.1535
     16 C12        -4.4219    9.1703   -1.7113 C.ar      1 <0>        -0.0495
     17 C13        -5.6796    8.5966   -1.7026 C.ar      1 <0>        -0.1217
     18 C14        -6.7918    9.3736   -1.4380 C.ar      1 <0>        -0.0187
     19 C15        -6.6473   10.7260   -1.1911 C.ar      1 <0>        -0.6693
     20 C16        -5.3902   11.3007   -1.2049 C.ar      1 <0>        -0.0178
     21 C17        -4.2775   10.5229   -1.4652 C.ar      1 <0>        -0.1209
     22 S1         -8.0655   11.7173   -0.8581 S.o2      1 <0>         2.7012
     23 O4         -9.0679   10.8393   -0.3647 O.2       1 <0>        -0.9613
     24 O5         -7.6098   12.8439   -0.1217 O.2       1 <0>        -0.9608
     25 N2         -8.6133   12.2920   -2.3114 N.pl3     1 <0>        -1.2495
     26 C18        -1.3350    3.6179    0.0327 C.3       1 <0>        -0.1351
     27 C19         1.1560    2.1066   -0.5052 C.ar      1 <0>         0.2022
     28 C20         2.3172    1.3976   -0.7576 C.ar      1 <0>        -0.2369
     29 O6         -0.0452    1.4753   -0.5078 O.3       1 <0>        -0.2948
     30 C21        -0.0401    0.0723   -0.7794 C.3       1 <0>         0.0873
     31 C22        -1.4524   -0.4520   -0.7404 C.2       1 <0>        -0.1443
     32 C23        -2.4465    0.3619   -0.4844 C.2       1 <0>        -0.1767
     33 C24        -1.7212   -1.9127   -0.9959 C.3       1 <0>        -0.1146
     34 H1          5.0012    1.2586   -2.1026 H         1 <0>         0.0837
     35 H2          5.6358    1.7089   -0.5017 H         1 <0>         0.0777
     36 H3          4.6661    0.2283   -0.6904 H         1 <0>         0.0754
     37 H4          4.5918    3.8853   -0.5042 H         1 <0>         0.1468
     38 H5         -1.8125    5.8370    1.0326 H         1 <0>         0.1126
     39 H6         -0.7706    7.2698    1.2050 H         1 <0>         0.1148
     40 H7         -3.1175    8.0036    0.1022 H         1 <0>         0.4041
     41 H8         -2.4453    8.9309   -2.4794 H         1 <0>         0.0834
     42 H9         -3.4872    7.4981   -2.6518 H         1 <0>         0.0833
     43 H10        -5.7928    7.5407   -1.8993 H         1 <0>         0.1377
     44 H11        -7.7740    8.9246   -1.4269 H         1 <0>         0.1467
     45 H12        -5.2772   12.3573   -1.0120 H         1 <0>         0.1470
     46 H13        -3.2953   10.9718   -1.4760 H         1 <0>         0.1385
     47 H14        -8.1520   12.0558   -3.1313 H         1 <0>         0.4171
     48 H15        -9.3955   12.8648   -2.3427 H         1 <0>         0.4223
     49 H16        -1.7110    3.5464   -0.9879 H         1 <0>         0.0925
     50 H17        -1.2570    2.6190    0.4619 H         1 <0>         0.1030
     51 H18        -2.0203    4.2180    0.6312 H         1 <0>         0.0777
     52 H19         2.2673    0.3374   -0.9574 H         1 <0>         0.1412
     53 H20         0.3862   -0.1051   -1.7668 H         1 <0>         0.0793
     54 H21         0.5590   -0.4412   -0.0274 H         1 <0>         0.0794
     55 H22        -3.4586   -0.0138   -0.4564 H         1 <0>         0.1025
     56 H23        -2.2538    1.4087   -0.3013 H         1 <0>         0.1135
     57 H24        -1.1965   -2.5140   -0.2534 H         1 <0>         0.0687
     58 H25        -2.7923   -2.1026   -0.9262 H         1 <0>         0.0708
     59 H26        -1.3693   -2.1779   -1.9928 H         1 <0>         0.0686
@<TRIPOS>BOND
     1    1    2 1
     2    1   34 1
     3    1   35 1
     4    1   36 1
     5    2   28 ar
     6    2    3 ar
     7    3    4 ar
     8    3   37 1
     9    4   10 1
    10    4    5 ar
    11    5    6 1
    12    5   27 ar
    13    6    7 2
    14    6   26 1
    15    7    8 1
    16    7   11 1
    17    8    9 2
    18    8   10 1
    19   11   12 1
    20   11   38 1
    21   11   39 1
    22   12   13 2
    23   12   14 am
    24   14   15 1
    25   14   40 1
    26   15   16 1
    27   15   41 1
    28   15   42 1
    29   16   21 ar
    30   16   17 ar
    31   17   18 ar
    32   17   43 1
    33   18   19 ar
    34   18   44 1
    35   19   20 ar
    36   19   22 1
    37   20   21 ar
    38   20   45 1
    39   21   46 1
    40   22   23 2
    41   22   24 2
    42   22   25 1
    43   25   47 1
    44   25   48 1
    45   26   49 1
    46   26   50 1
    47   26   51 1
    48   27   28 ar
    49   27   29 1
    50   28   52 1
    51   29   30 1
    52   30   31 1
    53   30   53 1
    54   30   54 1
    55   31   32 2
    56   31   33 1
    57   32   55 1
    58   32   56 1
    59   33   57 1
    60   33   58 1
    61   33   59 1
@<TRIPOS>MOLECULE
ZINC14900189
   62    64     0     0     0
SMALL
USER_CHARGES
3-(cyclohexylcarbamoylamino)-N-[[5-(1-piperidylsulfonyl)-2-thienyl]methyl]propanamide
@<TRIPOS>ATOM
      1 C1          6.1098   -7.0089    0.9591 C.2       1 <0>        -0.1642
      2 C2          7.3966   -7.4445    0.7039 C.2       1 <0>        -0.0094
      3 C3          7.8018   -7.5796   -0.5825 C.2       1 <0>        -0.7560
      4 S1          6.3404   -7.0900   -1.4834 S.3       1 <0>         0.1868
      5 C4          5.2912   -6.7297   -0.0846 C.2       1 <0>        -0.1374
      6 C5          3.8638   -6.2467   -0.0684 C.3       1 <0>         0.1995
      7 N1          3.8439   -4.7819   -0.0603 N.am      1 <0>        -0.7308
      8 C6          2.6678   -4.1240   -0.0456 C.2       1 <0>         0.5223
      9 O1          1.6258   -4.7446   -0.0389 O.2       1 <0>        -0.5257
     10 C7          2.6473   -2.6171   -0.0373 C.3       1 <0>        -0.1530
     11 C8          1.1981   -2.1268   -0.0208 C.3       1 <0>         0.1534
     12 N2          1.1783   -0.6620   -0.0127 N.am      1 <0>        -0.7501
     13 C9          0.0021   -0.0041    0.0020 C.2       1 <0>         0.7042
     14 O2         -1.0425   -0.6263    0.0086 O.2       1 <0>        -0.5836
     15 N3         -0.0162    1.3436    0.0094 N.am      1 <0>        -0.7431
     16 C10        -1.2947    2.0587    0.0194 C.3       1 <0>         0.1632
     17 C11        -1.8080    2.2058   -1.4144 C.3       1 <0>        -0.1300
     18 C12        -3.1433    2.9527   -1.4040 C.3       1 <0>        -0.1180
     19 C13        -2.9472    4.3393   -0.7878 C.3       1 <0>        -0.1226
     20 C14        -2.4339    4.1923    0.6460 C.3       1 <0>        -0.1164
     21 C15        -1.0987    3.4453    0.6356 C.3       1 <0>        -0.1259
     22 S2          9.3636   -8.1078   -1.2042 S.o2      1 <0>         2.7212
     23 O3          9.4848   -7.5651   -2.5119 O.2       1 <0>        -0.9446
     24 O4         10.3159   -7.8507   -0.1814 O.2       1 <0>        -0.9438
     25 N4          9.2898   -9.7529   -1.3796 N.pl3     1 <0>        -0.9923
     26 C16         9.6842  -10.6415   -0.2780 C.3       1 <0>         0.1177
     27 C17         8.5309  -11.6180   -0.0013 C.3       1 <0>        -0.1364
     28 C18         8.1656  -12.3470   -1.2964 C.3       1 <0>        -0.1187
     29 C19         7.6962  -11.3313   -2.3404 C.3       1 <0>        -0.1372
     30 C20         8.8346  -10.3515   -2.6418 C.3       1 <0>         0.1174
     31 H1          5.7620   -6.8924    1.9749 H         1 <0>         0.1478
     32 H2          8.0691   -7.6735    1.5173 H         1 <0>         0.1499
     33 H3          3.3635   -6.6218    0.8244 H         1 <0>         0.0998
     34 H4          3.3465   -6.6123   -0.9554 H         1 <0>         0.0914
     35 H5          4.6773   -4.2855   -0.0656 H         1 <0>         0.4057
     36 H6          3.1477   -2.2421   -0.9301 H         1 <0>         0.1039
     37 H7          3.1647   -2.2516    0.8498 H         1 <0>         0.1036
     38 H8          0.6978   -2.5019    0.8720 H         1 <0>         0.0765
     39 H9          0.6808   -2.4923   -0.9079 H         1 <0>         0.0766
     40 H10         2.0116   -0.1656   -0.0180 H         1 <0>         0.3951
     41 H11         0.8172    1.8399    0.0041 H         1 <0>         0.3945
     42 H12        -2.0200    1.4982    0.6092 H         1 <0>         0.0888
     43 H13        -1.0827    2.7663   -2.0043 H         1 <0>         0.0618
     44 H14        -1.9477    1.2179   -1.8535 H         1 <0>         0.0678
     45 H15        -3.8685    2.3922   -0.8142 H         1 <0>         0.0651
     46 H16        -3.5089    3.0575   -2.4255 H         1 <0>         0.0649
     47 H17        -3.8985    4.8714   -0.7804 H         1 <0>         0.0644
     48 H18        -2.2220    4.8998   -1.3776 H         1 <0>         0.0623
     49 H19        -3.1592    3.6317    1.2359 H         1 <0>         0.0659
     50 H20        -2.2943    5.1801    1.0850 H         1 <0>         0.0676
     51 H21        -0.7330    3.3406    1.6571 H         1 <0>         0.0683
     52 H22        -0.3734    4.0058    0.0458 H         1 <0>         0.0672
     53 H23        10.5782  -11.1980   -0.5595 H         1 <0>         0.0801
     54 H24         9.8858  -10.0496    0.6148 H         1 <0>         0.0913
     55 H25         7.6639  -11.0670    0.3631 H         1 <0>         0.0665
     56 H26         8.8429  -12.3442    0.7494 H         1 <0>         0.0773
     57 H27         7.3655  -13.0602   -1.0983 H         1 <0>         0.0662
     58 H28         9.0398  -12.8777   -1.6734 H         1 <0>         0.0668
     59 H29         6.8370  -10.7830   -1.9541 H         1 <0>         0.0670
     60 H30         7.4140  -11.8534   -3.2547 H         1 <0>         0.0783
     61 H31         8.4755   -9.5681   -3.3091 H         1 <0>         0.0911
     62 H32         9.6608  -10.8848   -3.1121 H         1 <0>         0.0801
@<TRIPOS>BOND
     1    1    5 2
     2    1    2 1
     3    1   31 1
     4    2    3 2
     5    2   32 1
     6    3    4 1
     7    3   22 1
     8    4    5 1
     9    5    6 1
    10    6    7 1
    11    6   33 1
    12    6   34 1
    13    7    8 am
    14    7   35 1
    15    8    9 2
    16    8   10 1
    17   10   11 1
    18   10   36 1
    19   10   37 1
    20   11   12 1
    21   11   38 1
    22   11   39 1
    23   12   13 am
    24   12   40 1
    25   13   14 2
    26   13   15 am
    27   15   16 1
    28   15   41 1
    29   16   21 1
    30   16   17 1
    31   16   42 1
    32   17   18 1
    33   17   43 1
    34   17   44 1
    35   18   19 1
    36   18   45 1
    37   18   46 1
    38   19   20 1
    39   19   47 1
    40   19   48 1
    41   20   21 1
    42   20   49 1
    43   20   50 1
    44   21   51 1
    45   21   52 1
    46   22   23 2
    47   22   24 2
    48   22   25 1
    49   25   30 1
    50   25   26 1
    51   26   27 1
    52   26   53 1
    53   26   54 1
    54   27   28 1
    55   27   55 1
    56   27   56 1
    57   28   29 1
    58   28   57 1
    59   28   58 1
    60   29   30 1
    61   29   59 1
    62   29   60 1
    63   30   61 1
    64   30   62 1
@<TRIPOS>MOLECULE
ZINC28947816
   49    51     0     0     0
SMALL
USER_CHARGES
3-[3-[2-[[(1S)-1-(2,4-dichlorophenyl)ethyl]amino]-2-oxo-ethyl]sulfanyl-5-(2-thienyl)-1,2,4-triazol-4-yl]propanamide
@<TRIPOS>ATOM
      1 C1         -2.1258   -6.6648    3.6390 C.3       1 <0>        -0.1594
      2 C2         -2.9177   -5.8249    4.6432 C.3       1 <0>         0.1835
      3 H1         -3.9292   -5.6101    4.2679 H         1 <0>         0.1111
      4 C3         -3.0055   -6.5613    5.9551 C.ar      1 <0>        -0.0780
      5 C4         -2.0668   -6.3281    6.9427 C.ar      1 <0>        -0.0925
      6 C5         -2.1499   -6.9988    8.1482 C.ar      1 <0>        -0.0970
      7 C6         -3.1665   -7.9127    8.3630 C.ar      1 <0>        -0.0249
      8 C7         -4.1028   -8.1507    7.3732 C.ar      1 <0>        -0.0953
      9 C8         -4.0223   -7.4747    6.1687 C.ar      1 <0>        -0.0178
     10 Cl1        -5.1966   -7.7732    4.9255 Cl        1 <0>        -0.0444
     11 Cl2        -3.2671   -8.7600    9.8749 Cl        1 <0>        -0.0509
     12 N1         -2.2410   -4.5418    4.8478 N.am      1 <0>        -0.7322
     13 C9         -2.5046   -3.5031    4.0304 C.2       1 <0>         0.5389
     14 O1         -3.3019   -3.6307    3.1255 O.2       1 <0>        -0.5224
     15 C10        -1.8085   -2.1832    4.2408 C.3       1 <0>        -0.1528
     16 S1         -2.3702   -0.9990    2.9925 S.3       1 <0>         0.0916
     17 C11        -1.4247    0.4118    3.4616 C.2       1 <0>         0.1486
     18 N2         -0.5707    0.4811    4.4573 N.2       1 <0>        -0.2859
     19 N3         -0.0607    1.6588    4.5220 N.2       1 <0>        -0.2541
     20 C12        -0.5541    2.4147    3.5659 C.2       1 <0>         0.2698
     21 N4         -1.4407    1.6369    2.8547 N.pl3     1 <0>        -0.4565
     22 C13        -2.2390    2.0399    1.6942 C.3       1 <0>         0.1123
     23 C14        -1.4497    1.7664    0.4124 C.3       1 <0>        -0.1662
     24 C15        -2.2709    2.1809   -0.7813 C.2       1 <0>         0.5285
     25 O2         -3.3784    2.6490   -0.6224 O.2       1 <0>        -0.5453
     26 N5         -1.7746    2.0314   -2.0254 N.am      1 <0>        -0.8740
     27 C16        -0.2219    3.8246    3.3052 C.2       1 <0>        -0.1072
     28 C17         0.4166    4.7271    4.1179 C.2       1 <0>        -0.0937
     29 C18         0.6230    6.0057    3.6510 C.2       1 <0>        -0.1588
     30 C19         0.1804    6.3375    2.4106 C.2       1 <0>        -0.1539
     31 S2         -0.5517    4.8081    1.8520 S.3       1 <0>         0.0713
     32 H2         -2.0617   -6.1273    2.6814 H         1 <0>         0.0714
     33 H3         -2.6340   -7.6282    3.4854 H         1 <0>         0.0728
     34 H4         -1.1125   -6.8427    4.0282 H         1 <0>         0.0640
     35 H5         -1.2706   -5.6181    6.7738 H         1 <0>         0.1409
     36 H6         -1.4188   -6.8129    8.9210 H         1 <0>         0.1448
     37 H7         -4.8961   -8.8642    7.5403 H         1 <0>         0.1483
     38 H8         -1.5178   -4.4261    5.6685 H         1 <0>         0.4220
     39 H9         -2.0462   -1.7991    5.2438 H         1 <0>         0.1311
     40 H10        -0.7213   -2.3235    4.1501 H         1 <0>         0.1313
     41 H11        -3.1769    1.4653    1.6769 H         1 <0>         0.1167
     42 H12        -2.4680    3.1137    1.7617 H         1 <0>         0.1131
     43 H13        -0.5119    2.3410    0.4297 H         1 <0>         0.1037
     44 H14        -1.2206    0.6926    0.3449 H         1 <0>         0.1093
     45 H15        -2.3740    2.3340   -2.8967 H         1 <0>         0.4282
     46 H16        -0.7701    1.6068   -2.1695 H         1 <0>         0.4230
     47 H17         0.7533    4.4392    5.1028 H         1 <0>         0.1475
     48 H18         1.1263    6.7374    4.2656 H         1 <0>         0.1455
     49 H19         0.2523    7.2837    1.8948 H         1 <0>         0.1940
@<TRIPOS>BOND
     1    1    2 1
     2    1   32 1
     3    1   33 1
     4    1   34 1
     5    2    3 1
     6    2    4 1
     7    2   12 1
     8    4    9 ar
     9    4    5 ar
    10    5    6 ar
    11    5   35 1
    12    6    7 ar
    13    6   36 1
    14    7    8 ar
    15    7   11 1
    16    8    9 ar
    17    8   37 1
    18    9   10 1
    19   12   13 am
    20   12   38 1
    21   13   14 2
    22   13   15 1
    23   15   16 1
    24   15   39 1
    25   15   40 1
    26   16   17 1
    27   17   21 1
    28   17   18 2
    29   18   19 1
    30   19   20 2
    31   20   21 1
    32   20   27 1
    33   21   22 1
    34   22   23 1
    35   22   41 1
    36   22   42 1
    37   23   24 1
    38   23   43 1
    39   23   44 1
    40   24   25 2
    41   24   26 am
    42   26   45 1
    43   26   46 1
    44   27   31 1
    45   27   28 2
    46   28   29 1
    47   28   47 1
    48   29   30 2
    49   29   48 1
    50   30   31 1
    51   30   49 1
@<TRIPOS>MOLECULE
ZINC39974487
   63    66     0     0     0
SMALL
USER_CHARGES

@<TRIPOS>ATOM
      1 C1          2.6204   -0.6644    2.1980 C.3       1 <0>        -0.1766
      2 C2          1.5373   -0.8488    1.1332 C.3       1 <0>         0.1501
      3 H1          0.8884   -1.6790    1.4120 H         1 <0>         0.0762
      4 C3          2.1924   -1.1411   -0.2204 C.3       1 <0>        -0.1280
      5 C4          1.1139   -1.1864   -1.3053 C.3       1 <0>        -0.1205
      6 C5          0.4157    0.1728   -1.3900 C.3       1 <0>        -0.1277
      7 C6         -0.2595    0.4800   -0.0497 C.3       1 <0>         0.1513
      8 H2         -1.0568   -0.2407    0.1315 H         1 <0>         0.0771
      9 N1          0.7422    0.3817    1.0212 N.pl3     1 <0>        -0.9860
     10 S1          0.9737    1.6350    2.0785 S.o2      1 <0>         2.6824
     11 O1          2.2675    1.4596    2.6393 O.2       1 <0>        -0.9528
     12 O2          0.5952    2.8204    1.3923 O.2       1 <0>        -0.9527
     13 C7         -0.1785    1.4255    3.3951 C.ar      1 <0>        -0.6724
     14 C8         -1.4343    1.9982    3.3105 C.ar      1 <0>        -0.0148
     15 C9         -2.3397    1.8359    4.3407 C.ar      1 <0>        -0.0952
     16 C10        -1.9879    1.0962    5.4623 C.ar      1 <0>         0.1839
     17 C11        -0.7260    0.5219    5.5439 C.ar      1 <0>        -0.1434
     18 C12         0.1731    0.6840    4.5081 C.ar      1 <0>        -0.0128
     19 N2         -2.9024    0.9302    6.5076 N.pl3     1 <0>        -0.6329
     20 C13        -4.2008    0.6923    6.2357 C.2       1 <0>         0.5475
     21 S2         -4.7063    0.4512    4.6179 S.2       1 <0>        -0.5782
     22 N3         -5.1012    0.6441    7.2374 N.pl3     1 <0>        -0.6175
     23 C14        -6.4351    0.3237    6.9639 C.ar      1 <0>         0.1288
     24 C15        -7.1253   -0.5494    7.7959 C.ar      1 <0>        -0.1320
     25 C16        -8.4426   -0.8663    7.5264 C.ar      1 <0>        -0.0952
     26 C17        -9.0781   -0.3166    6.4295 C.ar      1 <0>        -0.1102
     27 C18        -8.3936    0.5565    5.5937 C.ar      1 <0>         0.1543
     28 C19        -7.0721    0.8817    5.8650 C.ar      1 <0>        -0.0957
     29 N4         -9.0376    1.1121    4.4826 N.am      1 <0>        -0.6659
     30 C20       -10.3577    1.3793    4.5327 C.2       1 <0>         0.5448
     31 O3        -10.9718    1.2106    5.5650 O.2       1 <0>        -0.5200
     32 C21       -11.0706    1.8876    3.3062 C.3       1 <0>        -0.1991
     33 C22       -11.5755    3.3318    3.3302 C.3       1 <0>        -0.1506
     34 C23       -12.5690    2.1723    3.4273 C.3       1 <0>        -0.1443
     35 C24        -0.8435    1.8938   -0.0817 C.3       1 <0>        -0.1825
     36 H3          2.1595   -0.3504    3.1345 H         1 <0>         0.0701
     37 H4          3.1452   -1.6077    2.3497 H         1 <0>         0.0640
     38 H5          3.3282    0.0962    1.8684 H         1 <0>         0.0935
     39 H6          2.9107   -0.3554   -0.4541 H         1 <0>         0.0698
     40 H7          2.7049   -2.1020   -0.1766 H         1 <0>         0.0763
     41 H8          1.5744   -1.4186   -2.2656 H         1 <0>         0.0670
     42 H9          0.3823   -1.9557   -1.0581 H         1 <0>         0.0645
     43 H10         1.1508    0.9462   -1.6127 H         1 <0>         0.0702
     44 H11        -0.3362    0.1470   -2.1787 H         1 <0>         0.0766
     45 H12        -1.7072    2.5733    2.4381 H         1 <0>         0.1479
     46 H13        -3.3201    2.2840    4.2744 H         1 <0>         0.1522
     47 H14        -0.4493   -0.0539    6.4147 H         1 <0>         0.1359
     48 H15         1.1531    0.2343    4.5691 H         1 <0>         0.1459
     49 H16        -2.6021    0.9865    7.4282 H         1 <0>         0.4126
     50 H17        -4.8243    0.8315    8.1479 H         1 <0>         0.4112
     51 H18        -6.6313   -0.9810    8.6538 H         1 <0>         0.1263
     52 H19        -8.9768   -1.5455    8.1744 H         1 <0>         0.1339
     53 H20       -10.1080   -0.5663    6.2215 H         1 <0>         0.1393
     54 H21        -6.5393    1.5644    5.2196 H         1 <0>         0.1547
     55 H22        -8.5340    1.3049    3.6763 H         1 <0>         0.4157
     56 H23       -10.7078    1.4967    2.3557 H         1 <0>         0.1288
     57 H24       -11.3919    3.9141    4.2331 H         1 <0>         0.1004
     58 H25       -11.5447    3.8913    2.3953 H         1 <0>         0.1078
     59 H26       -13.1919    1.9691    2.5562 H         1 <0>         0.1064
     60 H27       -13.0391    1.9919    4.3940 H         1 <0>         0.1094
     61 H28        -1.6758    1.9272   -0.7848 H         1 <0>         0.0688
     62 H29        -1.1975    2.1633    0.9134 H         1 <0>         0.0652
     63 H30        -0.0734    2.5980   -0.3964 H         1 <0>         0.0966
@<TRIPOS>BOND
     1    1    2 1
     2    1   36 1
     3    1   37 1
     4    1   38 1
     5    2    3 1
     6    2    9 1
     7    2    4 1
     8    4    5 1
     9    4   39 1
    10    4   40 1
    11    5    6 1
    12    5   41 1
    13    5   42 1
    14    6    7 1
    15    6   43 1
    16    6   44 1
    17    7    8 1
    18    7    9 1
    19    7   35 1
    20    9   10 1
    21   10   11 2
    22   10   12 2
    23   10   13 1
    24   13   18 ar
    25   13   14 ar
    26   14   15 ar
    27   14   45 1
    28   15   16 ar
    29   15   46 1
    30   16   17 ar
    31   16   19 1
    32   17   18 ar
    33   17   47 1
    34   18   48 1
    35   19   20 1
    36   19   49 1
    37   20   21 2
    38   20   22 1
    39   22   23 1
    40   22   50 1
    41   23   28 ar
    42   23   24 ar
    43   24   25 ar
    44   24   51 1
    45   25   26 ar
    46   25   52 1
    47   26   27 ar
    48   26   53 1
    49   27   28 ar
    50   27   29 1
    51   28   54 1
    52   29   30 am
    53   29   55 1
    54   30   31 2
    55   30   32 1
    56   32   34 1
    57   32   33 1
    58   32   56 1
    59   33   34 1
    60   33   57 1
    61   33   58 1
    62   34   59 1
    63   34   60 1
    64   35   61 1
    65   35   62 1
    66   35   63 1
@<TRIPOS>MOLECULE
ZINC59875990
   58    61     0     0     0
SMALL
USER_CHARGES

@<TRIPOS>ATOM
      1 C1          4.3121   -3.5398    5.3853 C.3       1 <0>        -0.1067
      2 C2          3.4203   -4.0005    4.2612 C.ar      1 <0>         0.1910
      3 C3          3.7680   -5.1036    3.4970 C.ar      1 <0>        -0.2393
      4 C4          2.9197   -5.4941    2.4724 C.ar      1 <0>         0.1912
      5 N1          1.8107   -4.8070    2.2556 N.ar      1 <0>        -0.5090
      6 C5          1.5072   -3.7565    3.0048 C.ar      1 <0>         0.2909
      7 N2          2.2939   -3.3605    3.9954 N.ar      1 <0>        -0.5212
      8 S1          0.0194   -2.8699    2.6808 S.3       1 <0>         0.1051
      9 C6         -0.0565   -1.6771    3.9755 C.ar      1 <0>        -0.1538
     10 C7          0.4288   -0.3924    3.7657 C.ar      1 <0>        -0.0327
     11 C8          0.3693    0.5419    4.7801 C.ar      1 <0>        -0.1556
     12 C9         -0.1753    0.1976    6.0103 C.ar      1 <0>         0.1794
     13 C10        -0.6601   -1.0867    6.2204 C.ar      1 <0>        -0.1309
     14 C11        -0.6068   -2.0195    5.2042 C.ar      1 <0>        -0.0337
     15 N3         -0.2352    1.1460    7.0399 N.am      1 <0>        -0.6785
     16 C12        -0.0670    0.7616    8.3208 C.2       1 <0>         0.5126
     17 O1          0.0525   -0.4150    8.5902 O.2       1 <0>        -0.5131
     18 C13        -0.0274    1.7937    9.4181 C.3       1 <0>        -0.1388
     19 C14         0.1719    1.0977   10.7660 C.3       1 <0>        -0.1046
     20 C15         0.2121    2.1455   11.8801 C.3       1 <0>        -0.1186
     21 C16         0.4115    1.4495   13.2279 C.3       1 <0>        -0.1026
     22 C17         0.4516    2.4974   14.3421 C.3       1 <0>        -0.0417
     23 H1         -0.4344    3.1315   14.3120 H         1 <0>         0.1127
     24 C18         0.6088    1.8300   15.7253 C.3       1 <0>         0.1220
     25 H2         -0.3671    1.7104   16.1958 H         1 <0>         0.1081
     26 C19         1.5575    2.5793   16.6657 C.3       1 <0>         0.1219
     27 H3          1.0429    2.8319   17.5927 H         1 <0>         0.1072
     28 C20         2.1761    3.8481   16.0407 C.3       1 <0>        -0.0841
     29 S2          1.9931    3.5076   14.2462 S.3       1 <0>        -0.2712
     30 N4          2.6332    1.6116   16.9335 N.am      1 <0>        -0.7337
     31 C21         2.3751    0.4769   16.2688 C.2       1 <0>         0.7041
     32 O2          3.1026   -0.4964   16.3104 O.2       1 <0>        -0.5820
     33 N5          1.2511    0.5170   15.5554 N.am      1 <0>        -0.7267
     34 C22         3.2575   -6.6870    1.6156 C.3       1 <0>        -0.1068
     35 H4          4.0238   -4.0440    6.3077 H         1 <0>         0.0867
     36 H5          5.3486   -3.7801    5.1485 H         1 <0>         0.0823
     37 H6          4.2089   -2.4622    5.5127 H         1 <0>         0.0813
     38 H7          4.6801   -5.6468    3.6953 H         1 <0>         0.1475
     39 H8          0.8530   -0.1248    2.8092 H         1 <0>         0.1347
     40 H9          0.7466    1.5406    4.6171 H         1 <0>         0.1324
     41 H10        -1.0829   -1.3545    7.1775 H         1 <0>         0.1444
     42 H11        -0.9883   -3.0168    5.3661 H         1 <0>         0.1313
     43 H12        -0.3976    2.0791    6.8309 H         1 <0>         0.4139
     44 H13         0.7981    2.4827    9.2394 H         1 <0>         0.0989
     45 H14        -0.9664    2.3472    9.4304 H         1 <0>         0.0987
     46 H15        -0.6536    0.4088   10.9447 H         1 <0>         0.0726
     47 H16         1.1109    0.5442   10.7537 H         1 <0>         0.0729
     48 H17         1.0376    2.8345   11.7013 H         1 <0>         0.0700
     49 H18        -0.7268    2.6990   11.8924 H         1 <0>         0.0671
     50 H19        -0.4141    0.7606   13.4067 H         1 <0>         0.0800
     51 H20         1.3504    0.8960   13.2157 H         1 <0>         0.0828
     52 H21         1.6066    4.7365   16.3137 H         1 <0>         0.1052
     53 H22         3.2231    3.9538   16.3249 H         1 <0>         0.1175
     54 H23         3.4048    1.7695   17.4997 H         1 <0>         0.4321
     55 H24         0.9107   -0.2104   15.0115 H         1 <0>         0.4326
     56 H25         2.8328   -7.5864    2.0613 H         1 <0>         0.0875
     57 H26         2.8437   -6.5460    0.6171 H         1 <0>         0.0844
     58 H27         4.3405   -6.7913    1.5487 H         1 <0>         0.0826
@<TRIPOS>BOND
     1    1    2 1
     2    1   35 1
     3    1   36 1
     4    1   37 1
     5    2    7 ar
     6    2    3 ar
     7    3    4 ar
     8    3   38 1
     9    4    5 ar
    10    4   34 1
    11    5    6 ar
    12    6    7 ar
    13    6    8 1
    14    8    9 1
    15    9   14 ar
    16    9   10 ar
    17   10   11 ar
    18   10   39 1
    19   11   12 ar
    20   11   40 1
    21   12   13 ar
    22   12   15 1
    23   13   14 ar
    24   13   41 1
    25   14   42 1
    26   15   16 am
    27   15   43 1
    28   16   17 2
    29   16   18 1
    30   18   19 1
    31   18   44 1
    32   18   45 1
    33   19   20 1
    34   19   46 1
    35   19   47 1
    36   20   21 1
    37   20   48 1
    38   20   49 1
    39   21   22 1
    40   21   50 1
    41   21   51 1
    42   22   23 1
    43   22   29 1
    44   22   24 1
    45   24   25 1
    46   24   33 1
    47   24   26 1
    48   26   27 1
    49   26   28 1
    50   26   30 1
    51   28   29 1
    52   28   52 1
    53   28   53 1
    54   30   31 am
    55   30   54 1
    56   31   32 2
    57   31   33 am
    58   33   55 1
    59   34   56 1
    60   34   57 1
    61   34   58 1
@<TRIPOS>MOLECULE
ZINC06547969
   51    53     0     0     0
SMALL
USER_CHARGES
ethyl 5-carbamoyl-2-[2-[4-(2-furyl)-6-(trifluoromethyl)pyrimidin-2-yl]sulfanylacetyl]amino-4-methyl-thiophene-3-carboxylate
@<TRIPOS>ATOM
      1 C1          1.4178    1.9774   -0.0009 C.3       1 <0>        -0.1538
      2 C2         -0.0176    1.4478    0.0100 C.3       1 <0>         0.0579
      3 O1          0.0021   -0.0041    0.0020 O.3       1 <0>        -0.3488
      4 C3         -1.1909   -0.6325    0.0100 C.2       1 <0>         0.5310
      5 O2         -2.2195    0.0158    0.0233 O.2       1 <0>        -0.4868
      6 C4         -1.2478   -2.0986    0.0027 C.2       1 <0>        -0.2148
      7 C5         -1.2590   -2.8218    1.1861 C.2       1 <0>         0.0254
      8 C6         -1.3186   -4.1858    1.0967 C.2       1 <0>        -0.2967
      9 S1         -1.3457   -4.4629   -0.6641 S.3       1 <0>         0.2969
     10 C7         -1.2868   -2.8151   -1.1982 C.2       1 <0>         0.0999
     11 N1         -1.2793   -2.3290   -2.4911 N.am      1 <0>        -0.6080
     12 C8         -1.3223   -3.1834   -3.5325 C.2       1 <0>         0.5330
     13 O3         -1.3675   -4.3790   -3.3344 O.2       1 <0>        -0.4766
     14 C9         -1.3141   -2.6531   -4.9431 C.3       1 <0>        -0.1635
     15 S2         -1.3790   -4.0368   -6.1082 S.3       1 <0>         0.1362
     16 C10        -1.3580   -3.1540   -7.6330 C.ar      1 <0>         0.2979
     17 N2         -1.3894   -3.8309   -8.7705 N.ar      1 <0>        -0.4691
     18 C11        -1.3802   -3.1913   -9.9405 C.ar      1 <0>         0.2947
     19 C12        -1.3252   -1.7912   -9.9472 C.ar      1 <0>        -0.1751
     20 C13        -1.2882   -1.1284   -8.7353 C.ar      1 <0>         0.1152
     21 N3         -1.3057   -1.8294   -7.6116 N.ar      1 <0>        -0.5007
     22 C14        -1.2291    0.3769   -8.6925 C.3       1 <0>         0.5266
     23 F1         -1.0859    0.8005   -7.3669 F         1 <0>        -0.1571
     24 F2         -0.1370    0.8223   -9.4449 F         1 <0>        -0.1616
     25 F3         -2.4096    0.9053   -9.2259 F         1 <0>        -0.1615
     26 C15        -1.4212   -3.9458  -11.2077 C.2       1 <0>        -0.0181
     27 C16        -1.4701   -5.3005  -11.3297 C.2       1 <0>        -0.1121
     28 C17        -1.4980   -5.5825  -12.7083 C.2       1 <0>        -0.2230
     29 C18        -1.4573   -4.3996  -13.3548 C.2       1 <0>         0.0057
     30 O4         -1.4110   -3.4139  -12.4458 O.3       1 <0>        -0.1644
     31 C19        -1.3468   -5.1727    2.1782 C.2       1 <0>         0.6159
     32 O5         -1.3222   -4.8051    3.3384 O.2       1 <0>        -0.5247
     33 N4         -1.4000   -6.4880    1.8891 N.am      1 <0>        -0.8480
     34 C20        -1.2126   -2.1293    2.5237 C.3       1 <0>        -0.1165
     35 H1          1.9450    1.6163    0.8822 H         1 <0>         0.0690
     36 H2          1.9280    1.6258   -0.8977 H         1 <0>         0.0672
     37 H3          1.4030    3.0672    0.0051 H         1 <0>         0.0830
     38 H4         -0.5448    1.8089   -0.8731 H         1 <0>         0.0722
     39 H5         -0.5278    1.7993    0.9068 H         1 <0>         0.0741
     40 H6         -1.2431   -1.3727   -2.6495 H         1 <0>         0.4274
     41 H7         -2.1808   -2.0098   -5.0944 H         1 <0>         0.1405
     42 H8         -0.4023   -2.0797   -5.1104 H         1 <0>         0.1408
     43 H9         -1.3116   -1.2430  -10.8776 H         1 <0>         0.1683
     44 H10        -1.4867   -6.0199  -10.5243 H         1 <0>         0.1644
     45 H11        -1.5407   -6.5613  -13.1627 H         1 <0>         0.1611
     46 H12        -1.4609   -4.2676  -14.4267 H         1 <0>         0.2162
     47 H13        -1.4196   -6.7810    0.9646 H         1 <0>         0.4002
     48 H14        -1.4187   -7.1417    2.6055 H         1 <0>         0.4118
     49 H15        -2.2282   -1.9222    2.8610 H         1 <0>         0.0839
     50 H16        -0.7130   -2.7721    3.2485 H         1 <0>         0.1016
     51 H17        -0.6631   -1.1927    2.4291 H         1 <0>         0.0628
@<TRIPOS>BOND
     1    1    2 1
     2    1   35 1
     3    1   36 1
     4    1   37 1
     5    2    3 1
     6    2   38 1
     7    2   39 1
     8    3    4 1
     9    4    5 2
    10    4    6 1
    11    6   10 2
    12    6    7 1
    13    7    8 2
    14    7   34 1
    15    8    9 1
    16    8   31 1
    17    9   10 1
    18   10   11 1
    19   11   12 am
    20   11   40 1
    21   12   13 2
    22   12   14 1
    23   14   15 1
    24   14   41 1
    25   14   42 1
    26   15   16 1
    27   16   21 ar
    28   16   17 ar
    29   17   18 ar
    30   18   19 ar
    31   18   26 1
    32   19   20 ar
    33   19   43 1
    34   20   21 ar
    35   20   22 1
    36   22   23 1
    37   22   24 1
    38   22   25 1
    39   26   30 1
    40   26   27 2
    41   27   28 1
    42   27   44 1
    43   28   29 2
    44   28   45 1
    45   29   30 1
    46   29   46 1
    47   31   32 2
    48   31   33 am
    49   33   47 1
    50   33   48 1
    51   34   49 1
    52   34   50 1
    53   34   51 1
@<TRIPOS>MOLECULE
ZINC13616912
   58    60     0     0     0
SMALL
USER_CHARGES
4-[4-(2,4-dichlorophenoxy)butanoylcarbamothioylamino]-N-[[(2R)-tetrahydrofuran-2-yl]methyl]benzamide
@<TRIPOS>ATOM
      1 C1         -5.4465    1.7359   -2.3917 C.ar      1 <0>        -0.0780
      2 C2         -6.7364    1.2558   -2.3673 C.ar      1 <0>        -0.1275
      3 C3         -6.9739   -0.0926   -2.1183 C.ar      1 <0>         0.1474
      4 C4         -5.9089   -0.9608   -1.8984 C.ar      1 <0>        -0.0809
      5 C5         -4.6164   -0.4882   -1.9272 C.ar      1 <0>        -0.0479
      6 C6         -4.3743    0.8654   -2.1771 C.ar      1 <0>        -0.1275
      7 C7         -2.9899    1.3757   -2.2082 C.2       1 <0>         0.5587
      8 O1         -2.0584    0.6182   -2.0163 O.2       1 <0>        -0.5338
      9 N1         -2.7582    2.6813   -2.4492 N.am      1 <0>        -0.7213
     10 C8         -1.3839    3.1878   -2.4801 C.3       1 <0>         0.1224
     11 C9         -1.4003    4.6897   -2.7713 C.3       1 <0>         0.0632
     12 H1         -1.9692    5.2102   -2.0009 H         1 <0>         0.0768
     13 C10         0.0419    5.2311   -2.8134 C.3       1 <0>        -0.1497
     14 C11         0.1762    5.8431   -4.2291 C.3       1 <0>        -0.1561
     15 C12        -1.3044    6.0753   -4.6243 C.3       1 <0>         0.0461
     16 O2         -1.9864    4.9342   -4.0608 O.3       1 <0>        -0.3725
     17 N2         -8.2811   -0.5744   -2.0894 N.pl3     1 <0>        -0.6233
     18 C13        -8.6541   -1.4545   -1.1392 C.2       1 <0>         0.5044
     19 S1         -7.5663   -1.8723    0.1150 S.2       1 <0>        -0.4728
     20 N3         -9.8834   -2.0057   -1.1764 N.am      1 <0>        -0.6426
     21 C14       -10.2563   -2.8858   -0.2262 C.2       1 <0>         0.4852
     22 O3         -9.4859   -3.1817    0.6621 O.2       1 <0>        -0.3972
     23 C15       -11.6309   -3.5022   -0.2678 C.3       1 <0>        -0.1318
     24 C16       -11.7973   -4.4578    0.9154 C.3       1 <0>        -0.1085
     25 C17       -13.1929   -5.0836    0.8732 C.3       1 <0>         0.0574
     26 O4        -13.3483   -5.9761    1.9783 O.3       1 <0>        -0.2952
     27 C18       -14.5408   -6.6196    2.0889 C.ar      1 <0>         0.1473
     28 C19       -15.5399   -6.3962    1.1532 C.ar      1 <0>        -0.1878
     29 C20       -16.7510   -7.0509    1.2672 C.ar      1 <0>        -0.0636
     30 C21       -16.9684   -7.9293    2.3141 C.ar      1 <0>        -0.0638
     31 C22       -15.9738   -8.1538    3.2492 C.ar      1 <0>        -0.0629
     32 C23       -14.7580   -7.5053    3.1353 C.ar      1 <0>        -0.0606
     33 Cl1       -13.5070   -7.7932    4.3039 Cl        1 <0>        -0.0386
     34 Cl2       -18.4914   -8.7505    2.4545 Cl        1 <0>        -0.0557
     35 H2         -5.2630    2.7833   -2.5807 H         1 <0>         0.1322
     36 H3         -7.5651    1.9270   -2.5379 H         1 <0>         0.1326
     37 H4         -6.0966   -2.0067   -1.7054 H         1 <0>         0.1467
     38 H5         -3.7903   -1.1626   -1.7565 H         1 <0>         0.1438
     39 H6         -3.5013    3.2856   -2.6023 H         1 <0>         0.4035
     40 H7         -0.8242    2.6725   -3.2606 H         1 <0>         0.0771
     41 H8         -0.9094    3.0099   -1.5150 H         1 <0>         0.0833
     42 H9          0.1841    5.9974   -2.0514 H         1 <0>         0.0817
     43 H10         0.7578    4.4203   -2.6787 H         1 <0>         0.0842
     44 H11         0.7222    6.7858   -4.1951 H         1 <0>         0.0828
     45 H12         0.6562    5.1421   -4.9119 H         1 <0>         0.0793
     46 H13        -1.6781    7.0007   -4.1860 H         1 <0>         0.0625
     47 H14        -1.4139    6.0940   -5.7086 H         1 <0>         0.0948
     48 H15        -8.9227   -0.2765   -2.7531 H         1 <0>         0.4091
     49 H16       -10.4998   -1.7691   -1.8870 H         1 <0>         0.4116
     50 H17       -12.3836   -2.7160   -0.2085 H         1 <0>         0.1038
     51 H18       -11.7539   -4.0534   -1.2001 H         1 <0>         0.1040
     52 H19       -11.0447   -5.2440    0.8561 H         1 <0>         0.0896
     53 H20       -11.6744   -3.9066    1.8477 H         1 <0>         0.0894
     54 H21       -13.9456   -4.2974    0.9325 H         1 <0>         0.0686
     55 H22       -13.3159   -5.6347   -0.0591 H         1 <0>         0.0687
     56 H23       -15.3710   -5.7110    0.3356 H         1 <0>         0.1465
     57 H24       -17.5289   -6.8772    0.5384 H         1 <0>         0.1436
     58 H25       -16.1453   -8.8397    4.0655 H         1 <0>         0.1514
@<TRIPOS>BOND
     1    1    6 ar
     2    1    2 ar
     3    1   35 1
     4    2    3 ar
     5    2   36 1
     6    3    4 ar
     7    3   17 1
     8    4    5 ar
     9    4   37 1
    10    5    6 ar
    11    5   38 1
    12    6    7 1
    13    7    8 2
    14    7    9 am
    15    9   10 1
    16    9   39 1
    17   10   11 1
    18   10   40 1
    19   10   41 1
    20   11   12 1
    21   11   16 1
    22   11   13 1
    23   13   14 1
    24   13   42 1
    25   13   43 1
    26   14   15 1
    27   14   44 1
    28   14   45 1
    29   15   16 1
    30   15   46 1
    31   15   47 1
    32   17   18 1
    33   17   48 1
    34   18   19 2
    35   18   20 1
    36   20   21 am
    37   20   49 1
    38   21   22 2
    39   21   23 1
    40   23   24 1
    41   23   50 1
    42   23   51 1
    43   24   25 1
    44   24   52 1
    45   24   53 1
    46   25   26 1
    47   25   54 1
    48   25   55 1
    49   26   27 1
    50   27   32 ar
    51   27   28 ar
    52   28   29 ar
    53   28   56 1
    54   29   30 ar
    55   29   57 1
    56   30   31 ar
    57   30   34 1
    58   31   32 ar
    59   31   58 1
    60   32   33 1
@<TRIPOS>MOLECULE
ZINC19202753
   59    62     0     0     0
SMALL
USER_CHARGES
N-(6-amino-1-benzyl-2,4-dioxo-pyrimidin-5-yl)-N-butyl-2-[2-(3-thienyl)thiazol-4-yl]acetamide
@<TRIPOS>ATOM
      1 C1          7.1589    6.7999    2.3988 C.3       1 <0>        -0.1551
      2 C2          7.0500    5.2752    2.3324 C.3       1 <0>        -0.1213
      3 C3          5.5760    4.8670    2.3722 C.3       1 <0>        -0.1374
      4 C4          5.4671    3.3423    2.3058 C.3       1 <0>         0.1012
      5 N1          4.0557    2.9514    2.3440 N.am      1 <0>        -0.5303
      6 C5          3.3576    2.7108    1.1417 C.2       1 <0>        -0.1496
      7 C6          3.6976    1.6448    0.3340 C.2       1 <0>         0.4880
      8 N2          3.0015    1.4388   -0.8343 N.am      1 <0>        -0.5358
      9 C7          1.9946    2.2611   -1.1808 C.2       1 <0>         0.7141
     10 O1          1.3887    2.0595   -2.2157 O.2       1 <0>        -0.5411
     11 N3          1.6462    3.3020   -0.4040 N.am      1 <0>        -0.6756
     12 H1          0.8198    3.9619   -0.7068 H         1 <0>         0.4596
     13 C8          2.2989    3.5507    0.7482 C.2       1 <0>         0.5672
     14 O2          1.9749    4.4974    1.4452 O.2       1 <0>        -0.5110
     15 C9          3.3547    0.3137   -1.7036 C.3       1 <0>         0.1482
     16 C10         4.3935    0.7567   -2.7015 C.ar      1 <0>        -0.1247
     17 C11         4.0028    1.2712   -3.9236 C.ar      1 <0>        -0.0862
     18 C12         4.9556    1.6821   -4.8370 C.ar      1 <0>        -0.1197
     19 C13         6.2992    1.5686   -4.5325 C.ar      1 <0>        -0.1058
     20 C14         6.6900    1.0492   -3.3125 C.ar      1 <0>        -0.1211
     21 C15         5.7371    0.6433   -2.3970 C.ar      1 <0>        -0.1031
     22 N4          4.7224    0.8014    0.6907 N.pl3     1 <0>        -0.8593
     23 C16         3.4234    2.8215    3.5289 C.2       1 <0>         0.5226
     24 O3          2.2334    2.5873    3.5590 O.2       1 <0>        -0.4905
     25 C17         4.1954    2.9674    4.8149 C.3       1 <0>        -0.0698
     26 C18         3.2638    2.7787    5.9843 C.2       1 <0>         0.0804
     27 C19         3.5404    1.8445    6.9298 C.2       1 <0>        -0.2059
     28 S1          2.1465    2.0633    8.0287 S.3       1 <0>         0.0008
     29 C20         1.3437    3.3675    7.1061 C.2       1 <0>         0.1845
     30 N5          2.1797    3.5145    6.0872 N.2       1 <0>        -0.4703
     31 C21         0.0871    4.0878    7.3999 C.2       1 <0>        -0.0614
     32 C22        -0.6602    3.7850    8.5362 C.2       1 <0>        -0.1430
     33 C23        -1.8033    4.4661    8.7703 C.2       1 <0>        -0.1685
     34 S2         -1.8747    5.5794    7.3774 S.3       1 <0>         0.0734
     35 C24        -0.3683    5.0731    6.5648 C.2       1 <0>        -0.1051
     36 H2          8.2186    7.0934    2.3702 H         1 <0>         0.0550
     37 H3          6.7039    7.1596    3.3335 H         1 <0>         0.0553
     38 H4          6.6324    7.2428    1.5405 H         1 <0>         0.0543
     39 H5          7.5050    4.9155    1.3977 H         1 <0>         0.0615
     40 H6          7.5765    4.8323    3.1907 H         1 <0>         0.0635
     41 H7          5.1210    5.2268    3.3069 H         1 <0>         0.0682
     42 H8          5.0495    5.3099    1.5139 H         1 <0>         0.0697
     43 H9          5.9220    2.9826    1.3711 H         1 <0>         0.0803
     44 H10         5.9936    2.8993    3.1640 H         1 <0>         0.0822
     45 H11         3.7588   -0.5079   -1.0939 H         1 <0>         0.0988
     46 H12         2.4576   -0.0328   -2.2376 H         1 <0>         0.1211
     47 H13         2.9531    1.3557   -4.1632 H         1 <0>         0.1329
     48 H14         4.6503    2.0875   -5.7903 H         1 <0>         0.1266
     49 H15         7.0436    1.8855   -5.2479 H         1 <0>         0.1252
     50 H16         7.7397    0.9603   -3.0747 H         1 <0>         0.1254
     51 H17         6.0424    0.2371   -1.4440 H         1 <0>         0.1172
     52 H18         4.9880   -0.0464    0.0421 H         1 <0>         0.4229
     53 H19         5.2770    0.9741    1.6248 H         1 <0>         0.4455
     54 H20         4.9905    2.2083    4.8534 H         1 <0>         0.1077
     55 H21         4.6438    3.9708    4.8616 H         1 <0>         0.1110
     56 H22         4.3726    1.1598    6.9998 H         1 <0>         0.1978
     57 H23        -0.3306    3.0166    9.2199 H         1 <0>         0.1380
     58 H24        -2.4970    4.3634    9.5917 H         1 <0>         0.1934
     59 H25         0.0700    5.4464    5.6511 H         1 <0>         0.1979
@<TRIPOS>BOND
     1    1    2 1
     2    1   36 1
     3    1   37 1
     4    1   38 1
     5    2    3 1
     6    2   39 1
     7    2   40 1
     8    3    4 1
     9    3   41 1
    10    3   42 1
    11    4    5 1
    12    4   43 1
    13    4   44 1
    14    5    6 1
    15    5   23 am
    16    6   13 1
    17    6    7 2
    18    7    8 1
    19    7   22 1
    20    8    9 am
    21    8   15 1
    22    9   10 2
    23    9   11 am
    24   11   12 1
    25   11   13 am
    26   13   14 2
    27   15   16 1
    28   15   45 1
    29   15   46 1
    30   16   21 ar
    31   16   17 ar
    32   17   18 ar
    33   17   47 1
    34   18   19 ar
    35   18   48 1
    36   19   20 ar
    37   19   49 1
    38   20   21 ar
    39   20   50 1
    40   21   51 1
    41   22   52 1
    42   22   53 1
    43   23   24 2
    44   23   25 1
    45   25   26 1
    46   25   54 1
    47   25   55 1
    48   26   30 1
    49   26   27 2
    50   27   28 1
    51   27   56 1
    52   28   29 1
    53   29   30 2
    54   29   31 1
    55   31   35 2
    56   31   32 1
    57   32   33 2
    58   32   57 1
    59   33   34 1
    60   33   58 1
    61   34   35 1
    62   35   59 1
@<TRIPOS>MOLECULE
ZINC39153037
   63    66     0     0     0
SMALL
USER_CHARGES

@<TRIPOS>ATOM
      1 C1          0.2423    1.9030    0.5878 C.3       1 <0>        -0.1540
      2 C2          0.0997    0.3826    0.4926 C.3       1 <0>         0.0604
      3 O1          0.8499   -0.2328    1.5416 O.3       1 <0>        -0.3528
      4 C3          0.8296   -1.5737    1.5996 C.2       1 <0>         0.4691
      5 O2          0.1959   -2.2040    0.7866 O.2       1 <0>        -0.4849
      6 C4          1.5973   -2.2929    2.6786 C.3       1 <0>        -0.0989
      7 H1          1.2351   -1.9704    3.6548 H         1 <0>         0.1327
      8 C5          1.3840   -3.7989    2.5326 C.3       1 <0>        -0.0767
      9 H2          1.2194   -4.0279    1.4797 H         1 <0>         0.1149
     10 C6          2.5713   -4.6397    3.0411 C.3       1 <0>        -0.1269
     11 H3          2.9469   -5.2915    2.2524 H         1 <0>         0.1402
     12 S1          3.8270   -3.3690    3.4868 S.3       1 <0>        -0.1144
     13 C7          3.1078   -1.9492    2.5513 C.3       1 <0>         0.1821
     14 H4          3.4301   -1.9548    1.5101 H         1 <0>         0.1194
     15 N1          3.4211   -0.6721    3.1971 N.am      1 <0>        -0.7031
     16 C8          4.5071   -0.5655    3.9881 C.2       1 <0>         0.5343
     17 O3          5.2250   -1.5268    4.1653 O.2       1 <0>        -0.4774
     18 C9          4.8295    0.7483    4.6523 C.3       1 <0>        -0.1393
     19 S2          6.3389    0.5708    5.6426 S.3       1 <0>         0.0744
     20 C10         6.5785    2.1691    6.3446 C.2       1 <0>         0.2474
     21 H5          8.3166    1.9326    7.4863 H         1 <0>         0.4281
     22 N2          5.7972    3.2027    6.1481 N.2       1 <0>        -0.4944
     23 C11         6.2733    4.2722    6.8379 C.ar      1 <0>         0.0506
     24 C12         5.8401    5.5926    6.9796 C.ar      1 <0>        -0.0622
     25 C13         6.5546    6.4659    7.7694 C.ar      1 <0>        -0.1226
     26 C14         7.7015    6.0445    8.4249 C.ar      1 <0>        -0.0642
     27 C15         8.1427    4.7432    8.2951 C.ar      1 <0>        -0.1138
     28 C16         7.4358    3.8505    7.5047 C.ar      1 <0>         0.0619
     29 N3          7.6033    2.5142    7.1798 N.pl3     1 <0>        -0.5809
     30 C17         8.4715    7.0139    9.2842 C.3       1 <0>        -0.1139
     31 C18         2.1729   -5.4459    4.2503 C.2       1 <0>         0.5476
     32 O4          1.7598   -6.5782    4.1150 O.2       1 <0>        -0.5089
     33 N4          2.2758   -4.9088    5.4822 N.am      1 <0>        -0.6656
     34 C19         2.0087   -5.6912    6.6111 C.ar      1 <0>         0.1466
     35 C20         2.3125   -7.0463    6.6063 C.ar      1 <0>        -0.1216
     36 C21         2.0477   -7.8158    7.7221 C.ar      1 <0>        -0.0995
     37 C22         1.4807   -7.2384    8.8434 C.ar      1 <0>        -0.1351
     38 C23         1.1766   -5.8894    8.8512 C.ar      1 <0>        -0.0999
     39 C24         1.4446   -5.1132    7.7408 C.ar      1 <0>        -0.1456
     40 C25         0.1338   -4.1957    3.3203 C.3       1 <0>        -0.1592
     41 H6          1.2931    2.1761    0.4915 H         1 <0>         0.0683
     42 H7         -0.3300    2.3724   -0.2123 H         1 <0>         0.0828
     43 H8         -0.1347    2.2436    1.5522 H         1 <0>         0.0687
     44 H9         -0.9511    0.1095    0.5889 H         1 <0>         0.0711
     45 H10         0.4767    0.0421   -0.4718 H         1 <0>         0.0712
     46 H11         2.8470    0.0968    3.0554 H         1 <0>         0.4203
     47 H12         4.9825    1.5127    3.8905 H         1 <0>         0.1317
     48 H13         4.0026    1.0407    5.2995 H         1 <0>         0.1321
     49 H14         4.9480    5.9276    6.4713 H         1 <0>         0.1311
     50 H15         6.2193    7.4867    7.8786 H         1 <0>         0.1322
     51 H16         9.0370    4.4213    8.8080 H         1 <0>         0.1249
     52 H17         8.0919    6.9751   10.3052 H         1 <0>         0.0736
     53 H18         9.5277    6.7445    9.2787 H         1 <0>         0.0674
     54 H19         8.3519    8.0231    8.8901 H         1 <0>         0.0708
     55 H20         2.5348   -3.9799    5.5861 H         1 <0>         0.4159
     56 H21         2.7551   -7.4980    5.7307 H         1 <0>         0.1332
     57 H22         2.2834   -8.8698    7.7189 H         1 <0>         0.1258
     58 H23         1.2746   -7.8423    9.7147 H         1 <0>         0.1234
     59 H24         0.7334   -5.4415    9.7283 H         1 <0>         0.1261
     60 H25         1.2116   -4.0586    7.7493 H         1 <0>         0.1240
     61 H26        -0.7251   -3.6412    2.9420 H         1 <0>         0.0685
     62 H27        -0.0444   -5.2648    3.2048 H         1 <0>         0.0806
     63 H28         0.2801   -3.9636    4.3752 H         1 <0>         0.0625
@<TRIPOS>BOND
     1    1    2 1
     2    1   41 1
     3    1   42 1
     4    1   43 1
     5    2    3 1
     6    2   44 1
     7    2   45 1
     8    3    4 1
     9    4    5 2
    10    4    6 1
    11    6    7 1
    12    6   13 1
    13    6    8 1
    14    8    9 1
    15    8   10 1
    16    8   40 1
    17   10   11 1
    18   10   12 1
    19   10   31 1
    20   12   13 1
    21   13   14 1
    22   13   15 1
    23   15   16 am
    24   15   46 1
    25   16   17 2
    26   16   18 1
    27   18   19 1
    28   18   47 1
    29   18   48 1
    30   19   20 1
    31   20   22 2
    32   20   29 1
    33   21   29 1
    34   22   23 1
    35   23   24 ar
    36   23   28 ar
    37   24   25 ar
    38   24   49 1
    39   25   26 ar
    40   25   50 1
    41   26   27 ar
    42   26   30 1
    43   27   28 ar
    44   27   51 1
    45   28   29 1
    46   30   52 1
    47   30   53 1
    48   30   54 1
    49   31   32 2
    50   31   33 am
    51   33   34 1
    52   33   55 1
    53   34   39 ar
    54   34   35 ar
    55   35   36 ar
    56   35   56 1
    57   36   37 ar
    58   36   57 1
    59   37   38 ar
    60   37   58 1
    61   38   39 ar
    62   38   59 1
    63   39   60 1
    64   40   61 1
    65   40   62 1
    66   40   63 1
@<TRIPOS>MOLECULE
ZINC59006104
   52    55     0     0     0
SMALL
USER_CHARGES

@<TRIPOS>ATOM
      1 C1          3.7446    1.0905    0.1069 C.ar      1 <0>        -0.1143
      2 C2          5.1004    1.1765    0.3640 C.ar      1 <0>        -0.0979
      3 C3          5.8421    0.0262    0.5551 C.ar      1 <0>        -0.1103
      4 C4          5.2274   -1.2118    0.4896 C.ar      1 <0>        -0.0194
      5 C5          3.8708   -1.2972    0.2329 C.ar      1 <0>        -0.0725
      6 C6          3.1301   -0.1458    0.0414 C.ar      1 <0>        -0.0876
      7 C7          3.2008   -2.6451    0.1610 C.3       1 <0>        -0.0663
      8 S1          2.6099   -3.1154    1.8103 S.3       1 <0>        -0.1068
      9 C8          1.8616   -4.6911    1.5617 C.ar      1 <0>        -0.1163
     10 C9          1.8471   -5.2631    0.2973 C.ar      1 <0>        -0.1124
     11 C10         1.2600   -6.4994    0.1051 C.ar      1 <0>        -0.1159
     12 C11         0.6855   -7.1697    1.1697 C.ar      1 <0>        -0.0994
     13 C12         0.6954   -6.6076    2.4327 C.ar      1 <0>        -0.1130
     14 C13         1.2871   -5.3703    2.6364 C.ar      1 <0>         0.1694
     15 N1          1.3029   -4.8012    3.9169 N.am      1 <0>        -0.6599
     16 C14         1.2228   -5.5906    5.0063 C.2       1 <0>         0.5395
     17 O1          1.2380   -6.7972    4.8834 O.2       1 <0>        -0.4952
     18 C15         1.1141   -4.9742    6.3772 C.3       1 <0>        -0.1653
     19 S2          1.0243   -6.2875    7.6253 S.3       1 <0>         0.1205
     20 C16         0.9024   -5.4168    9.1523 C.2       1 <0>         0.2160
     21 N2          0.8172   -5.9791   10.3626 N.2       1 <0>        -0.5152
     22 C17         0.7408   -5.0403   11.2827 C.2       1 <0>         0.5602
     23 N3          0.7769   -3.8427   10.6601 N.pl3     1 <0>        -0.5016
     24 N4          0.8862   -4.1120    9.2864 N.2       1 <0>        -0.3208
     25 N5          0.6412   -5.2448   12.6461 N.pl3     1 <0>        -0.5468
     26 N6          0.6147   -6.5484   13.1588 N.2       1 <0>        -0.1863
     27 C18         0.5210   -6.7409   14.4421 C.2       1 <0>         0.1320
     28 C19         0.4933   -8.1052   14.9787 C.2       1 <0>         0.0169
     29 C20         0.3928   -8.4466   16.2961 C.2       1 <0>        -0.1585
     30 C21         0.4027   -9.8530   16.3516 C.2       1 <0>        -0.2196
     31 C22         0.5073  -10.2991   15.0836 C.2       1 <0>        -0.0119
     32 O2          0.5567   -9.2417   14.2565 O.3       1 <0>        -0.1549
     33 Cl1         6.1585   -2.6573    0.7290 Cl        1 <0>        -0.0561
     34 H1          3.1646    1.9900   -0.0383 H         1 <0>         0.1336
     35 H2          5.5801    2.1428    0.4150 H         1 <0>         0.1354
     36 H3          6.9012    0.0935    0.7551 H         1 <0>         0.1373
     37 H4          2.0710   -0.2123   -0.1594 H         1 <0>         0.1356
     38 H5          2.3566   -2.5949   -0.5268 H         1 <0>         0.1030
     39 H6          3.9153   -3.3875   -0.1944 H         1 <0>         0.1049
     40 H7          2.2941   -4.7421   -0.5364 H         1 <0>         0.1258
     41 H8          1.2494   -6.9432   -0.8794 H         1 <0>         0.1281
     42 H9          0.2274   -8.1352    1.0138 H         1 <0>         0.1311
     43 H10         0.2454   -7.1339    3.2615 H         1 <0>         0.1527
     44 H11         1.3715   -3.8390    4.0192 H         1 <0>         0.4149
     45 H12         1.9892   -4.3525    6.5664 H         1 <0>         0.1271
     46 H13         0.2145   -4.3610    6.4296 H         1 <0>         0.1279
     47 H14         0.5896   -4.4858   13.2479 H         1 <0>         0.4023
     48 H15         0.4635   -5.8958   15.1121 H         1 <0>         0.1496
     49 H16         0.3198   -7.7689   17.1338 H         1 <0>         0.1569
     50 H17         0.3389  -10.4605   17.2423 H         1 <0>         0.1554
     51 H18         0.5416  -11.3356   14.7821 H         1 <0>         0.2086
     52 H19         0.7379   -2.9689   11.0794 H         1 <0>         0.4395
@<TRIPOS>BOND
     1    1    6 ar
     2    1    2 ar
     3    1   34 1
     4    2    3 ar
     5    2   35 1
     6    3    4 ar
     7    3   36 1
     8    4    5 ar
     9    4   33 1
    10    5    6 ar
    11    5    7 1
    12    6   37 1
    13    7    8 1
    14    7   38 1
    15    7   39 1
    16    8    9 1
    17    9   14 ar
    18    9   10 ar
    19   10   11 ar
    20   10   40 1
    21   11   12 ar
    22   11   41 1
    23   12   13 ar
    24   12   42 1
    25   13   14 ar
    26   13   43 1
    27   14   15 1
    28   15   16 am
    29   15   44 1
    30   16   17 2
    31   16   18 1
    32   18   19 1
    33   18   45 1
    34   18   46 1
    35   19   20 1
    36   20   24 2
    37   20   21 1
    38   21   22 2
    39   22   23 1
    40   22   25 1
    41   23   24 1
    42   23   52 1
    43   25   26 1
    44   25   47 1
    45   26   27 2
    46   27   28 1
    47   27   48 1
    48   28   32 1
    49   28   29 2
    50   29   30 1
    51   29   49 1
    52   30   31 2
    53   30   50 1
    54   31   32 1
    55   31   51 1
@<TRIPOS>MOLECULE
ZINC11614599
   58    61     0     0     0
SMALL
USER_CHARGES
N'-benzyl-N-[[5-(benzylamino)-4-cyano-oxazol-2-yl]methyl]phthalamide
@<TRIPOS>ATOM
      1 C1          0.7075   -4.9493   -0.0612 C.ar      1 <0>        -0.1041
      2 C2          0.7981   -4.2559   -1.2537 C.ar      1 <0>        -0.1211
      3 C3          1.0122   -2.8903   -1.2445 C.ar      1 <0>        -0.0959
      4 C4          1.1362   -2.2181   -0.0429 C.ar      1 <0>        -0.1214
      5 C5          1.0512   -2.9124    1.1494 C.ar      1 <0>        -0.0960
      6 C6          0.8314   -4.2772    1.1403 C.ar      1 <0>        -0.1214
      7 C7          1.3700   -0.7294   -0.0330 C.3       1 <0>         0.1572
      8 N1          0.0815   -0.0328   -0.0088 N.pl3     1 <0>        -0.6742
      9 C8          0.0429    1.3458    0.0040 C.2       1 <0>         0.3456
     10 C9         -1.0893    2.1425    0.0212 C.2       1 <0>        -0.0563
     11 N2         -0.6591    3.4359    0.0318 N.2       1 <0>        -0.3884
     12 C10         0.6384    3.4422    0.0135 C.2       1 <0>         0.1547
     13 O1          1.0984    2.1806   -0.0038 O.3       1 <0>        -0.2039
     14 C11         1.4995    4.6790    0.0115 C.3       1 <0>         0.2303
     15 N3          1.7985    5.0681    1.3919 N.am      1 <0>        -0.7271
     16 C12         2.5591    6.1535    1.6363 C.2       1 <0>         0.5553
     17 O2          2.9970    6.8095    0.7116 O.2       1 <0>        -0.4952
     18 C13         2.8611    6.5465    3.0304 C.ar      1 <0>        -0.0931
     19 C14         2.2588    5.8777    4.0925 C.ar      1 <0>        -0.0882
     20 C15         2.5473    6.2454    5.3932 C.ar      1 <0>        -0.1073
     21 C16         3.4259    7.2833    5.6489 C.ar      1 <0>        -0.0936
     22 C17         4.0291    7.9619    4.6068 C.ar      1 <0>        -0.0974
     23 C18         3.7541    7.6021    3.2904 C.ar      1 <0>        -0.0697
     24 C19         4.3969    8.3257    2.1714 C.2       1 <0>         0.5631
     25 O3          5.0275    7.7119    1.3332 O.2       1 <0>        -0.4984
     26 N4          4.2830    9.6657    2.0816 N.am      1 <0>        -0.7227
     27 C20         4.9194   10.3823    0.9736 C.3       1 <0>         0.1647
     28 C21         4.6427   11.8578    1.1048 C.ar      1 <0>        -0.1099
     29 C22         3.5245   12.4072    0.5060 C.ar      1 <0>        -0.0994
     30 C23         3.2678   13.7598    0.6308 C.ar      1 <0>        -0.1215
     31 C24         4.1353   14.5649    1.3451 C.ar      1 <0>        -0.1120
     32 C25         5.2566   14.0165    1.9390 C.ar      1 <0>        -0.1223
     33 C26         5.5102   12.6629    1.8191 C.ar      1 <0>        -0.1014
     34 C27        -2.4493    1.6942    0.0296 C.1       1 <0>         0.2995
     35 N5         -3.5282    1.3386    0.0363 N.1       1 <0>        -0.4033
     36 H1          0.5395   -6.0161   -0.0684 H         1 <0>         0.1264
     37 H2          0.7013   -4.7810   -2.1924 H         1 <0>         0.1274
     38 H3          1.0830   -2.3485   -2.1761 H         1 <0>         0.1262
     39 H4          1.1525   -2.3880    2.0880 H         1 <0>         0.1259
     40 H5          0.7603   -4.8188    2.0719 H         1 <0>         0.1272
     41 H6          1.9216   -0.4422   -0.9282 H         1 <0>         0.0844
     42 H7          1.9464   -0.4581    0.8515 H         1 <0>         0.0840
     43 H8         -0.7446   -0.5412   -0.0018 H         1 <0>         0.4319
     44 H9          2.4299    4.4731   -0.5176 H         1 <0>         0.1041
     45 H10         0.9693    5.4900   -0.4879 H         1 <0>         0.1182
     46 H11         1.4490    4.5446    2.1299 H         1 <0>         0.4030
     47 H12         1.5689    5.0694    3.9001 H         1 <0>         0.1322
     48 H13         2.0809    5.7222    6.2149 H         1 <0>         0.1356
     49 H14         3.6415    7.5650    6.6690 H         1 <0>         0.1361
     50 H15         4.7133    8.7714    4.8138 H         1 <0>         0.1365
     51 H16         3.7797   10.1556    2.7506 H         1 <0>         0.3998
     52 H17         5.9955   10.2106    1.0003 H         1 <0>         0.0762
     53 H18         4.5171   10.0198    0.0276 H         1 <0>         0.0795
     54 H19         2.8491   11.7790   -0.0558 H         1 <0>         0.1248
     55 H20         2.3916   14.1882    0.1670 H         1 <0>         0.1244
     56 H21         3.9367   15.6223    1.4394 H         1 <0>         0.1233
     57 H22         5.9343   14.6455    2.4971 H         1 <0>         0.1241
     58 H23         6.3862   12.2344    2.2831 H         1 <0>         0.1239
@<TRIPOS>BOND
     1    1    6 ar
     2    1    2 ar
     3    1   36 1
     4    2    3 ar
     5    2   37 1
     6    3    4 ar
     7    3   38 1
     8    4    5 ar
     9    4    7 1
    10    5    6 ar
    11    5   39 1
    12    6   40 1
    13    7    8 1
    14    7   41 1
    15    7   42 1
    16    8    9 1
    17    8   43 1
    18    9   13 1
    19    9   10 2
    20   10   11 1
    21   10   34 1
    22   11   12 2
    23   12   13 1
    24   12   14 1
    25   14   15 1
    26   14   44 1
    27   14   45 1
    28   15   16 am
    29   15   46 1
    30   16   17 2
    31   16   18 1
    32   18   23 ar
    33   18   19 ar
    34   19   20 ar
    35   19   47 1
    36   20   21 ar
    37   20   48 1
    38   21   22 ar
    39   21   49 1
    40   22   23 ar
    41   22   50 1
    42   23   24 1
    43   24   25 2
    44   24   26 am
    45   26   27 1
    46   26   51 1
    47   27   28 1
    48   27   52 1
    49   27   53 1
    50   28   33 ar
    51   28   29 ar
    52   29   30 ar
    53   29   54 1
    54   30   31 ar
    55   30   55 1
    56   31   32 ar
    57   31   56 1
    58   32   33 ar
    59   32   57 1
    60   33   58 1
    61   34   35 3
@<TRIPOS>MOLECULE
ZINC20168618
   57    59     0     0     0
SMALL
USER_CHARGES
ethyl 2-[[(E)-3-[1-(2-amino-2-oxo-ethyl)indol-3-yl]-2-cyano-prop-2-enoyl]amino]-5-isopropyl-thiophene-3-carboxylate
@<TRIPOS>ATOM
      1 C1        -12.9758    7.5350   -0.6765 C.3       1 <0>        -0.1549
      2 C2        -11.6120    6.8517   -0.5576 C.3       1 <0>         0.0608
      3 O1        -10.5661    7.8587   -0.5403 O.3       1 <0>        -0.3491
      4 C3         -9.2947    7.4194   -0.4390 C.2       1 <0>         0.5384
      5 O2         -9.0673    6.2266   -0.3671 O.2       1 <0>        -0.5349
      6 C4         -8.1887    8.3782   -0.4155 C.2       1 <0>        -0.2503
      7 C5         -8.4178    9.8019   -0.4941 C.2       1 <0>        -0.0878
      8 C6         -7.3360   10.6002   -0.4718 C.2       1 <0>        -0.2067
      9 S1         -5.9812    9.4525   -0.3359 S.3       1 <0>         0.2437
     10 C7         -6.8646    7.9634   -0.3121 C.2       1 <0>         0.1335
     11 N1         -6.3723    6.6726   -0.2188 N.am      1 <0>        -0.6268
     12 C8         -5.0439    6.4627   -0.1310 C.2       1 <0>         0.5781
     13 O3         -4.2770    7.4076   -0.1338 O.2       1 <0>        -0.5014
     14 C9         -4.5221    5.0945   -0.0322 C.2       1 <0>        -0.1967
     15 C10        -3.1576    4.8789    0.0580 C.2       1 <0>         0.1544
     16 C11        -2.6451    3.5635    0.0026 C.2       1 <0>        -0.2165
     17 C12        -3.2984    2.4365   -0.4589 C.2       1 <0>         0.1437
     18 N2         -2.4842    1.3684   -0.3538 N.pl3     1 <0>        -0.4387
     19 C13        -1.2616    1.7356    0.1723 C.ar      1 <0>         0.0895
     20 C14        -1.3029    3.1156    0.4254 C.ar      1 <0>        -0.0627
     21 C15        -0.1956    3.7606    0.9671 C.ar      1 <0>        -0.0779
     22 C16         0.9406    3.0367    1.2595 C.ar      1 <0>        -0.1247
     23 C17         0.9819    1.6723    1.0158 C.ar      1 <0>        -0.0992
     24 C18        -0.1082    1.0213    0.4795 C.ar      1 <0>        -0.1125
     25 C19        -2.8443    0.0048   -0.7501 C.3       1 <0>         0.0741
     26 C20        -3.3491   -0.7510    0.4520 C.2       1 <0>         0.4976
     27 O4         -3.4028   -0.2044    1.5334 O.2       1 <0>        -0.5250
     28 N3         -3.7410   -2.0343    0.3255 N.am      1 <0>        -0.8723
     29 C21        -5.4244    3.9826   -0.0289 C.1       1 <0>         0.2518
     30 N4         -6.1403    3.1005   -0.0263 N.1       1 <0>        -0.4166
     31 C22        -7.2829   12.1046   -0.5436 C.3       1 <0>        -0.0064
     32 C23        -6.6171   12.6523    0.7204 C.3       1 <0>        -0.1508
     33 C24        -6.4734   12.5283   -1.7709 C.3       1 <0>        -0.1505
     34 H1        -13.7682    6.7722   -0.6896 H         1 <0>         0.0814
     35 H2        -13.0134    8.1188   -1.6080 H         1 <0>         0.0679
     36 H3        -13.1262    8.2052    0.1827 H         1 <0>         0.0680
     37 H4        -11.5744    6.2679    0.3739 H         1 <0>         0.0709
     38 H5        -11.4615    6.1814   -1.4167 H         1 <0>         0.0707
     39 H6         -9.4155   10.2079   -0.5722 H         1 <0>         0.1465
     40 H7         -7.0654    5.8184   -0.2163 H         1 <0>         0.4589
     41 H8         -2.4724    5.7317    0.1728 H         1 <0>         0.1692
     42 H9         -4.3070    2.4153   -0.8446 H         1 <0>         0.1812
     43 H10        -0.2262    4.8232    1.1579 H         1 <0>         0.1320
     44 H11         1.8021    3.5344    1.6798 H         1 <0>         0.1307
     45 H12         1.8770    1.1143    1.2481 H         1 <0>         0.1305
     46 H13        -0.0653   -0.0417    0.2937 H         1 <0>         0.1191
     47 H14        -3.6318    0.0418   -1.5172 H         1 <0>         0.1282
     48 H15        -1.9587   -0.5044   -1.1581 H         1 <0>         0.1273
     49 H16        -4.1095   -2.5859    1.2030 H         1 <0>         0.4315
     50 H17        -3.6924   -2.5301   -0.6552 H         1 <0>         0.4234
     51 H18        -8.3103   12.4896   -0.6220 H         1 <0>         0.0914
     52 H19        -6.5783   13.7504    0.6680 H         1 <0>         0.0647
     53 H20        -5.5953   12.2527    0.7992 H         1 <0>         0.0591
     54 H21        -7.1990   12.3476    1.6027 H         1 <0>         0.0603
     55 H22        -6.4346   13.6264   -1.8233 H         1 <0>         0.0647
     56 H23        -6.9520   12.1345   -2.6796 H         1 <0>         0.0602
     57 H24        -5.4516   12.1287   -1.6920 H         1 <0>         0.0590
@<TRIPOS>BOND
     1    1    2 1
     2    1   34 1
     3    1   35 1
     4    1   36 1
     5    2    3 1
     6    2   37 1
     7    2   38 1
     8    3    4 1
     9    4    5 2
    10    4    6 1
    11    6   10 2
    12    6    7 1
    13    7    8 2
    14    7   39 1
    15    8    9 1
    16    8   31 1
    17    9   10 1
    18   10   11 1
    19   11   12 am
    20   11   40 1
    21   12   13 2
    22   12   14 1
    23   14   15 2
    24   14   29 1
    25   15   16 1
    26   15   41 1
    27   16   20 1
    28   16   17 2
    29   17   18 1
    30   17   42 1
    31   18   19 1
    32   18   25 1
    33   19   24 ar
    34   19   20 ar
    35   20   21 ar
    36   21   22 ar
    37   21   43 1
    38   22   23 ar
    39   22   44 1
    40   23   24 ar
    41   23   45 1
    42   24   46 1
    43   25   26 1
    44   25   47 1
    45   25   48 1
    46   26   27 2
    47   26   28 am
    48   28   49 1
    49   28   50 1
    50   29   30 3
    51   31   32 1
    52   31   33 1
    53   31   51 1
    54   32   52 1
    55   32   53 1
    56   32   54 1
    57   33   55 1
    58   33   56 1
    59   33   57 1
@<TRIPOS>MOLECULE
ZINC24716312
   58    60     0     0     0
SMALL
USER_CHARGES
N-[[4-(methylsulfamoylmethyl)phenyl]methyl]-3-(p-tolylsulfonylamino)benzamide
@<TRIPOS>ATOM
      1 C1         -0.8439    4.8851   -6.6277 C.3       1 <0>        -0.1293
      2 C2         -0.3973    5.1856   -5.2202 C.ar      1 <0>        -0.0239
      3 C3         -0.9396    6.2580   -4.5370 C.ar      1 <0>        -0.1421
      4 C4         -0.5299    6.5337   -3.2459 C.ar      1 <0>        -0.0129
      5 C5          0.4214    5.7363   -2.6375 C.ar      1 <0>        -0.6847
      6 C6          0.9672    4.6667   -3.3223 C.ar      1 <0>        -0.0122
      7 C7          0.5543    4.3885   -4.6119 C.ar      1 <0>        -0.1427
      8 S1          0.9435    6.0876   -0.9917 S.o2      1 <0>         2.6938
      9 O1          0.6858    7.4673   -0.7697 O.2       1 <0>        -0.9492
     10 O2          2.2389    5.5217   -0.8471 O.2       1 <0>        -0.9502
     11 N1         -0.0559    5.2493    0.0285 N.pl3     1 <0>        -1.0702
     12 C8         -0.0478    3.8522    0.0223 C.ar      1 <0>         0.1449
     13 C9          1.1601    3.1640    0.0075 C.ar      1 <0>        -0.1314
     14 C10         1.1733    1.7821    0.0004 C.ar      1 <0>        -0.1009
     15 C11        -0.0126    1.0758    0.0080 C.ar      1 <0>        -0.0963
     16 C12        -1.2307    1.7571    0.0174 C.ar      1 <0>        -0.1153
     17 C13        -1.2443    3.1520    0.0304 C.ar      1 <0>        -0.0720
     18 C14        -2.5025    1.0029    0.0189 C.2       1 <0>         0.5601
     19 O3         -3.5621    1.5983    0.0272 O.2       1 <0>        -0.5359
     20 N2         -2.4867   -0.3448    0.0111 N.am      1 <0>        -0.7320
     21 C15        -3.7467   -1.0921    0.0125 C.3       1 <0>         0.1612
     22 C16        -3.4541   -2.5703    0.0026 C.ar      1 <0>        -0.0999
     23 C17        -3.3309   -3.2425   -1.1990 C.ar      1 <0>        -0.0958
     24 C18        -3.0581   -4.5977   -1.2080 C.ar      1 <0>        -0.1056
     25 C19        -2.9175   -5.2824   -0.0154 C.ar      1 <0>        -0.0839
     26 C20        -3.0459   -4.6112    1.1862 C.ar      1 <0>        -0.1054
     27 C21        -3.3144   -3.2552    1.1952 C.ar      1 <0>        -0.0954
     28 C22        -2.6238   -6.7605   -0.0253 C.3       1 <0>        -0.5964
     29 S2         -4.1833   -7.6869   -0.0222 S.o2      1 <0>         2.6097
     30 O4         -4.8557   -7.5093    1.2170 O.2       1 <0>        -0.9462
     31 O5         -4.8688   -7.4955   -1.2522 O.2       1 <0>        -0.9508
     32 N3         -3.7319   -9.2802   -0.0336 N.pl3     1 <0>        -1.1289
     33 C23        -3.0103   -9.8452    1.1093 C.3       1 <0>         0.0779
     34 H1         -1.5995    5.6219   -6.9378 H         1 <0>         0.0725
     35 H2         -1.2787    3.8754   -6.6667 H         1 <0>         0.0792
     36 H3          0.0205    4.9386   -7.3059 H         1 <0>         0.0796
     37 H4         -1.6831    6.8808   -5.0122 H         1 <0>         0.1343
     38 H5         -0.9534    7.3718   -2.7123 H         1 <0>         0.1410
     39 H6          1.7136    4.0464   -2.8486 H         1 <0>         0.1393
     40 H7          0.9778    3.5504   -5.1455 H         1 <0>         0.1333
     41 H8         -0.7261    5.7924    0.7110 H         1 <0>         0.4575
     42 H9          2.0912    3.7112    0.0012 H         1 <0>         0.1628
     43 H10         2.1147    1.2530   -0.0114 H         1 <0>         0.1380
     44 H11         0.0021   -0.0041    0.0020 H         1 <0>         0.1283
     45 H12        -2.1838    3.6846    0.0419 H         1 <0>         0.1422
     46 H13        -1.5277   -0.8836    0.0037 H         1 <0>         0.4215
     47 H14        -4.3225   -0.8383    0.9148 H         1 <0>         0.0809
     48 H15        -4.3307   -0.8279   -0.8815 H         1 <0>         0.0804
     49 H16        -3.4444   -2.7083   -2.1307 H         1 <0>         0.1321
     50 H17        -2.9574   -5.1220   -2.1468 H         1 <0>         0.1331
     51 H18        -2.9360   -5.1462    2.1179 H         1 <0>         0.1332
     52 H19        -3.4147   -2.7309    2.1340 H         1 <0>         0.1325
     53 H20        -2.0485   -7.0140   -0.9280 H         1 <0>         0.1432
     54 H21        -2.0389   -7.0241    0.8682 H         1 <0>         0.1412
     55 H22        -3.8304   -9.8602   -0.9631 H         1 <0>         0.4432
     56 H23        -2.7982  -10.9078    0.9200 H         1 <0>         0.0863
     57 H24        -3.6266   -9.7500    2.0154 H         1 <0>         0.0733
     58 H25        -2.0643   -9.3019    1.2505 H         1 <0>         0.0530
@<TRIPOS>BOND
     1    1    2 1
     2    1   34 1
     3    1   35 1
     4    1   36 1
     5    2    7 ar
     6    2    3 ar
     7    3    4 ar
     8    3   37 1
     9    4    5 ar
    10    4   38 1
    11    5    6 ar
    12    5    8 1
    13    6    7 ar
    14    6   39 1
    15    7   40 1
    16    8    9 2
    17    8   10 2
    18    8   11 1
    19   11   12 1
    20   11   41 1
    21   12   17 ar
    22   12   13 ar
    23   13   14 ar
    24   13   42 1
    25   14   15 ar
    26   14   43 1
    27   15   16 ar
    28   15   44 1
    29   16   17 ar
    30   16   18 1
    31   17   45 1
    32   18   19 2
    33   18   20 am
    34   20   21 1
    35   20   46 1
    36   21   22 1
    37   21   47 1
    38   21   48 1
    39   22   27 ar
    40   22   23 ar
    41   23   24 ar
    42   23   49 1
    43   24   25 ar
    44   24   50 1
    45   25   26 ar
    46   25   28 1
    47   26   27 ar
    48   26   51 1
    49   27   52 1
    50   28   29 1
    51   28   53 1
    52   28   54 1
    53   29   30 2
    54   29   31 2
    55   29   32 1
    56   32   33 1
    57   32   55 1
    58   33   56 1
    59   33   57 1
    60   33   58 1
@<TRIPOS>MOLECULE
ZINC14733290
   67    70     0     0     0
SMALL
USER_CHARGES

@<TRIPOS>ATOM
      1 C1         -0.0187    1.5258    0.0104 C.3       1 <0>        -0.1725
      2 C2          0.0021   -0.0041    0.0020 C.3       1 <0>         0.1517
      3 H1         -1.0205   -0.3814    0.0098 H         1 <0>         0.0795
      4 C3          0.7421   -0.5109    1.2415 C.3       1 <0>        -0.0843
      5 C4          0.6567   -2.0144    1.2978 C.ar      1 <0>        -0.1369
      6 C5         -0.3956   -2.6338    1.9549 C.ar      1 <0>        -0.0735
      7 C6         -0.4332   -4.0194    1.9812 C.ar      1 <0>        -0.1686
      8 C7          0.5725   -4.7324    1.3558 C.ar      1 <0>         0.0972
      9 N1          1.5584   -4.1096    0.7406 N.ar      1 <0>        -0.4794
     10 C8          1.6231   -2.7933    0.6903 C.ar      1 <0>         0.1068
     11 N2          0.6878   -0.4765   -1.2033 N.pl3     1 <0>        -0.7377
     12 C9         -0.0187   -0.6130   -2.4008 C.ar      1 <0>         0.2009
     13 C10        -1.3679   -0.2957   -2.4500 C.ar      1 <0>        -0.1152
     14 C11        -2.0684   -0.4332   -3.6480 C.ar      1 <0>        -0.1054
     15 C12        -1.4068   -0.8893   -4.7897 C.ar      1 <0>        -0.0164
     16 C13        -0.0644   -1.2028   -4.7304 C.ar      1 <0>        -0.6324
     17 C14         0.6317   -1.0612   -3.5443 C.ar      1 <0>        -0.0710
     18 S1          0.7673   -1.7787   -6.1730 S.o2      1 <0>         2.6918
     19 O1          1.8915   -2.5229   -5.7239 O.2       1 <0>        -0.9518
     20 O2         -0.2277   -2.3381   -7.0194 O.2       1 <0>        -0.9512
     21 N3          1.3635   -0.4483   -6.9585 N.pl3     1 <0>        -1.1104
     22 C15         2.4003    0.3716   -6.3270 C.3       1 <0>         0.1405
     23 C16         3.3541    0.9025   -7.3991 C.3       1 <0>        -0.1578
     24 C17         1.7471    1.5476   -5.5981 C.3       1 <0>        -0.1773
     25 C18        -3.5071   -0.0976   -3.7087 C.2       1 <0>         0.5617
     26 O3         -4.1157   -0.2182   -4.7539 O.2       1 <0>        -0.5213
     27 N4         -4.1437    0.3421   -2.6051 N.am      1 <0>        -0.7187
     28 C19        -5.5691    0.6747   -2.6653 C.3       1 <0>         0.1462
     29 C20        -5.7704    2.1705   -2.9883 C.3       1 <0>        -0.0941
     30 C21        -6.9953    2.5844   -2.2012 C.ar      1 <0>        -0.0927
     31 C22        -7.8178    3.6904   -2.3368 C.ar      1 <0>        -0.1054
     32 C23        -8.8955    3.8630   -1.4907 C.ar      1 <0>        -0.1161
     33 C24        -9.1550    2.9293   -0.5047 C.ar      1 <0>        -0.1190
     34 C25        -8.3360    1.8258   -0.3678 C.ar      1 <0>        -0.1035
     35 C26        -7.2547    1.6509   -1.2154 C.ar      1 <0>        -0.0991
     36 C27        -6.2219    0.5458   -1.2726 C.3       1 <0>        -0.0863
     37 H2          1.0039    1.9031    0.0027 H         1 <0>         0.0645
     38 H3         -0.5459    1.8868   -0.8726 H         1 <0>         0.0614
     39 H4         -0.5289    1.8773    0.9072 H         1 <0>         0.0684
     40 H5          1.7879   -0.2080    1.1895 H         1 <0>         0.0847
     41 H6          0.2852   -0.0874    2.1360 H         1 <0>         0.0932
     42 H7         -1.1675   -2.0507    2.4352 H         1 <0>         0.1331
     43 H8         -1.2378   -4.5352    2.4841 H         1 <0>         0.1357
     44 H9          0.5505   -5.8120    1.3717 H         1 <0>         0.1561
     45 H10         2.4433   -2.3185    0.1723 H         1 <0>         0.1487
     46 H11         1.6324   -0.6946   -1.1699 H         1 <0>         0.4030
     47 H12        -1.8744    0.0563   -1.5635 H         1 <0>         0.1312
     48 H13        -1.9459   -0.9972   -5.7193 H         1 <0>         0.1510
     49 H14         1.6834   -1.3035   -3.5052 H         1 <0>         0.1429
     50 H15         1.0261   -0.2119   -7.8367 H         1 <0>         0.4206
     51 H16         2.9577   -0.2342   -5.6126 H         1 <0>         0.0920
     52 H17         2.7967    1.5083   -8.1135 H         1 <0>         0.0636
     53 H18         4.1256    1.5125   -6.9292 H         1 <0>         0.0719
     54 H19         3.8195    0.0647   -7.9184 H         1 <0>         0.0656
     55 H20         1.0676    1.1694   -4.8343 H         1 <0>         0.0608
     56 H21         2.5185    2.1577   -5.1282 H         1 <0>         0.0696
     57 H22         1.1897    2.1535   -6.3125 H         1 <0>         0.0648
     58 H23        -3.6580    0.4384   -1.7710 H         1 <0>         0.3991
     59 H24        -6.0817    0.0457   -3.3931 H         1 <0>         0.1088
     60 H25        -4.9024    2.7467   -2.6679 H         1 <0>         0.0845
     61 H26        -5.9429    2.3070   -4.0558 H         1 <0>         0.0833
     62 H27        -7.6155    4.4204   -3.1066 H         1 <0>         0.1212
     63 H28        -9.5348    4.7268   -1.5989 H         1 <0>         0.1254
     64 H29        -9.9972    3.0629    0.1581 H         1 <0>         0.1254
     65 H30        -8.5393    1.0968    0.4027 H         1 <0>         0.1211
     66 H31        -6.7026   -0.4269   -1.1687 H         1 <0>         0.0852
     67 H32        -5.4753    0.6851   -0.4907 H         1 <0>         0.0846
@<TRIPOS>BOND
     1    1    2 1
     2    1   37 1
     3    1   38 1
     4    1   39 1
     5    2    3 1
     6    2    4 1
     7    2   11 1
     8    4    5 1
     9    4   40 1
    10    4   41 1
    11    5   10 ar
    12    5    6 ar
    13    6    7 ar
    14    6   42 1
    15    7    8 ar
    16    7   43 1
    17    8    9 ar
    18    8   44 1
    19    9   10 ar
    20   10   45 1
    21   11   12 1
    22   11   46 1
    23   12   17 ar
    24   12   13 ar
    25   13   14 ar
    26   13   47 1
    27   14   15 ar
    28   14   25 1
    29   15   16 ar
    30   15   48 1
    31   16   17 ar
    32   16   18 1
    33   17   49 1
    34   18   19 2
    35   18   20 2
    36   18   21 1
    37   21   22 1
    38   21   50 1
    39   22   23 1
    40   22   24 1
    41   22   51 1
    42   23   52 1
    43   23   53 1
    44   23   54 1
    45   24   55 1
    46   24   56 1
    47   24   57 1
    48   25   26 2
    49   25   27 am
    50   27   28 1
    51   27   58 1
    52   28   36 1
    53   28   29 1
    54   28   59 1
    55   29   30 1
    56   29   60 1
    57   29   61 1
    58   30   35 ar
    59   30   31 ar
    60   31   32 ar
    61   31   62 1
    62   32   33 ar
    63   32   63 1
    64   33   34 ar
    65   33   64 1
    66   34   35 ar
    67   34   65 1
    68   35   36 1
    69   36   66 1
    70   36   67 1
@<TRIPOS>MOLECULE
ZINC59014953
   45    47     0     0     0
SMALL
USER_CHARGES

@<TRIPOS>ATOM
      1 C1         -0.0176    1.3736    0.0191 C.ar      1 <0>        -0.1370
      2 C2          1.1686    2.0864    0.0016 C.ar      1 <0>        -0.0719
      3 C3          2.3822    1.4232   -0.0171 C.ar      1 <0>        -0.1620
      4 C4          2.4177    0.0417   -0.0178 C.ar      1 <0>         0.1389
      5 C5          1.2221   -0.6843    0.0004 C.ar      1 <0>        -0.0919
      6 C6          0.0013   -0.0054    0.0186 C.ar      1 <0>        -0.0617
      7 C7          1.2502   -2.1583   -0.0003 C.2       1 <0>         0.0967
      8 N1          2.3865   -2.7858   -0.0177 N.2       1 <0>        -0.1854
      9 N2          2.4133   -4.1866   -0.0183 N.pl3     1 <0>        -0.5491
     10 C8          3.6236   -4.8550   -0.0369 C.2       1 <0>         0.5616
     11 N3          4.8160   -4.2968   -0.0493 N.2       1 <0>        -0.5131
     12 C9          5.7571   -5.2467   -0.0654 C.2       1 <0>         0.2155
     13 N4          5.1758   -6.4227   -0.0635 N.2       1 <0>        -0.3234
     14 N5          3.7905   -6.1947   -0.0397 N.pl3     1 <0>        -0.5032
     15 S1          7.4962   -4.9644   -0.0868 S.3       1 <0>         0.1190
     16 C10         8.2113   -6.6314   -0.1029 C.3       1 <0>        -0.1646
     17 C11         9.7149   -6.5329   -0.1219 C.2       1 <0>         0.5379
     18 O1         10.2514   -5.4451   -0.1244 O.2       1 <0>        -0.4978
     19 N6         10.4636   -7.6535   -0.1362 N.am      1 <0>        -0.6657
     20 C12        11.8570   -7.5637   -0.2517 C.ar      1 <0>         0.1265
     21 C13        12.5580   -8.5251   -0.9673 C.ar      1 <0>        -0.1043
     22 C14        13.9313   -8.4358   -1.0811 C.ar      1 <0>        -0.1036
     23 C15        14.6105   -7.3860   -0.4803 C.ar      1 <0>         0.0921
     24 C16        13.9108   -6.4254    0.2352 C.ar      1 <0>        -0.1697
     25 C17        12.5369   -6.5102    0.3446 C.ar      1 <0>        -0.0774
     26 O2         15.9628   -7.2988   -0.5924 O.3       1 <0>        -0.3102
     27 C18        16.5971   -6.1919    0.0514 C.3       1 <0>         0.6038
     28 F1         16.3361   -6.2392    1.4250 F         1 <0>        -0.1645
     29 F2         17.9781   -6.2564   -0.1634 F         1 <0>        -0.1304
     30 F3         16.0983   -4.9966   -0.4773 F         1 <0>        -0.1633
     31 F4          3.6034   -0.6057   -0.0365 F         1 <0>        -0.1081
     32 H1         -0.9611    1.8989    0.0378 H         1 <0>         0.1352
     33 H2          1.1466    3.1662    0.0020 H         1 <0>         0.1360
     34 H3          3.3038    1.9860   -0.0315 H         1 <0>         0.1408
     35 H4         -0.9257   -0.5593    0.0327 H         1 <0>         0.1379
     36 H5          0.3255   -2.7161    0.0138 H         1 <0>         0.1286
     37 H6          1.5827   -4.6875   -0.0057 H         1 <0>         0.3999
     38 H7          7.8938   -7.1716    0.7891 H         1 <0>         0.1269
     39 H8          7.8708   -7.1643   -0.9907 H         1 <0>         0.1272
     40 H9         10.0376   -8.5222   -0.0666 H         1 <0>         0.4165
     41 H10        12.0294   -9.3428   -1.4345 H         1 <0>         0.1427
     42 H11        14.4767   -9.1835   -1.6378 H         1 <0>         0.1451
     43 H12        14.4403   -5.6087    0.7033 H         1 <0>         0.1385
     44 H13        11.9917   -5.7596    0.8976 H         1 <0>         0.1517
     45 H14         3.0914   -6.8670   -0.0293 H         1 <0>         0.4389
@<TRIPOS>BOND
     1    1    6 ar
     2    1    2 ar
     3    1   32 1
     4    2    3 ar
     5    2   33 1
     6    3    4 ar
     7    3   34 1
     8    4    5 ar
     9    4   31 1
    10    5    6 ar
    11    5    7 1
    12    6   35 1
    13    7    8 2
    14    7   36 1
    15    8    9 1
    16    9   10 1
    17    9   37 1
    18   10   14 1
    19   10   11 2
    20   11   12 1
    21   12   13 2
    22   12   15 1
    23   13   14 1
    24   14   45 1
    25   15   16 1
    26   16   17 1
    27   16   38 1
    28   16   39 1
    29   17   18 2
    30   17   19 am
    31   19   20 1
    32   19   40 1
    33   20   25 ar
    34   20   21 ar
    35   21   22 ar
    36   21   41 1
    37   22   23 ar
    38   22   42 1
    39   23   24 ar
    40   23   26 1
    41   24   25 ar
    42   24   43 1
    43   25   44 1
    44   26   27 1
    45   27   28 1
    46   27   29 1
    47   27   30 1
@<TRIPOS>MOLECULE
ZINC06196303
   72    76     0     0     0
SMALL
USER_CHARGES
3-[[(4-ethoxyphenyl)methyl-(2-furylmethyl)amino]-[1-(2-methoxyethyl)tetrazol-5-yl]-methyl]-6-methyl-1H-quinolin-2-one
@<TRIPOS>ATOM
      1 C1          7.7887    6.4743   -2.9687 C.3       1 <0>        -0.1563
      2 C2          6.3919    5.9149   -2.6913 C.3       1 <0>         0.0509
      3 O1          6.4674    4.4952   -2.5470 O.3       1 <0>        -0.3062
      4 C3          5.3048    3.8380   -2.2951 C.ar      1 <0>         0.1728
      5 C4          5.3050    2.4590   -2.1436 C.ar      1 <0>        -0.1507
      6 C5          4.1219    1.7933   -1.8872 C.ar      1 <0>        -0.0551
      7 C6          2.9384    2.5003   -1.7814 C.ar      1 <0>        -0.2032
      8 C7          2.9347    3.8741   -1.9376 C.ar      1 <0>        -0.0398
      9 C8          4.1160    4.5451   -2.1885 C.ar      1 <0>        -0.2061
     10 C9          1.6493    1.7716   -1.5016 C.3       1 <0>         0.0463
     11 C10         2.2090    0.8608    0.6709 C.3       1 <0>         0.0841
     12 C11         1.9506   -0.5332    0.1600 C.2       1 <0>        -0.1047
     13 C12         2.6865   -1.1830   -0.7596 C.2       1 <0>        -0.1328
     14 C13         2.0908   -2.4527   -0.9382 C.2       1 <0>        -0.2082
     15 C14         1.0265   -2.5028   -0.1172 C.2       1 <0>         0.0093
     16 O2          0.9498   -1.3396    0.5498 O.3       1 <0>        -0.1759
     17 C15        -0.0588    1.5680    0.2023 C.3       1 <0>         0.2083
     18 H1         -0.2558    0.4968    0.1601 H         1 <0>         0.1615
     19 C16        -0.8915    2.2733   -0.8371 C.2       1 <0>        -0.2783
     20 C17        -1.7717    1.5681   -1.5898 C.2       1 <0>         0.0708
     21 C18        -2.5656    2.2830   -2.5909 C.ar      1 <0>        -0.1513
     22 C19        -3.4900    1.6099   -3.3967 C.ar      1 <0>        -0.0447
     23 C20        -4.2156    2.3059   -4.3213 C.ar      1 <0>        -0.1048
     24 C21        -4.0439    3.6758   -4.4685 C.ar      1 <0>        -0.0357
     25 C22        -3.1388    4.3594   -3.6859 C.ar      1 <0>        -0.1600
     26 C23        -2.3888    3.6717   -2.7372 C.ar      1 <0>         0.1974
     27 N1         -1.4773    4.3305   -1.9400 N.am      1 <0>        -0.6204
     28 H2         -1.3503    5.3165   -2.0478 H         1 <0>         0.4340
     29 C24        -0.7565    3.6663   -1.0195 C.2       1 <0>         0.5400
     30 O3          0.0371    4.2818   -0.3288 O.2       1 <0>        -0.5170
     31 C25        -5.2110    1.5805   -5.1896 C.3       1 <0>        -0.1217
     32 C26        -0.4147    2.0906    1.5703 C.2       1 <0>         0.1176
     33 N2         -0.0616    3.2438    2.0837 N.2       1 <0>        -0.2427
     34 N3         -0.5627    3.3221    3.2682 N.2       1 <0>        -0.0502
     35 N4         -1.2195    2.2455    3.5266 N.2       1 <0>        -0.0513
     36 N5         -1.1518    1.4613    2.5043 N.pl3     1 <0>        -0.2781
     37 C27        -1.7628    0.1354    2.3826 C.3       1 <0>         0.1017
     38 C28        -0.7799   -0.9266    2.8794 C.3       1 <0>         0.0408
     39 O4         -1.3759   -2.2200    2.7608 O.3       1 <0>        -0.3767
     40 C29        -0.5363   -3.2894    3.2004 C.3       1 <0>         0.0303
     41 H3          8.1799    6.0360   -3.8868 H         1 <0>         0.0700
     42 H4          7.7312    7.5572   -3.0787 H         1 <0>         0.0851
     43 H5          8.4502    6.2281   -2.1380 H         1 <0>         0.0699
     44 H6          5.7304    6.1610   -3.5219 H         1 <0>         0.0679
     45 H7          6.0008    6.3531   -1.7731 H         1 <0>         0.0685
     46 H8          6.2291    1.9063   -2.2265 H         1 <0>         0.1445
     47 H9          4.1216    0.7198   -1.7688 H         1 <0>         0.1344
     48 H10         2.0083    4.4236   -1.8593 H         1 <0>         0.1355
     49 H11         4.1133    5.6187   -2.3060 H         1 <0>         0.1406
     50 H12         1.7414    0.7341   -1.8228 H         1 <0>         0.1400
     51 H13         0.8358    2.2500   -2.0469 H         1 <0>         0.1328
     52 H14         3.2584    1.1142    0.5206 H         1 <0>         0.1643
     53 H15         1.9726    0.9078    1.7340 H         1 <0>         0.1342
     54 H16         3.5637   -0.8067   -1.2649 H         1 <0>         0.1632
     55 H17         2.4257   -3.2325   -1.6061 H         1 <0>         0.1661
     56 H18         0.3512   -3.3387   -0.0088 H         1 <0>         0.2185
     57 H19        -1.8850    0.5028   -1.4536 H         1 <0>         0.1576
     58 H20        -3.6296    0.5445   -3.2880 H         1 <0>         0.1431
     59 H21        -4.6256    4.2112   -5.2043 H         1 <0>         0.1434
     60 H22        -3.0121    5.4249   -3.8087 H         1 <0>         0.1443
     61 H23        -6.1839    1.5724   -4.6981 H         1 <0>         0.0788
     62 H24        -5.2934    2.0887   -6.1503 H         1 <0>         0.0748
     63 H25        -4.8756    0.5556   -5.3483 H         1 <0>         0.0732
     64 H26        -2.6721    0.0980    2.9826 H         1 <0>         0.1377
     65 H27        -2.0085   -0.0570    1.3383 H         1 <0>         0.1188
     66 H28         0.1294   -0.8892    2.2794 H         1 <0>         0.0680
     67 H29        -0.5342   -0.7342    3.9238 H         1 <0>         0.0698
     68 H30         0.3780   -3.3010    2.6071 H         1 <0>         0.0449
     69 H31        -0.2856   -3.1460    4.2515 H         1 <0>         0.0505
     70 H32        -1.0608   -4.2370    3.0780 H         1 <0>         0.1002
     71 N6          1.3714    1.8412   -0.0516 N.4       1 <0>        -0.3871
     72 H33         1.5958    2.7846    0.2861 H         1 <0>         0.4528
@<TRIPOS>BOND
     1    1    2 1
     2    1   41 1
     3    1   42 1
     4    1   43 1
     5    2    3 1
     6    2   44 1
     7    2   45 1
     8    3    4 1
     9    4    9 ar
    10    4    5 ar
    11    5    6 ar
    12    5   46 1
    13    6    7 ar
    14    6   47 1
    15    7    8 ar
    16    7   10 1
    17    8    9 ar
    18    8   48 1
    19    9   49 1
    20   10   50 1
    21   10   51 1
    22   10   71 1
    23   11   12 1
    24   11   52 1
    25   11   53 1
    26   11   71 1
    27   12   16 1
    28   12   13 2
    29   13   14 1
    30   13   54 1
    31   14   15 2
    32   14   55 1
    33   15   16 1
    34   15   56 1
    35   17   18 1
    36   17   19 1
    37   17   32 1
    38   17   71 1
    39   19   29 1
    40   19   20 2
    41   20   21 1
    42   20   57 1
    43   21   26 ar
    44   21   22 ar
    45   22   23 ar
    46   22   58 1
    47   23   24 ar
    48   23   31 1
    49   24   25 ar
    50   24   59 1
    51   25   26 ar
    52   25   60 1
    53   26   27 1
    54   27   28 1
    55   27   29 am
    56   29   30 2
    57   31   61 1
    58   31   62 1
    59   31   63 1
    60   32   36 1
    61   32   33 2
    62   33   34 1
    63   34   35 2
    64   35   36 1
    65   36   37 1
    66   37   38 1
    67   37   64 1
    68   37   65 1
    69   38   39 1
    70   38   66 1
    71   38   67 1
    72   39   40 1
    73   40   68 1
    74   40   69 1
    75   40   70 1
    76   71   72 1
@<TRIPOS>MOLECULE
ZINC12833348
   76    80     0     0     0
SMALL
USER_CHARGES
3-[[(1-cyclohexyltetrazol-5-yl)methyl-[2-(3,4-dimethoxyphenyl)ethyl]amino]methyl]-7-methoxy-1H-quinolin-2-one
@<TRIPOS>ATOM
      1 C1         -7.3180    7.2656    7.9751 C.3       1 <0>         0.0191
      2 O1         -8.4337    6.4887    7.5350 O.3       1 <0>        -0.3018
      3 C2         -8.1624    5.3899    6.7853 C.ar      1 <0>         0.2152
      4 C3         -6.8401    5.0731    6.4766 C.ar      1 <0>        -0.2288
      5 C4         -6.5484    3.9700    5.7290 C.ar      1 <0>         0.0022
      6 C5         -7.5849    3.1547    5.2584 C.ar      1 <0>        -0.1964
      7 C6         -7.3047    1.9685    4.4500 C.2       1 <0>         0.0759
      8 C7         -8.3486    1.2150    4.0204 C.2       1 <0>        -0.2943
      9 C8         -9.6702    1.5771    4.3518 C.2       1 <0>         0.5498
     10 O2        -10.5927    0.8860    3.9555 O.2       1 <0>        -0.5319
     11 N1         -9.9386    2.6654    5.0944 N.am      1 <0>        -0.6191
     12 H1        -10.8597    2.8853    5.3045 H         1 <0>         0.4272
     13 C9         -8.9233    3.4728    5.5622 C.ar      1 <0>         0.2449
     14 C10        -9.2010    4.5970    6.3292 C.ar      1 <0>        -0.2126
     15 C11        -8.0940   -0.0135    3.1855 C.3       1 <0>         0.0657
     16 C12        -9.3575   -1.6049    4.5023 C.3       1 <0>        -0.0128
     17 C13        -9.2276   -2.6665    5.5963 C.3       1 <0>        -0.0999
     18 C14       -10.6005   -3.0898    6.0511 C.ar      1 <0>        -0.1035
     19 C15       -11.2157   -2.4266    7.0967 C.ar      1 <0>        -0.0993
     20 C16       -12.4775   -2.8075    7.5138 C.ar      1 <0>        -0.1707
     21 C17       -13.1237   -3.8633    6.8912 C.ar      1 <0>         0.1185
     22 C18       -12.5022   -4.5344    5.8425 C.ar      1 <0>         0.1073
     23 C19       -11.2397   -4.1439    5.4256 C.ar      1 <0>        -0.1641
     24 O3        -13.1325   -5.5709    5.2280 O.3       1 <0>        -0.3005
     25 C20       -12.4345   -6.2127    4.1589 C.3       1 <0>         0.0248
     26 O4        -14.3629   -4.2425    7.3037 O.3       1 <0>        -0.3012
     27 C21       -14.9394   -3.5082    8.3856 C.3       1 <0>         0.0230
     28 C22        -7.3214   -2.2990    3.3909 C.3       1 <0>         0.0840
     29 C23        -5.8404   -2.0205    3.3718 C.2       1 <0>         0.0985
     30 N2         -5.1597   -1.4726    2.3949 N.2       1 <0>        -0.2547
     31 N3         -3.9259   -1.4033    2.7596 N.2       1 <0>        -0.0533
     32 N4         -3.8007   -1.8999    3.9406 N.2       1 <0>        -0.0462
     33 N5         -4.9590   -2.2915    4.3523 N.pl3     1 <0>        -0.2806
     34 C24        -5.2586   -2.9145    5.6439 C.3       1 <0>         0.1302
     35 C25        -4.8723   -1.9576    6.7735 C.3       1 <0>        -0.1313
     36 C26        -5.1852   -2.6082    8.1225 C.3       1 <0>        -0.1162
     37 C27        -4.3881   -3.9070    8.2593 C.3       1 <0>        -0.1308
     38 C28        -4.7744   -4.8639    7.1298 C.3       1 <0>        -0.1167
     39 C29        -4.4616   -4.2133    5.7808 C.3       1 <0>        -0.1311
     40 H2         -6.6637    6.6465    8.5889 H         1 <0>         0.0655
     41 H3         -7.6737    8.1120    8.5626 H         1 <0>         0.1131
     42 H4         -6.7655    7.6308    7.1093 H         1 <0>         0.0662
     43 H5         -6.0402    5.7038    6.8355 H         1 <0>         0.1470
     44 H6         -5.5216    3.7286    5.4973 H         1 <0>         0.1460
     45 H7         -6.2894    1.6984    4.1999 H         1 <0>         0.1499
     46 H8        -10.2229    4.8510    6.5690 H         1 <0>         0.1513
     47 H9         -8.9069   -0.1419    2.4708 H         1 <0>         0.1551
     48 H10        -7.1525    0.1010    2.6483 H         1 <0>         0.1413
     49 H11        -9.8922   -0.7406    4.8963 H         1 <0>         0.1518
     50 H12        -9.9083   -2.0190    3.6578 H         1 <0>         0.1432
     51 H13        -8.6928   -3.5307    5.2023 H         1 <0>         0.0891
     52 H14        -8.6767   -2.2524    6.4408 H         1 <0>         0.0927
     53 H15       -10.7112   -1.6064    7.5857 H         1 <0>         0.1262
     54 H16       -12.9577   -2.2849    8.3279 H         1 <0>         0.1411
     55 H17       -10.7550   -4.6634    4.6122 H         1 <0>         0.1368
     56 H18       -11.4951   -6.6208    4.5316 H         1 <0>         0.0557
     57 H19       -13.0475   -7.0198    3.7576 H         1 <0>         0.1066
     58 H20       -12.2287   -5.4871    3.3720 H         1 <0>         0.0552
     59 H21       -15.0327   -2.4594    8.1039 H         1 <0>         0.0582
     60 H22       -15.9256   -3.9122    8.6141 H         1 <0>         0.1075
     61 H23       -14.2996   -3.5930    9.2640 H         1 <0>         0.0585
     62 H24        -7.5097   -3.2264    3.9317 H         1 <0>         0.1549
     63 H25        -7.6864   -2.3941    2.3683 H         1 <0>         0.1775
     64 H26        -6.3246   -3.1345    5.7027 H         1 <0>         0.1117
     65 H27        -3.8064   -1.7376    6.7147 H         1 <0>         0.0945
     66 H28        -5.4402   -1.0323    6.6760 H         1 <0>         0.0687
     67 H29        -6.2512   -2.8282    8.1812 H         1 <0>         0.0689
     68 H30        -4.9100   -1.9265    8.9272 H         1 <0>         0.0834
     69 H31        -4.6110   -4.3705    9.2204 H         1 <0>         0.0779
     70 H32        -3.3222   -3.6870    8.2006 H         1 <0>         0.0728
     71 H33        -5.8404   -5.0839    7.1885 H         1 <0>         0.0697
     72 H34        -4.2066   -5.7892    7.2273 H         1 <0>         0.0840
     73 H35        -4.7368   -4.8950    4.9761 H         1 <0>         0.0778
     74 H36        -3.3956   -3.9933    5.7220 H         1 <0>         0.0916
     75 N6         -8.0039   -1.1851    4.0822 N.4       1 <0>        -0.3965
     76 H37        -7.4614   -0.9269    4.9148 H         1 <0>         0.4167
@<TRIPOS>BOND
     1    1    2 1
     2    1   40 1
     3    1   41 1
     4    1   42 1
     5    2    3 1
     6    3   14 ar
     7    3    4 ar
     8    4    5 ar
     9    4   43 1
    10    5    6 ar
    11    5   44 1
    12    6   13 ar
    13    6    7 1
    14    7    8 2
    15    7   45 1
    16    8    9 1
    17    8   15 1
    18    9   10 2
    19    9   11 am
    20   11   12 1
    21   11   13 1
    22   13   14 ar
    23   14   46 1
    24   15   47 1
    25   15   48 1
    26   15   75 1
    27   16   17 1
    28   16   49 1
    29   16   50 1
    30   16   75 1
    31   17   18 1
    32   17   51 1
    33   17   52 1
    34   18   23 ar
    35   18   19 ar
    36   19   20 ar
    37   19   53 1
    38   20   21 ar
    39   20   54 1
    40   21   22 ar
    41   21   26 1
    42   22   23 ar
    43   22   24 1
    44   23   55 1
    45   24   25 1
    46   25   56 1
    47   25   57 1
    48   25   58 1
    49   26   27 1
    50   27   59 1
    51   27   60 1
    52   27   61 1
    53   28   29 1
    54   28   62 1
    55   28   63 1
    56   28   75 1
    57   29   33 1
    58   29   30 2
    59   30   31 1
    60   31   32 2
    61   32   33 1
    62   33   34 1
    63   34   39 1
    64   34   35 1
    65   34   64 1
    66   35   36 1
    67   35   65 1
    68   35   66 1
    69   36   37 1
    70   36   67 1
    71   36   68 1
    72   37   38 1
    73   37   69 1
    74   37   70 1
    75   38   39 1
    76   38   71 1
    77   38   72 1
    78   39   73 1
    79   39   74 1
    80   75   76 1
@<TRIPOS>MOLECULE
ZINC09313116
   80    83     0     0     0
SMALL
USER_CHARGES
(4E,5R)-1-(2-diethylaminoethyl)-5-(3-ethoxy-4-propoxy-phenyl)-4-[hydroxy-[(2R)-2-methyl-2,3-dihydrobenzofuran-5-yl]methylene]pyrrolidine-2,3-dione
@<TRIPOS>ATOM
      1 C1          6.7501    6.8033   -6.7407 C.3       1 <0>        -0.1515
      2 C2          6.4670    5.3393   -7.0837 C.3       1 <0>        -0.1236
      3 C3          5.0611    4.9669   -6.6087 C.3       1 <0>         0.0576
      4 O1          4.7966    3.5996   -6.9290 O.3       1 <0>        -0.3016
      5 C4          3.5807    3.1060   -6.5724 C.ar      1 <0>         0.1156
      6 C5          2.6626    3.9198   -5.9283 C.ar      1 <0>        -0.1743
      7 C6          1.4268    3.4165   -5.5669 C.ar      1 <0>        -0.0969
      8 C7          1.1036    2.1018   -5.8469 C.ar      1 <0>        -0.1077
      9 C8          2.0169    1.2830   -6.4845 C.ar      1 <0>        -0.1461
     10 C9          3.2556    1.7825   -6.8538 C.ar      1 <0>         0.1052
     11 O2          4.1532    0.9798   -7.4857 O.3       1 <0>        -0.3017
     12 C10         3.7510   -0.3672   -7.7422 C.3       1 <0>         0.0567
     13 C11         4.8830   -1.1107   -8.4541 C.3       1 <0>        -0.1554
     14 C12        -0.2449    1.5583   -5.4507 C.3       1 <0>         0.2512
     15 H1         -0.2194    0.4687   -5.4372 H         1 <0>         0.0990
     16 C13        -1.3034    2.0362   -6.4176 C.2       1 <0>        -0.3473
     17 C14        -1.3578    1.7911   -7.7762 C.2       1 <0>         0.3282
     18 C15        -2.5327    2.2146   -8.5535 C.ar      1 <0>        -0.1835
     19 C16        -3.8219    1.8681   -8.1303 C.ar      1 <0>        -0.0006
     20 C17        -4.9178    2.2728   -8.8531 C.ar      1 <0>        -0.1435
     21 C18        -4.7586    3.0221  -10.0210 C.ar      1 <0>         0.1540
     22 C19        -3.4738    3.3532  -10.4445 C.ar      1 <0>        -0.1788
     23 C20        -2.3714    2.9631   -9.7266 C.ar      1 <0>        -0.0318
     24 C21        -3.6208    4.1366  -11.7351 C.3       1 <0>        -0.1077
     25 C22        -5.0839    3.8274  -12.1312 C.3       1 <0>         0.0747
     26 H2         -5.5530    4.6995  -12.5867 H         1 <0>         0.1237
     27 O3         -5.6982    3.5202  -10.8685 O.3       1 <0>        -0.2910
     28 C23        -5.1474    2.6226  -13.0721 C.3       1 <0>        -0.1732
     29 O4         -0.3327    1.1629   -8.3905 O.3       1 <0>        -0.4294
     30 C24        -2.2163    2.7836   -5.6590 C.2       1 <0>         0.3872
     31 O5         -3.2124    3.3399   -6.0851 O.2       1 <0>        -0.3960
     32 C25        -1.7575    2.7786   -4.2437 C.2       1 <0>         0.4861
     33 O6         -2.3249    3.3359   -3.3264 O.2       1 <0>        -0.4792
     34 N1         -0.6230    2.0679   -4.1293 N.am      1 <0>        -0.5971
     35 C26         0.1193    1.8439   -2.8864 C.3       1 <0>         0.1094
     36 C27        -0.3941    0.5724   -2.2078 C.3       1 <0>        -0.0316
     37 C28        -0.3649   -0.6086   -0.0943 C.3       1 <0>        -0.0095
     38 C29        -1.6336    0.0311    0.4731 C.3       1 <0>        -0.1909
     39 C30         1.7163   -0.0608   -1.2039 C.3       1 <0>        -0.0115
     40 C31         2.5087   -0.0293    0.1046 C.3       1 <0>        -0.1895
     41 H3          6.6821    6.9434   -5.6618 H         1 <0>         0.0573
     42 H4          7.7517    7.0686   -7.0791 H         1 <0>         0.0681
     43 H5          6.0182    7.4408   -7.2367 H         1 <0>         0.0584
     44 H6          7.1988    4.7018   -6.5876 H         1 <0>         0.0746
     45 H7          6.5350    5.1992   -8.1625 H         1 <0>         0.0756
     46 H8          4.3292    5.6044   -7.1047 H         1 <0>         0.0630
     47 H9          4.9931    5.1070   -5.5298 H         1 <0>         0.0614
     48 H10         2.9126    4.9472   -5.7084 H         1 <0>         0.1361
     49 H11         0.7121    4.0519   -5.0649 H         1 <0>         0.1188
     50 H12         1.7635    0.2552   -6.6984 H         1 <0>         0.1366
     51 H13         3.5261   -0.8651   -6.7990 H         1 <0>         0.0573
     52 H14         2.8627   -0.3671   -8.3739 H         1 <0>         0.0631
     53 H15         4.5762   -2.1382   -8.6497 H         1 <0>         0.0801
     54 H16         5.1079   -0.6128   -9.3973 H         1 <0>         0.0691
     55 H17         5.7713   -1.1107   -7.8224 H         1 <0>         0.0673
     56 H18        -3.9550    1.2849   -7.2312 H         1 <0>         0.1332
     57 H19        -5.9093    2.0054   -8.5185 H         1 <0>         0.1394
     58 H20        -1.3818    3.2322  -10.0654 H         1 <0>         0.1329
     59 H21        -3.4813    5.2036  -11.5612 H         1 <0>         0.0967
     60 H22        -2.9268    3.7728  -12.4928 H         1 <0>         0.0984
     61 H23        -6.1893    2.3668  -13.2649 H         1 <0>         0.0733
     62 H24        -4.6539    2.8693  -14.0122 H         1 <0>         0.0807
     63 H25        -4.6444    1.7734  -12.6096 H         1 <0>         0.0618
     64 H26        -0.5359    1.0680   -9.3650 H         1 <0>         0.4172
     65 H27        -0.0232    2.6944   -2.2197 H         1 <0>         0.1071
     66 H28         1.1800    1.7326   -3.1116 H         1 <0>         0.1074
     67 H29        -0.2343   -0.2810   -2.8668 H         1 <0>         0.1364
     68 H30        -1.4590    0.6763   -1.9996 H         1 <0>         0.1356
     69 H31         0.2891   -0.9073    0.7251 H         1 <0>         0.1330
     70 H32        -0.6324   -1.4855   -0.6838 H         1 <0>         0.1308
     71 H33        -1.3661    0.9082    1.0623 H         1 <0>         0.0814
     72 H34        -2.2877    0.3295   -0.3462 H         1 <0>         0.0799
     73 H35        -2.1511   -0.6887    1.1074 H         1 <0>         0.1070
     74 H36         1.7186   -1.0740   -1.6057 H         1 <0>         0.1323
     75 H37         2.1761    0.6165   -1.9235 H         1 <0>         0.1286
     76 H38         2.5064    0.9839    0.5064 H         1 <0>         0.0811
     77 H39         2.0489   -0.7066    0.8242 H         1 <0>         0.0810
     78 H40         3.5354   -0.3427   -0.0848 H         1 <0>         0.1069
     79 N2          0.3336    0.3867   -0.9347 N.4       1 <0>        -0.3941
     80 H41         0.3644    1.2828   -0.4344 H         1 <0>         0.4274
@<TRIPOS>BOND
     1    1    2 1
     2    1   41 1
     3    1   42 1
     4    1   43 1
     5    2    3 1
     6    2   44 1
     7    2   45 1
     8    3    4 1
     9    3   46 1
    10    3   47 1
    11    4    5 1
    12    5   10 ar
    13    5    6 ar
    14    6    7 ar
    15    6   48 1
    16    7    8 ar
    17    7   49 1
    18    8    9 ar
    19    8   14 1
    20    9   10 ar
    21    9   50 1
    22   10   11 1
    23   11   12 1
    24   12   13 1
    25   12   51 1
    26   12   52 1
    27   13   53 1
    28   13   54 1
    29   13   55 1
    30   14   15 1
    31   14   34 1
    32   14   16 1
    33   16   17 2
    34   16   30 1
    35   17   18 1
    36   17   29 1
    37   18   23 ar
    38   18   19 ar
    39   19   20 ar
    40   19   56 1
    41   20   21 ar
    42   20   57 1
    43   21   27 1
    44   21   22 ar
    45   22   23 ar
    46   22   24 1
    47   23   58 1
    48   24   25 1
    49   24   59 1
    50   24   60 1
    51   25   26 1
    52   25   27 1
    53   25   28 1
    54   28   61 1
    55   28   62 1
    56   28   63 1
    57   29   64 1
    58   30   31 2
    59   30   32 1
    60   32   33 2
    61   32   34 am
    62   34   35 1
    63   35   36 1
    64   35   65 1
    65   35   66 1
    66   36   67 1
    67   36   68 1
    68   36   79 1
    69   37   38 1
    70   37   69 1
    71   37   70 1
    72   37   79 1
    73   38   71 1
    74   38   72 1
    75   38   73 1
    76   39   40 1
    77   39   74 1
    78   39   75 1
    79   39   79 1
    80   40   76 1
    81   40   77 1
    82   40   78 1
    83   79   80 1
@<TRIPOS>MOLECULE
ZINC35777767
   70    73     0     0     0
SMALL
USER_CHARGES

@<TRIPOS>ATOM
      1 C1          0.3645    2.1854    0.3951 C.3       1 <0>        -0.0912
      2 C2          0.6565    0.7081    0.4545 C.2       1 <0>         0.1182
      3 C3          0.6049   -0.1793   -0.6248 C.2       1 <0>        -0.2981
      4 C4          0.9334   -1.4160   -0.1646 C.2       1 <0>         0.2875
      5 N1          1.1834   -1.3032    1.1675 N.pl3     1 <0>        -0.2930
      6 N2          1.0066    0.0400    1.5238 N.2       1 <0>        -0.2351
      7 C5          1.5565   -2.3440    2.0290 C.ar      1 <0>         0.1139
      8 C6          0.9374   -3.5830    1.9319 C.ar      1 <0>        -0.1147
      9 C7          1.3075   -4.6068    2.7819 C.ar      1 <0>        -0.0976
     10 C8          2.2935   -4.3989    3.7288 C.ar      1 <0>        -0.0965
     11 C9          2.9119   -3.1660    3.8279 C.ar      1 <0>        -0.0992
     12 C10         2.5499   -2.1399    2.9772 C.ar      1 <0>        -0.0912
     13 O1          0.9996   -2.5547   -0.9002 O.3       1 <0>        -0.2259
     14 C11        -0.1458   -3.2642   -1.0828 C.ar      1 <0>         0.0435
     15 C12        -1.3529   -2.7661   -0.6159 C.ar      1 <0>        -0.1336
     16 C13        -2.5163   -3.4880   -0.8020 C.ar      1 <0>        -0.1211
     17 C14        -2.4785   -4.7087   -1.4544 C.ar      1 <0>         0.1273
     18 C15        -1.2751   -5.2089   -1.9217 C.ar      1 <0>        -0.1543
     19 C16        -0.1092   -4.4864   -1.7423 C.ar      1 <0>         0.1290
     20 F1          1.0646   -4.9714   -2.2030 F         1 <0>        -0.1140
     21 F2         -3.6174   -5.4128   -1.6347 F         1 <0>        -0.1167
     22 C17         0.2482    0.1725   -2.0460 C.3       1 <0>         0.0783
     23 N3          1.4664    0.5398   -2.7802 N.4       1 <0>        -0.3760
     24 C18         2.3497   -0.6298   -2.8793 C.3       1 <0>        -0.0061
     25 C19         3.6788   -0.2129   -3.5123 C.3       1 <0>         0.0303
     26 O2          4.3410    0.7216   -2.6577 O.3       1 <0>        -0.3979
     27 C20         5.5993    1.1772   -3.1590 C.3       1 <0>         0.0298
     28 C21         1.1062    0.9971   -4.1289 C.3       1 <0>        -0.0499
     29 C22         0.3104    2.3001   -4.0300 C.3       1 <0>         0.0877
     30 H1         -0.5842    2.1348   -3.4297 H         1 <0>         0.1342
     31 C23        -0.0941    2.7583   -5.4326 C.3       1 <0>         0.0299
     32 O3         -0.9347    3.9097   -5.3336 O.3       1 <0>        -0.3017
     33 C24        -1.3854    4.4465   -6.4980 C.ar      1 <0>         0.1175
     34 C25        -1.0306    3.8734   -7.7105 C.ar      1 <0>        -0.2096
     35 C26        -1.4904    4.4207   -8.8927 C.ar      1 <0>        -0.0800
     36 C27        -2.3031    5.5390   -8.8681 C.ar      1 <0>        -0.1480
     37 C28        -2.6578    6.1123   -7.6609 C.ar      1 <0>        -0.0767
     38 C29        -2.2056    5.5652   -6.4757 C.ar      1 <0>        -0.1444
     39 O4          1.1178    3.3059   -3.4147 O.3       1 <0>        -0.5395
     40 H2          1.2833    2.7287    0.1743 H         1 <0>         0.0936
     41 H3         -0.3693    2.3795   -0.3871 H         1 <0>         0.0864
     42 H4         -0.0316    2.5164    1.3551 H         1 <0>         0.0934
     43 H5          0.1669   -3.7459    1.1928 H         1 <0>         0.1227
     44 H6          0.8260   -5.5706    2.7071 H         1 <0>         0.1393
     45 H7          2.5810   -5.2009    4.3926 H         1 <0>         0.1394
     46 H8          3.6815   -3.0065    4.5687 H         1 <0>         0.1418
     47 H9          3.0361   -1.1785    3.0523 H         1 <0>         0.1373
     48 H10        -1.3836   -1.8142   -0.1067 H         1 <0>         0.1495
     49 H11        -3.4560   -3.0997   -0.4380 H         1 <0>         0.1573
     50 H12        -1.2473   -6.1613   -2.4303 H         1 <0>         0.1683
     51 H13        -0.2204   -0.6866   -2.5263 H         1 <0>         0.1324
     52 H14        -0.4453    1.0134   -2.0491 H         1 <0>         0.1463
     53 H15         2.5323   -1.0327   -1.8831 H         1 <0>         0.1387
     54 H16         1.8757   -1.3917   -3.4981 H         1 <0>         0.1431
     55 H17         4.3089   -1.0921   -3.6466 H         1 <0>         0.0981
     56 H18         3.4905    0.2506   -4.4807 H         1 <0>         0.0730
     57 H19         6.2692    0.3268   -3.2860 H         1 <0>         0.0547
     58 H20         5.4508    1.6694   -4.1201 H         1 <0>         0.0512
     59 H21         6.0376    1.8828   -2.4532 H         1 <0>         0.1007
     60 H22         2.0132    1.1684   -4.7087 H         1 <0>         0.1387
     61 H23         0.4990    0.2369   -4.6202 H         1 <0>         0.1452
     62 H24         0.7992    3.0087   -6.0048 H         1 <0>         0.0763
     63 H25        -0.6345    1.9561   -5.9352 H         1 <0>         0.0812
     64 H26        -0.3952    3.0003   -7.7303 H         1 <0>         0.1233
     65 H27        -1.2145    3.9748   -9.8369 H         1 <0>         0.1280
     66 H28        -2.6613    5.9656   -9.7933 H         1 <0>         0.1291
     67 H29        -3.2924    6.9860   -7.6443 H         1 <0>         0.1348
     68 H30        -2.4865    6.0107   -5.5329 H         1 <0>         0.1332
     69 H31         1.8938    3.5589   -3.9332 H         1 <0>         0.3910
     70 H32         1.9438    1.2813   -2.2899 H         1 <0>         0.4369
@<TRIPOS>BOND
     1    1    2 1
     2    1   40 1
     3    1   41 1
     4    1   42 1
     5    2    6 2
     6    2    3 1
     7    3    4 2
     8    3   22 1
     9    4    5 1
    10    4   13 1
    11    5    6 1
    12    5    7 1
    13    7   12 ar
    14    7    8 ar
    15    8    9 ar
    16    8   43 1
    17    9   10 ar
    18    9   44 1
    19   10   11 ar
    20   10   45 1
    21   11   12 ar
    22   11   46 1
    23   12   47 1
    24   13   14 1
    25   14   19 ar
    26   14   15 ar
    27   15   16 ar
    28   15   48 1
    29   16   17 ar
    30   16   49 1
    31   17   18 ar
    32   17   21 1
    33   18   19 ar
    34   18   50 1
    35   19   20 1
    36   22   23 1
    37   22   51 1
    38   22   52 1
    39   23   24 1
    40   23   28 1
    41   23   70 1
    42   24   25 1
    43   24   53 1
    44   24   54 1
    45   25   26 1
    46   25   55 1
    47   25   56 1
    48   26   27 1
    49   27   57 1
    50   27   58 1
    51   27   59 1
    52   28   29 1
    53   28   60 1
    54   28   61 1
    55   29   30 1
    56   29   31 1
    57   29   39 1
    58   31   32 1
    59   31   62 1
    60   31   63 1
    61   32   33 1
    62   33   38 ar
    63   33   34 ar
    64   34   35 ar
    65   34   64 1
    66   35   36 ar
    67   35   65 1
    68   36   37 ar
    69   36   66 1
    70   37   38 ar
    71   37   67 1
    72   38   68 1
    73   39   69 1
@<TRIPOS>MOLECULE
ZINC40317005
   65    67     0     0     0
SMALL
USER_CHARGES

@<TRIPOS>ATOM
      1 C1         -6.4997   -5.1500   -1.7697 C.3       1 <0>         0.0204
      2 O1         -7.3948   -4.8895   -0.6866 O.3       1 <0>        -0.2925
      3 C2         -7.2468   -3.7053   -0.0345 C.ar      1 <0>         0.1587
      4 C3         -6.3357   -2.7675   -0.4965 C.ar      1 <0>        -0.2102
      5 C4         -6.1846   -1.5635    0.1655 C.ar      1 <0>        -0.0848
      6 C5         -6.9402   -1.2891    1.2900 C.ar      1 <0>        -0.2193
      7 C6         -7.8534   -2.2216    1.7584 C.ar      1 <0>         0.1561
      8 C7         -8.0125   -3.4309    1.0924 C.ar      1 <0>         0.0608
      9 O2         -8.9117   -4.3464    1.5457 O.3       1 <0>        -0.3116
     10 C8         -8.4410   -5.3011    2.4991 C.3       1 <0>         0.0351
     11 O3         -8.5960   -1.9509    2.8651 O.3       1 <0>        -0.2923
     12 C9         -8.3837   -0.6861    3.4955 C.3       1 <0>         0.0216
     13 C10        -5.1929   -0.5474   -0.3398 C.3       1 <0>         0.0377
     14 N1         -5.8156    0.2610   -1.3966 N.4       1 <0>        -0.3713
     15 C11        -4.8113    1.1593   -1.9818 C.3       1 <0>        -0.0445
     16 C12        -3.6894    0.3299   -2.6097 C.3       1 <0>         0.0540
     17 H1         -3.1700   -0.2352   -1.8359 H         1 <0>         0.1021
     18 C13        -2.6942    1.2601   -3.3362 C.3       1 <0>        -0.1463
     19 C14        -2.3492    0.4426   -4.6108 C.3       1 <0>        -0.1566
     20 C15        -3.7021   -0.2617   -4.8836 C.3       1 <0>         0.0499
     21 O4         -4.2353   -0.5677   -3.5833 O.3       1 <0>        -0.3869
     22 C16        -6.9098    1.0565   -0.8240 C.3       1 <0>        -0.0497
     23 C17        -7.6907    1.7353   -1.9510 C.3       1 <0>         0.0927
     24 H2         -7.9714    0.9922   -2.6974 H         1 <0>         0.1344
     25 C18        -8.9522    2.3845   -1.3783 C.3       1 <0>         0.0296
     26 O5         -9.7400    2.9174   -2.4448 O.3       1 <0>        -0.2881
     27 C19       -10.9032    3.5329   -2.1049 C.ar      1 <0>         0.1461
     28 C20       -11.2758    3.6270   -0.7720 C.ar      1 <0>        -0.2044
     29 C21       -12.4585    4.2530   -0.4290 C.ar      1 <0>        -0.0632
     30 C22       -13.2712    4.7857   -1.4128 C.ar      1 <0>        -0.1419
     31 C23       -12.9028    4.6936   -2.7421 C.ar      1 <0>        -0.0502
     32 C24       -11.7175    4.0733   -3.0904 C.ar      1 <0>        -0.1215
     33 Br1       -11.2097    3.9548   -4.9081 Br        1 <0>        -0.0285
     34 O6         -6.8740    2.7373   -2.5602 O.3       1 <0>        -0.5357
     35 H3         -6.6692   -6.1587   -2.1465 H         1 <0>         0.1124
     36 H4         -6.6762   -4.4294   -2.5682 H         1 <0>         0.0611
     37 H5         -5.4711   -5.0607   -1.4205 H         1 <0>         0.0614
     38 H6         -5.7432   -2.9782   -1.3745 H         1 <0>         0.1459
     39 H7         -6.8189   -0.3474    1.8046 H         1 <0>         0.1425
     40 H8         -7.6280   -5.8808    2.0618 H         1 <0>         0.0493
     41 H9         -8.0800   -4.7810    3.3863 H         1 <0>         0.0493
     42 H10        -9.2559   -5.9699    2.7763 H         1 <0>         0.1026
     43 H11        -8.6077    0.1137    2.7897 H         1 <0>         0.0566
     44 H12        -9.0374   -0.5984    4.3633 H         1 <0>         0.1125
     45 H13        -7.3443   -0.6089    3.8142 H         1 <0>         0.0612
     46 H14        -4.8870    0.1011    0.4811 H         1 <0>         0.1380
     47 H15        -4.3196   -1.0609   -0.7420 H         1 <0>         0.1440
     48 H16        -5.2792    1.7771   -2.7483 H         1 <0>         0.1683
     49 H17        -4.3976    1.7989   -1.2021 H         1 <0>         0.1353
     50 H18        -3.1680    2.2061   -3.5985 H         1 <0>         0.0904
     51 H19        -1.8043    1.4260   -2.7290 H         1 <0>         0.0969
     52 H20        -2.0746    1.0993   -5.4363 H         1 <0>         0.0968
     53 H21        -1.5615   -0.2837   -4.4104 H         1 <0>         0.0868
     54 H22        -4.3747    0.4064   -5.4214 H         1 <0>         0.0733
     55 H23        -3.5436   -1.1782   -5.4519 H         1 <0>         0.0991
     56 H24        -7.5774    0.4041   -0.2611 H         1 <0>         0.1452
     57 H25        -6.4978    1.8156   -0.1591 H         1 <0>         0.1390
     58 H26        -9.5319    1.6368   -0.8369 H         1 <0>         0.0831
     59 H27        -8.6704    3.1882   -0.6980 H         1 <0>         0.0791
     60 H28       -10.6418    3.2109   -0.0030 H         1 <0>         0.1319
     61 H29       -12.7489    4.3261    0.6086 H         1 <0>         0.1356
     62 H30       -14.1956    5.2744   -1.1423 H         1 <0>         0.1390
     63 H31       -13.5394    5.1102   -3.5086 H         1 <0>         0.1440
     64 H32        -6.5864    3.4329   -1.9531 H         1 <0>         0.3885
     65 H33        -6.1815   -0.3472   -2.1137 H         1 <0>         0.4312
@<TRIPOS>BOND
     1    1    2 1
     2    1   35 1
     3    1   36 1
     4    1   37 1
     5    2    3 1
     6    3    8 ar
     7    3    4 ar
     8    4    5 ar
     9    4   38 1
    10    5    6 ar
    11    5   13 1
    12    6    7 ar
    13    6   39 1
    14    7    8 ar
    15    7   11 1
    16    8    9 1
    17    9   10 1
    18   10   40 1
    19   10   41 1
    20   10   42 1
    21   11   12 1
    22   12   43 1
    23   12   44 1
    24   12   45 1
    25   13   14 1
    26   13   46 1
    27   13   47 1
    28   14   15 1
    29   14   22 1
    30   14   65 1
    31   15   16 1
    32   15   48 1
    33   15   49 1
    34   16   17 1
    35   16   21 1
    36   16   18 1
    37   18   19 1
    38   18   50 1
    39   18   51 1
    40   19   20 1
    41   19   52 1
    42   19   53 1
    43   20   21 1
    44   20   54 1
    45   20   55 1
    46   22   23 1
    47   22   56 1
    48   22   57 1
    49   23   24 1
    50   23   25 1
    51   23   34 1
    52   25   26 1
    53   25   58 1
    54   25   59 1
    55   26   27 1
    56   27   32 ar
    57   27   28 ar
    58   28   29 ar
    59   28   60 1
    60   29   30 ar
    61   29   61 1
    62   30   31 ar
    63   30   62 1
    64   31   32 ar
    65   31   63 1
    66   32   33 1
    67   34   64 1
@<TRIPOS>MOLECULE
ZINC08822654
   59    61     0     0     0
SMALL
USER_CHARGES
3,4,5-triethoxy-N-[5-[(4-methylthiazol-2-yl)carbamoylmethylsulfanyl]-1,3,4-thiadiazol-2-yl]-benzamide
@<TRIPOS>ATOM
      1 C1        -18.5737    4.8317    2.6146 C.3       1 <0>        -0.1518
      2 C2        -17.2849    4.8739    3.4380 C.3       1 <0>         0.0476
      3 O1        -17.5805    5.3198    4.7631 O.3       1 <0>        -0.2953
      4 C3        -16.5369    5.4142    5.6301 C.ar      1 <0>         0.1497
      5 C4        -15.2608    5.0852    5.2130 C.ar      1 <0>        -0.1667
      6 C5        -14.1891    5.1825    6.1041 C.ar      1 <0>        -0.0613
      7 C6        -14.4114    5.6067    7.4167 C.ar      1 <0>        -0.2043
      8 C7        -15.6887    5.9395    7.8271 C.ar      1 <0>         0.1506
      9 C8        -16.7549    5.8417    6.9371 C.ar      1 <0>         0.0652
     10 O2        -18.0105    6.1646    7.3446 O.3       1 <0>        -0.3094
     11 C9        -18.8023    5.1133    7.9014 C.3       1 <0>         0.0626
     12 C10       -20.1734    5.6634    8.2992 C.3       1 <0>        -0.1497
     13 O3        -15.9051    6.3575    9.1031 O.3       1 <0>        -0.2950
     14 C11       -14.7659    6.4344    9.9625 C.3       1 <0>         0.0479
     15 C12       -15.2028    6.9198   11.3462 C.3       1 <0>        -0.1532
     16 C13       -12.8256    4.8320    5.6616 C.2       1 <0>         0.5611
     17 O4        -12.6341    4.4581    4.5204 O.2       1 <0>        -0.4544
     18 N1        -11.7927    4.9262    6.5222 N.am      1 <0>        -0.6076
     19 C14       -10.5068    4.5956    6.1048 C.2       1 <0>         0.2840
     20 N2        -10.0775    4.1724    4.9270 N.2       1 <0>        -0.2687
     21 N3         -8.8619    3.9136    4.7122 N.2       1 <0>        -0.2562
     22 C15        -7.9396    4.0499    5.6537 C.2       1 <0>        -0.0088
     23 S1         -8.9626    4.6136    7.0109 S.3       1 <0>         0.0630
     24 S2         -6.2039    3.7538    5.5904 S.3       1 <0>         0.1467
     25 C16        -5.9156    3.1960    3.8885 C.3       1 <0>        -0.1580
     26 C17        -4.4495    2.9044    3.6970 C.2       1 <0>         0.5397
     27 O5         -3.6754    3.0577    4.6180 O.2       1 <0>        -0.4819
     28 N4         -3.9986    2.4732    2.5024 N.am      1 <0>        -0.6023
     29 C18        -2.6464    2.2042    2.3257 C.2       1 <0>         0.2769
     30 N5         -2.0195    1.7842    1.2441 N.2       1 <0>        -0.5400
     31 C19        -0.7181    1.5718    1.2479 C.2       1 <0>         0.0796
     32 C20        -0.0286    1.8060    2.3912 C.2       1 <0>        -0.2608
     33 S3         -1.3480    2.3417    3.4706 S.3       1 <0>         0.1618
     34 C21        -0.0127    1.0858    0.0080 C.3       1 <0>        -0.0820
     35 H1        -19.0113    5.8292    2.5732 H         1 <0>         0.0688
     36 H2        -18.3482    4.4916    1.6039 H         1 <0>         0.0822
     37 H3        -19.2799    4.1442    3.0802 H         1 <0>         0.0674
     38 H4        -16.5787    5.5614    2.9725 H         1 <0>         0.0686
     39 H5        -16.8473    3.8765    3.4794 H         1 <0>         0.0674
     40 H6        -15.0922    4.7537    4.1990 H         1 <0>         0.1530
     41 H7        -13.5854    5.6785    8.1088 H         1 <0>         0.1363
     42 H8        -18.9286    4.3228    7.1616 H         1 <0>         0.0535
     43 H9        -18.3030    4.7100    8.7824 H         1 <0>         0.0530
     44 H10       -20.0470    6.4539    9.0390 H         1 <0>         0.0654
     45 H11       -20.6726    6.0667    7.4182 H         1 <0>         0.0657
     46 H12       -20.7773    4.8615    8.7239 H         1 <0>         0.0751
     47 H13       -14.3100    5.4483   10.0507 H         1 <0>         0.0649
     48 H14       -14.0418    7.1335    9.5442 H         1 <0>         0.0661
     49 H15       -15.6587    7.9059   11.2580 H         1 <0>         0.0697
     50 H16       -15.9270    6.2208   11.7645 H         1 <0>         0.0683
     51 H17       -14.3339    6.9785   12.0017 H         1 <0>         0.0819
     52 H18       -11.9455    5.2244    7.4325 H         1 <0>         0.4282
     53 H19        -6.2246    3.9764    3.1932 H         1 <0>         0.1408
     54 H20        -6.4937    2.2914    3.6998 H         1 <0>         0.1408
     55 H21        -4.6178    2.3506    1.7658 H         1 <0>         0.4303
     56 H22         1.0268    1.6983    2.5938 H         1 <0>         0.1976
     57 H23         0.0021   -0.0041    0.0020 H         1 <0>         0.0753
     58 H24         1.0099    1.4631    0.0003 H         1 <0>         0.0764
     59 H25        -0.5399    1.4469   -0.8751 H         1 <0>         0.0742
@<TRIPOS>BOND
     1    1    2 1
     2    1   35 1
     3    1   36 1
     4    1   37 1
     5    2    3 1
     6    2   38 1
     7    2   39 1
     8    3    4 1
     9    4    9 ar
    10    4    5 ar
    11    5    6 ar
    12    5   40 1
    13    6    7 ar
    14    6   16 1
    15    7    8 ar
    16    7   41 1
    17    8    9 ar
    18    8   13 1
    19    9   10 1
    20   10   11 1
    21   11   12 1
    22   11   42 1
    23   11   43 1
    24   12   44 1
    25   12   45 1
    26   12   46 1
    27   13   14 1
    28   14   15 1
    29   14   47 1
    30   14   48 1
    31   15   49 1
    32   15   50 1
    33   15   51 1
    34   16   17 2
    35   16   18 am
    36   18   19 1
    37   18   52 1
    38   19   23 1
    39   19   20 2
    40   20   21 1
    41   21   22 2
    42   22   23 1
    43   22   24 1
    44   24   25 1
    45   25   26 1
    46   25   53 1
    47   25   54 1
    48   26   27 2
    49   26   28 am
    50   28   29 1
    51   28   55 1
    52   29   33 1
    53   29   30 2
    54   30   31 1
    55   31   32 2
    56   31   34 1
    57   32   33 1
    58   32   56 1
    59   34   57 1
    60   34   58 1
    61   34   59 1
@<TRIPOS>MOLECULE
ZINC14743453
   73    77     0     0     0
SMALL
USER_CHARGES
methyl 5-[[(1S)-1-methyl-3-pyrazol-1-yl-propyl]amino]-1-phenethyl-3-[[(2R)-tetrahydrofuran-2-carbonyl]amino]pyrrolo[5,4-b]pyridine-2-carboxylate
@<TRIPOS>ATOM
      1 C1          3.3873    4.2661   -0.1321 C.3       1 <0>        -0.1705
      2 C2          3.2160    3.5483   -1.4724 C.3       1 <0>         0.1535
      3 H1          2.2323    3.7756   -1.8832 H         1 <0>         0.0831
      4 C3          4.2970    4.0216   -2.4462 C.3       1 <0>        -0.1365
      5 C4          4.0518    3.3993   -3.8223 C.3       1 <0>         0.1352
      6 N1          5.0869    3.8524   -4.7547 N.pl3     1 <0>        -0.3732
      7 C5          5.8943    3.0603   -5.4907 C.2       1 <0>         0.0519
      8 C6          6.7058    3.8616   -6.2190 C.2       1 <0>        -0.2745
      9 C7          6.3833    5.1889   -5.9177 C.2       1 <0>         0.0445
     10 N2          5.4092    5.1846   -5.0442 N.2       1 <0>        -0.2955
     11 N3          3.3391    2.1024   -1.2713 N.pl3     1 <0>        -0.7413
     12 C8          2.2232    1.3525   -0.8798 C.ar      1 <0>         0.1219
     13 C9          2.3308   -0.0170   -0.6872 C.ar      1 <0>        -0.0679
     14 C10         1.1850   -0.7181   -0.2967 C.ar      1 <0>        -0.1227
     15 C11         0.9109   -2.1261   -0.0051 C.2       1 <0>         0.1853
     16 C12        -0.4248   -2.2042    0.3319 C.2       1 <0>        -0.0073
     17 N4         -0.9812   -0.9348    0.2643 N.pl3     1 <0>        -0.4463
     18 C13        -0.0257   -0.0219   -0.1137 C.ar      1 <0>         0.2902
     19 N5         -0.0703    1.2901   -0.3132 N.ar      1 <0>        -0.4702
     20 C14         0.9921    1.9729   -0.6811 C.ar      1 <0>         0.1132
     21 C15        -2.3811   -0.6146    0.5538 C.3       1 <0>         0.1215
     22 C16        -3.2056   -0.7246   -0.7303 C.3       1 <0>        -0.0899
     23 C17        -4.6457   -0.3952   -0.4325 C.ar      1 <0>        -0.0815
     24 C18        -5.5224   -1.3987   -0.0646 C.ar      1 <0>        -0.1114
     25 C19        -6.8423   -1.0959    0.2128 C.ar      1 <0>        -0.1199
     26 C20        -7.2878    0.2089    0.1130 C.ar      1 <0>        -0.1213
     27 C21        -6.4122    1.2117   -0.2595 C.ar      1 <0>        -0.1181
     28 C22        -5.0913    0.9095   -0.5328 C.ar      1 <0>        -0.1124
     29 C23        -1.1166   -3.3892    0.6893 C.2       1 <0>         0.5385
     30 O1         -0.5072   -4.4347    0.8162 O.2       1 <0>        -0.5043
     31 O2         -2.4509   -3.3574    0.8889 O.3       1 <0>        -0.3476
     32 C24        -3.0829   -4.5882    1.2467 C.3       1 <0>         0.0323
     33 N6          1.8189   -3.1786   -0.0569 N.am      1 <0>        -0.6355
     34 C25         3.1336   -2.9440    0.1247 C.2       1 <0>         0.5090
     35 O3          3.5177   -1.8275    0.4015 O.2       1 <0>        -0.4836
     36 C26         4.1263   -4.0690   -0.0163 C.3       1 <0>         0.0648
     37 H2          3.8569   -4.8867    0.6522 H         1 <0>         0.1016
     38 C27         4.1480   -4.5692   -1.4737 C.3       1 <0>        -0.1497
     39 C28         5.6178   -4.3758   -1.9194 C.3       1 <0>        -0.1531
     40 C29         6.3634   -4.3145   -0.5620 C.3       1 <0>         0.0432
     41 O4          5.4476   -3.5971    0.2964 O.3       1 <0>        -0.3452
     42 H3          4.3711    4.0388    0.2786 H         1 <0>         0.0609
     43 H4          3.2958    5.3418   -0.2818 H         1 <0>         0.0669
     44 H5          2.6172    3.9289    0.5616 H         1 <0>         0.0625
     45 H6          4.2625    5.1080   -2.5275 H         1 <0>         0.0947
     46 H7          5.2765    3.7158   -2.0785 H         1 <0>         0.0753
     47 H8          4.0864    2.3128   -3.7410 H         1 <0>         0.0964
     48 H9          3.0724    3.7051   -4.1900 H         1 <0>         0.0850
     49 H10         5.8932    1.9804   -5.4971 H         1 <0>         0.1715
     50 H11         7.4679    3.5342   -6.9107 H         1 <0>         0.1469
     51 H12         6.8540    6.0658   -6.3371 H         1 <0>         0.1828
     52 H13         4.1935    1.6645   -1.4094 H         1 <0>         0.4002
     53 H14         3.2713   -0.5270   -0.8346 H         1 <0>         0.1557
     54 H15         0.9081    3.0390   -0.8320 H         1 <0>         0.1614
     55 H16        -2.7680   -1.3139    1.2950 H         1 <0>         0.1025
     56 H17        -2.4485    0.4014    0.9429 H         1 <0>         0.0961
     57 H18        -2.8187   -0.0253   -1.4715 H         1 <0>         0.0778
     58 H19        -3.1382   -1.7406   -1.1194 H         1 <0>         0.0780
     59 H20        -5.1753   -2.4187    0.0094 H         1 <0>         0.1218
     60 H21        -7.5263   -1.8792    0.5042 H         1 <0>         0.1216
     61 H22        -8.3198    0.4450    0.3265 H         1 <0>         0.1211
     62 H23        -6.7603    2.2311   -0.3375 H         1 <0>         0.1223
     63 H24        -4.4073    1.6928   -0.8242 H         1 <0>         0.1231
     64 H25        -4.1523   -4.4230    1.3771 H         1 <0>         0.1044
     65 H26        -2.9222   -5.3221    0.4571 H         1 <0>         0.0641
     66 H27        -2.6560   -4.9581    2.1790 H         1 <0>         0.0640
     67 H28         1.5059   -4.0815   -0.2237 H         1 <0>         0.4219
     68 H29         3.8708   -5.6224   -1.5197 H         1 <0>         0.0919
     69 H30         3.4797   -3.9704   -2.0925 H         1 <0>         0.0827
     70 H31         5.9592   -5.2240   -2.5127 H         1 <0>         0.0879
     71 H32         5.7373   -3.4438   -2.4719 H         1 <0>         0.0804
     72 H33         6.5415   -5.3182   -0.1762 H         1 <0>         0.0675
     73 H34         7.3030   -3.7716   -0.6643 H         1 <0>         0.1002
@<TRIPOS>BOND
     1    1    2 1
     2    1   42 1
     3    1   43 1
     4    1   44 1
     5    2    3 1
     6    2    4 1
     7    2   11 1
     8    4    5 1
     9    4   45 1
    10    4   46 1
    11    5    6 1
    12    5   47 1
    13    5   48 1
    14    6   10 1
    15    6    7 1
    16    7    8 2
    17    7   49 1
    18    8    9 1
    19    8   50 1
    20    9   10 2
    21    9   51 1
    22   11   12 1
    23   11   52 1
    24   12   20 ar
    25   12   13 ar
    26   13   14 ar
    27   13   53 1
    28   14   18 ar
    29   14   15 1
    30   15   16 2
    31   15   33 1
    32   16   17 1
    33   16   29 1
    34   17   18 1
    35   17   21 1
    36   18   19 ar
    37   19   20 ar
    38   20   54 1
    39   21   22 1
    40   21   55 1
    41   21   56 1
    42   22   23 1
    43   22   57 1
    44   22   58 1
    45   23   28 ar
    46   23   24 ar
    47   24   25 ar
    48   24   59 1
    49   25   26 ar
    50   25   60 1
    51   26   27 ar
    52   26   61 1
    53   27   28 ar
    54   27   62 1
    55   28   63 1
    56   29   30 2
    57   29   31 1
    58   31   32 1
    59   32   64 1
    60   32   65 1
    61   32   66 1
    62   33   34 am
    63   33   67 1
    64   34   35 2
    65   34   36 1
    66   36   37 1
    67   36   41 1
    68   36   38 1
    69   38   39 1
    70   38   68 1
    71   38   69 1
    72   39   40 1
    73   39   70 1
    74   39   71 1
    75   40   41 1
    76   40   72 1
    77   40   73 1
@<TRIPOS>MOLECULE
ZINC21878078
   74    77     0     0     0
SMALL
USER_CHARGES
(6R)-5-butyl-N'-cyclopentyl-N-[(3,4-dimethoxyphenyl)methyl]-6-methyl-4-oxo-7H-pyrazolo[1,5-d]pyrazine-2,6-dicarboxamide
@<TRIPOS>ATOM
      1 C1         11.2000   -0.1427   -1.5248 C.3       1 <0>        -0.1540
      2 C2         10.2899   -0.6847   -0.4207 C.3       1 <0>        -0.1195
      3 C3          8.8270   -0.4896   -0.8240 C.3       1 <0>        -0.1368
      4 C4          7.9169   -1.0316    0.2800 C.3       1 <0>         0.0821
      5 N1          6.5162   -0.8448   -0.1062 N.am      1 <0>        -0.6082
      6 C5          5.9159    0.3453    0.1364 C.2       1 <0>         0.6047
      7 O1          6.5468    1.3194    0.5003 O.2       1 <0>        -0.4886
      8 C6          4.4579    0.3955   -0.0651 C.2       1 <0>        -0.0569
      9 C7          3.5948    1.4365   -0.0956 C.2       1 <0>        -0.0767
     10 C8          2.3249    0.8580   -0.3208 C.2       1 <0>        -0.0261
     11 N2          2.4920   -0.4521   -0.4006 N.2       1 <0>        -0.2143
     12 N3          3.7222   -0.7565   -0.2522 N.pl3     1 <0>        -0.2684
     13 C9          4.3633   -2.0774   -0.2403 C.3       1 <0>         0.1195
     14 C10         5.7999   -1.9445   -0.7435 C.3       1 <0>         0.1468
     15 C11         5.7749   -1.7087   -2.2550 C.3       1 <0>        -0.1554
     16 C12         6.5346   -3.2306   -0.4657 C.2       1 <0>         0.5269
     17 O2          6.7788   -3.9976   -1.3729 O.2       1 <0>        -0.5050
     18 N4          6.9202   -3.5285    0.7909 N.am      1 <0>        -0.7338
     19 C13         7.7306   -4.7223    1.0448 C.3       1 <0>         0.1374
     20 C14         6.8163   -5.9478    1.2500 C.3       1 <0>        -0.1363
     21 C15         7.5273   -6.7707    2.3539 C.3       1 <0>        -0.1254
     22 C16         8.0774   -5.6733    3.2985 C.3       1 <0>        -0.1199
     23 C17         8.5324   -4.5479    2.3465 C.3       1 <0>        -0.1268
     24 C18         1.0433    1.5838   -0.4392 C.2       1 <0>         0.6078
     25 O3          1.0196    2.7953   -0.3418 O.2       1 <0>        -0.5293
     26 N5         -0.0994    0.9026   -0.6552 N.am      1 <0>        -0.7242
     27 C19        -1.3692    1.6226   -0.7786 C.3       1 <0>         0.1673
     28 C20        -2.4837    0.6377   -1.0215 C.ar      1 <0>        -0.1069
     29 C21        -3.1643    0.0885    0.0492 C.ar      1 <0>        -0.0937
     30 C22        -4.1874   -0.8154   -0.1684 C.ar      1 <0>        -0.1749
     31 C23        -4.5329   -1.1726   -1.4618 C.ar      1 <0>         0.1090
     32 C24        -3.8481   -0.6195   -2.5395 C.ar      1 <0>         0.0981
     33 C25        -2.8268    0.2896   -2.3146 C.ar      1 <0>        -0.1523
     34 O4         -4.1835   -0.9669   -3.8109 O.3       1 <0>        -0.3053
     35 C26        -3.4376   -0.3595   -4.8676 C.3       1 <0>         0.0219
     36 O5         -5.5394   -2.0614   -1.6776 O.3       1 <0>        -0.3053
     37 C27        -6.1983   -2.5880   -0.5241 C.3       1 <0>         0.0217
     38 H1         12.2518   -0.2830   -1.2348 H         1 <0>         0.0564
     39 H2         10.9999    0.9289   -1.6717 H         1 <0>         0.0558
     40 H3         11.0025   -0.6844   -2.4616 H         1 <0>         0.0537
     41 H4         10.4900   -1.7563   -0.2738 H         1 <0>         0.0607
     42 H5         10.4873   -0.1430    0.5161 H         1 <0>         0.0650
     43 H6          8.6270    0.5820   -0.9709 H         1 <0>         0.0730
     44 H7          8.6295   -1.0312   -1.7608 H         1 <0>         0.0636
     45 H8          8.1170   -2.1032    0.4269 H         1 <0>         0.1070
     46 H9          8.1143   -0.4900    1.2168 H         1 <0>         0.0891
     47 H10         3.8261    2.4843    0.0263 H         1 <0>         0.1775
     48 H11         4.3672   -2.4738    0.7858 H         1 <0>         0.1084
     49 H12         3.8049   -2.7619   -0.8957 H         1 <0>         0.1338
     50 H13         5.2366   -2.5329   -2.7458 H         1 <0>         0.0860
     51 H14         6.8057   -1.6654   -2.6364 H         1 <0>         0.0805
     52 H15         5.2644   -0.7582   -2.4694 H         1 <0>         0.0689
     53 H16         6.6265   -2.8753    1.6258 H         1 <0>         0.4224
     54 H17         8.3802   -4.8227    0.1628 H         1 <0>         0.0936
     55 H18         5.8173   -5.6114    1.5644 H         1 <0>         0.0701
     56 H19         6.7348   -6.5066    0.3060 H         1 <0>         0.0723
     57 H20         6.7976   -7.4293    2.8477 H         1 <0>         0.0699
     58 H21         8.3237   -7.3799    1.9016 H         1 <0>         0.0707
     59 H22         7.2792   -5.3411    3.9786 H         1 <0>         0.0688
     60 H23         8.9137   -6.0804    3.8858 H         1 <0>         0.0714
     61 H24         9.6075   -4.6293    2.1286 H         1 <0>         0.0796
     62 H25         8.3197   -3.5589    2.7785 H         1 <0>         0.0738
     63 H26        -0.0786   -0.1940   -0.7388 H         1 <0>         0.4303
     64 H27        -1.5671    2.1786    0.1497 H         1 <0>         0.0806
     65 H28        -1.3113    2.3262   -1.6222 H         1 <0>         0.0782
     66 H29        -2.8960    0.3660    1.0579 H         1 <0>         0.1301
     67 H30        -4.7176   -1.2430    0.6698 H         1 <0>         0.1379
     68 H31        -2.2962    0.7232   -3.1494 H         1 <0>         0.1376
     69 H32        -3.8091   -0.7256   -5.8361 H         1 <0>         0.1036
     70 H33        -2.3738   -0.6184   -4.7613 H         1 <0>         0.0562
     71 H34        -3.5557    0.7330   -4.8188 H         1 <0>         0.0569
     72 H35        -6.9851   -3.2891   -0.8394 H         1 <0>         0.1036
     73 H36        -6.6492   -1.7642    0.0486 H         1 <0>         0.0572
     74 H37        -5.4678   -3.1161    0.1063 H         1 <0>         0.0567
@<TRIPOS>BOND
     1    1    2 1
     2    1   38 1
     3    1   39 1
     4    1   40 1
     5    2    3 1
     6    2   41 1
     7    2   42 1
     8    3    4 1
     9    3   43 1
    10    3   44 1
    11    4    5 1
    12    4   45 1
    13    4   46 1
    14    5   14 1
    15    5    6 am
    16    6    7 2
    17    6    8 1
    18    8   12 1
    19    8    9 2
    20    9   10 1
    21    9   47 1
    22   10   11 2
    23   10   24 1
    24   11   12 1
    25   12   13 1
    26   13   14 1
    27   13   48 1
    28   13   49 1
    29   14   15 1
    30   14   16 1
    31   15   50 1
    32   15   51 1
    33   15   52 1
    34   16   17 2
    35   16   18 am
    36   18   19 1
    37   18   53 1
    38   19   23 1
    39   19   20 1
    40   19   54 1
    41   20   21 1
    42   20   55 1
    43   20   56 1
    44   21   22 1
    45   21   57 1
    46   21   58 1
    47   22   23 1
    48   22   59 1
    49   22   60 1
    50   23   61 1
    51   23   62 1
    52   24   25 2
    53   24   26 am
    54   26   27 1
    55   26   63 1
    56   27   28 1
    57   27   64 1
    58   27   65 1
    59   28   33 ar
    60   28   29 ar
    61   29   30 ar
    62   29   66 1
    63   30   31 ar
    64   30   67 1
    65   31   32 ar
    66   31   36 1
    67   32   33 ar
    68   32   34 1
    69   33   68 1
    70   34   35 1
    71   35   69 1
    72   35   70 1
    73   35   71 1
    74   36   37 1
    75   37   72 1
    76   37   73 1
    77   37   74 1
@<TRIPOS>MOLECULE
ZINC39741689
   57    59     0     0     0
SMALL
USER_CHARGES

@<TRIPOS>ATOM
      1 C1         -0.0187    1.5258    0.0104 C.3       1 <0>        -0.1508
      2 C2          0.0021   -0.0041    0.0020 C.3       1 <0>        -0.0287
      3 C3          0.7074   -0.4901   -1.2379 C.2       1 <0>         0.0392
      4 N1          1.9827   -0.7590   -1.4344 N.2       1 <0>        -0.2334
      5 N2          2.3580   -1.1608   -2.5721 N.2       1 <0>        -0.2977
      6 C4          1.5104   -1.3192   -3.5695 C.2       1 <0>         0.2297
      7 S1          0.0500   -0.8723   -2.8554 S.3       1 <0>         0.0816
      8 N3          1.7560   -1.7481   -4.8695 N.am      1 <0>        -0.6075
      9 C5          3.0093   -2.0683   -5.2480 C.2       1 <0>         0.5336
     10 O1          3.9229   -1.9824   -4.4549 O.2       1 <0>        -0.4451
     11 C6          3.2754   -2.5331   -6.6566 C.3       1 <0>        -0.1034
     12 H1          2.4293   -3.1219   -7.0109 H         1 <0>         0.1299
     13 C7          3.4681   -1.3183   -7.5666 C.3       1 <0>        -0.1479
     14 S2          4.7754   -3.5528   -6.6837 S.3       1 <0>         0.0826
     15 C8          4.8666   -4.1328   -8.3450 C.2       1 <0>         0.1526
     16 N4          4.0243   -3.8602   -9.3143 N.2       1 <0>        -0.2886
     17 N5          4.3956   -4.4501  -10.3941 N.2       1 <0>        -0.2702
     18 C9          5.4874   -5.1284  -10.1806 C.2       1 <0>         0.1764
     19 N6          5.8301   -4.9460   -8.8692 N.pl3     1 <0>        -0.4447
     20 C10         6.9884   -5.5091   -8.1710 C.3       1 <0>         0.1281
     21 C11         6.6167   -6.8429   -7.5762 C.2       1 <0>        -0.1945
     22 C12         7.3239   -7.9078   -7.8628 C.2       1 <0>        -0.1430
     23 C13         6.2374   -5.9554  -11.1928 C.3       1 <0>         0.2394
     24 H2          6.9419   -6.6087  -10.6780 H         1 <0>         0.1072
     25 C14         7.0004   -5.0302  -12.1428 C.3       1 <0>        -0.1605
     26 N7          5.2889   -6.7675  -11.9591 N.am      1 <0>        -0.7146
     27 C15         5.6977   -7.9132  -12.5393 C.2       1 <0>         0.5670
     28 O2          6.8534   -8.2728  -12.4269 O.2       1 <0>        -0.5286
     29 C16         4.7408   -8.7324  -13.3123 C.ar      1 <0>        -0.1341
     30 C17         3.4142   -8.3190  -13.4480 C.ar      1 <0>        -0.0714
     31 C18         2.5261   -9.0873  -14.1709 C.ar      1 <0>        -0.1169
     32 C19         2.9478  -10.2672  -14.7613 C.ar      1 <0>        -0.0091
     33 C20         4.2627  -10.6825  -14.6301 C.ar      1 <0>        -0.1179
     34 C21         5.1614   -9.9197  -13.9145 C.ar      1 <0>        -0.0439
     35 Cl1         1.8237  -11.2297  -15.6688 Cl        1 <0>        -0.0576
     36 H3          1.0039    1.9031    0.0027 H         1 <0>         0.0646
     37 H4         -0.5459    1.8868   -0.8726 H         1 <0>         0.0595
     38 H5         -0.5289    1.8773    0.9072 H         1 <0>         0.0754
     39 H6          0.5293   -0.3651    0.8851 H         1 <0>         0.1080
     40 H7         -1.0205   -0.3814    0.0098 H         1 <0>         0.0966
     41 H8          1.0253   -1.8167   -5.5038 H         1 <0>         0.4317
     42 H9          3.6606   -1.6544   -8.5855 H         1 <0>         0.0937
     43 H10         2.5668   -0.7055   -7.5504 H         1 <0>         0.0758
     44 H11         4.3142   -0.7295   -7.2123 H         1 <0>         0.0771
     45 H12         7.8087   -5.6417   -8.8764 H         1 <0>         0.1081
     46 H13         7.2987   -4.8307   -7.3763 H         1 <0>         0.1128
     47 H14         5.7674   -6.9210   -6.9137 H         1 <0>         0.1209
     48 H15         7.0576   -8.8637   -7.4365 H         1 <0>         0.1109
     49 H16         8.1732   -7.8297   -8.5253 H         1 <0>         0.1050
     50 H17         7.5428   -5.6284  -12.8750 H         1 <0>         0.0794
     51 H18         6.2959   -4.3769  -12.6576 H         1 <0>         0.0727
     52 H19         7.7061   -4.4260  -11.5727 H         1 <0>         0.0699
     53 H20         4.3666   -6.4806  -12.0488 H         1 <0>         0.4101
     54 H21         3.0841   -7.3996  -12.9875 H         1 <0>         0.1368
     55 H22         1.4996   -8.7686  -14.2766 H         1 <0>         0.1424
     56 H23         4.5856  -11.6036  -15.0924 H         1 <0>         0.1434
     57 H24         6.1874  -10.2423  -13.8164 H         1 <0>         0.1479
@<TRIPOS>BOND
     1    1    2 1
     2    1   36 1
     3    1   37 1
     4    1   38 1
     5    2    3 1
     6    2   39 1
     7    2   40 1
     8    3    7 1
     9    3    4 2
    10    4    5 1
    11    5    6 2
    12    6    7 1
    13    6    8 1
    14    8    9 am
    15    8   41 1
    16    9   10 2
    17    9   11 1
    18   11   12 1
    19   11   13 1
    20   11   14 1
    21   13   42 1
    22   13   43 1
    23   13   44 1
    24   14   15 1
    25   15   19 1
    26   15   16 2
    27   16   17 1
    28   17   18 2
    29   18   19 1
    30   18   23 1
    31   19   20 1
    32   20   21 1
    33   20   45 1
    34   20   46 1
    35   21   22 2
    36   21   47 1
    37   22   48 1
    38   22   49 1
    39   23   24 1
    40   23   25 1
    41   23   26 1
    42   25   50 1
    43   25   51 1
    44   25   52 1
    45   26   27 am
    46   26   53 1
    47   27   28 2
    48   27   29 1
    49   29   34 ar
    50   29   30 ar
    51   30   31 ar
    52   30   54 1
    53   31   32 ar
    54   31   55 1
    55   32   33 ar
    56   32   35 1
    57   33   34 ar
    58   33   56 1
    59   34   57 1
@<TRIPOS>MOLECULE
ZINC01772841
   82    86     0     0     0
SMALL
USER_CHARGES

@<TRIPOS>ATOM
      1 C1          0.4867    1.2499    0.5400 C.3       1 <0>        -0.1367
      2 C2          0.3882   -0.2968    0.3787 C.3       1 <0>        -0.0212
      3 C3          0.8360   -0.5724   -1.0294 C.3       1 <0>        -0.1509
      4 C4          1.3741   -1.9818   -1.2602 C.3       1 <0>         0.1083
      5 H1          1.7726   -2.0411   -2.2793 H         1 <0>         0.0570
      6 C5          2.5079   -2.2227   -0.2608 C.3       1 <0>        -0.0464
      7 H2          3.2068   -1.3672   -0.3296 H         1 <0>         0.0820
      8 C6          1.9221   -2.2337    1.1436 C.3       1 <0>        -0.0699
      9 H3          1.1676   -3.0117    1.2381 H         1 <0>         0.0944
     10 C7          1.2837   -0.8792    1.4756 C.3       1 <0>        -0.0721
     11 H4          2.0634   -0.1546    1.7652 H         1 <0>         0.0856
     12 C8          0.3162   -1.1496    2.6646 C.3       1 <0>        -0.1184
     13 C9         -0.9968   -1.5627    1.9610 C.3       1 <0>        -0.1393
     14 C10        -1.0610   -0.6420    0.7208 C.3       1 <0>         0.1131
     15 C11        -1.8157   -1.3099   -0.3877 C.2       1 <0>         0.3396
     16 O1         -1.9138   -2.5132   -0.4120 O.2       1 <0>        -0.3872
     17 C12        -2.4526   -0.4800   -1.4725 C.3       1 <0>         0.0117
     18 O2         -3.1089   -1.3396   -2.4066 O.3       1 <0>        -0.3349
     19 C13        -3.7306   -0.7532   -3.4416 C.2       1 <0>         0.4638
     20 O3         -3.7180    0.4500   -3.5510 O.2       1 <0>        -0.5043
     21 C14        -4.4443   -1.5956   -4.4673 C.3       1 <0>        -0.0978
     22 C15        -5.0630   -0.6876   -5.5320 C.3       1 <0>        -0.1313
     23 C16        -5.7767   -1.5300   -6.5576 C.2       1 <0>         0.5149
     24 O4         -5.7893   -2.7377   -6.4479 O.2       1 <0>        -0.5360
     25 N1         -6.4010   -0.9412   -7.5969 N.am      1 <0>        -0.7314
     26 C17        -7.0948   -1.7602   -8.5940 C.3       1 <0>         0.1237
     27 C18        -7.7135   -0.8521   -9.6587 C.3       1 <0>        -0.0915
     28 C19        -8.4272   -1.6945  -10.6844 C.ar      1 <0>        -0.0857
     29 C20        -7.7462   -2.1547  -11.7958 C.ar      1 <0>        -0.1139
     30 C21        -8.4009   -2.9274  -12.7367 C.ar      1 <0>        -0.1179
     31 C22        -9.7364   -3.2404  -12.5658 C.ar      1 <0>        -0.1200
     32 C23       -10.4172   -2.7810  -11.4538 C.ar      1 <0>        -0.1179
     33 C24        -9.7614   -2.0118  -10.5108 C.ar      1 <0>        -0.1138
     34 O5         -1.7517    0.5675    1.0895 O.3       1 <0>        -0.5431
     35 C25         3.0204   -2.4670    2.1897 C.3       1 <0>        -0.1176
     36 C26         3.7649   -3.7756    1.9284 C.3       1 <0>        -0.0949
     37 C27         4.2908   -3.7367    0.5060 C.2       1 <0>        -0.0260
     38 C28         5.5814   -3.9154    0.2819 C.2       1 <0>        -0.2304
     39 C29         6.1163   -3.8652   -1.0882 C.2       1 <0>         0.4081
     40 O6          7.3005   -4.0473   -1.3019 O.2       1 <0>        -0.4599
     41 C30         5.1842   -3.5807   -2.1914 C.2       1 <0>        -0.2178
     42 C31         3.8954   -3.4116   -1.9447 C.2       1 <0>        -0.0675
     43 C32         3.2824   -3.4920   -0.5853 C.3       1 <0>        -0.0048
     44 C33         2.3525   -4.7054   -0.5894 C.3       1 <0>        -0.1351
     45 O7          0.3294   -2.9362   -1.1073 O.3       1 <0>        -0.5400
     46 H5          1.5234    1.5629    0.4159 H         1 <0>         0.0512
     47 H6         -0.1319    1.7342   -0.2157 H         1 <0>         0.0573
     48 H7          0.1374    1.5347    1.5325 H         1 <0>         0.0706
     49 H8          0.0603   -0.3422   -1.7526 H         1 <0>         0.0680
     50 H9          1.6676    0.1270   -1.2484 H         1 <0>         0.0796
     51 H10         0.6887   -1.9649    3.2846 H         1 <0>         0.0754
     52 H11         0.1710   -0.2513    3.2599 H         1 <0>         0.0711
     53 H12        -0.9523   -2.6041    1.6593 H         1 <0>         0.0963
     54 H13        -1.8466   -1.3765    2.6105 H         1 <0>         0.0733
     55 H14        -3.1811    0.1993   -1.0299 H         1 <0>         0.1039
     56 H15        -1.6841    0.0966   -1.9873 H         1 <0>         0.1027
     57 H16        -3.7336   -2.2751   -4.9377 H         1 <0>         0.1174
     58 H17        -5.2306   -2.1724   -3.9803 H         1 <0>         0.1177
     59 H18        -5.7737   -0.0081   -5.0616 H         1 <0>         0.1056
     60 H19        -4.2767   -0.1108   -6.0190 H         1 <0>         0.1054
     61 H20        -6.3909    0.0247   -7.6847 H         1 <0>         0.4033
     62 H21        -6.3841   -2.4396   -9.0644 H         1 <0>         0.0713
     63 H22        -7.8811   -2.3370   -8.1070 H         1 <0>         0.0713
     64 H23        -8.4242   -0.1726   -9.1883 H         1 <0>         0.0805
     65 H24        -6.9272   -0.2753  -10.1457 H         1 <0>         0.0805
     66 H25        -6.7027   -1.9101  -11.9294 H         1 <0>         0.1221
     67 H26        -7.8690   -3.2863  -13.6054 H         1 <0>         0.1233
     68 H27       -10.2481   -3.8435  -13.3012 H         1 <0>         0.1226
     69 H28       -11.4607   -3.0252  -11.3205 H         1 <0>         0.1233
     70 H29       -10.2923   -1.6560   -9.6402 H         1 <0>         0.1222
     71 H30        -2.6809    0.4345    1.3221 H         1 <0>         0.3742
     72 H31         3.7226   -1.6345    2.1671 H         1 <0>         0.0658
     73 H32         2.5616   -2.5103    3.1824 H         1 <0>         0.0732
     74 H33         4.6046   -3.8638    2.6247 H         1 <0>         0.0783
     75 H34         3.0975   -4.6216    2.0656 H         1 <0>         0.0874
     76 H35         6.2490   -4.1057    1.1082 H         1 <0>         0.1357
     77 H36         5.5535   -3.5063   -3.2044 H         1 <0>         0.1379
     78 H37         3.2432   -3.2099   -2.7805 H         1 <0>         0.1239
     79 H38         1.5753   -4.5650   -1.3407 H         1 <0>         0.0873
     80 H39         2.9263   -5.6021   -0.8235 H         1 <0>         0.0511
     81 H40         1.8929   -4.8143    0.3929 H         1 <0>         0.0684
     82 H41        -0.3523   -2.8862   -1.7913 H         1 <0>         0.3745
@<TRIPOS>BOND
     1    1    2 1
     2    1   46 1
     3    1   47 1
     4    1   48 1
     5    2   10 1
     6    2   14 1
     7    2    3 1
     8    3    4 1
     9    3   49 1
    10    3   50 1
    11    4    5 1
    12    4    6 1
    13    4   45 1
    14    6    7 1
    15    6   43 1
    16    6    8 1
    17    8    9 1
    18    8   10 1
    19    8   35 1
    20   10   11 1
    21   10   12 1
    22   12   13 1
    23   12   51 1
    24   12   52 1
    25   13   14 1
    26   13   53 1
    27   13   54 1
    28   14   15 1
    29   14   34 1
    30   15   16 2
    31   15   17 1
    32   17   18 1
    33   17   55 1
    34   17   56 1
    35   18   19 1
    36   19   20 2
    37   19   21 1
    38   21   22 1
    39   21   57 1
    40   21   58 1
    41   22   23 1
    42   22   59 1
    43   22   60 1
    44   23   24 2
    45   23   25 am
    46   25   26 1
    47   25   61 1
    48   26   27 1
    49   26   62 1
    50   26   63 1
    51   27   28 1
    52   27   64 1
    53   27   65 1
    54   28   33 ar
    55   28   29 ar
    56   29   30 ar
    57   29   66 1
    58   30   31 ar
    59   30   67 1
    60   31   32 ar
    61   31   68 1
    62   32   33 ar
    63   32   69 1
    64   33   70 1
    65   34   71 1
    66   35   36 1
    67   35   72 1
    68   35   73 1
    69   36   37 1
    70   36   74 1
    71   36   75 1
    72   37   43 1
    73   37   38 2
    74   38   39 1
    75   38   76 1
    76   39   40 2
    77   39   41 1
    78   41   42 2
    79   41   77 1
    80   42   43 1
    81   42   78 1
    82   43   44 1
    83   44   79 1
    84   44   80 1
    85   44   81 1
    86   45   82 1
@<TRIPOS>MOLECULE
ZINC09454241
   67    69     0     0     0
SMALL
USER_CHARGES
2-[2-(3,4-dimethoxyphenyl)ethylamino]-4-[(3-ethoxycarbonyl-4,5,6,7-tetrahydrobenzothiophen-2-yl)amino]-4-oxo-butanoic acid
@<TRIPOS>ATOM
      1 C1         -8.7206   12.5747   -4.9260 C.3       1 <0>        -0.1541
      2 C2         -8.4745   12.1980   -3.4637 C.3       1 <0>         0.0584
      3 O1         -7.0727   11.8682   -3.2782 O.3       1 <0>        -0.3491
      4 C3         -6.6866   11.5117   -2.0359 C.2       1 <0>         0.5284
      5 O2         -7.5004   11.4776   -1.1325 O.2       1 <0>        -0.4926
      6 C4         -5.2879   11.1657   -1.7749 C.2       1 <0>        -0.1926
      7 C5         -4.3240   12.1757   -1.3708 C.2       1 <0>        -0.0625
      8 C6         -3.0674   11.7238   -1.1696 C.2       1 <0>        -0.1986
      9 S1         -3.1524    9.9865   -1.4998 S.3       1 <0>         0.2415
     10 C7         -4.8333    9.8595   -1.9003 C.2       1 <0>         0.0651
     11 N1         -5.5492    8.7295   -2.2636 N.am      1 <0>        -0.6095
     12 C8         -4.9302    7.5346   -2.3379 C.2       1 <0>         0.5078
     13 O3         -3.7468    7.4481   -2.0870 O.2       1 <0>        -0.5160
     14 C9         -5.7085    6.3061   -2.7329 C.3       1 <0>        -0.1462
     15 C10        -4.7767    5.0925   -2.7402 C.3       1 <0>        -0.0002
     16 H1         -3.9235    5.2934   -3.3881 H         1 <0>         0.1475
     17 C11        -5.5241    3.8885   -3.2527 C.2       1 <0>         0.4606
     18 O4         -5.6496    2.9121   -2.5521 O.co2     1 <0>        -0.6076
     19 C12        -3.0188    4.1182   -1.3901 C.3       1 <0>         0.0076
     20 C13        -2.5592    3.8636    0.0469 C.3       1 <0>        -0.0949
     21 C14        -1.2413    3.1330    0.0308 C.ar      1 <0>        -0.0945
     22 C15        -1.2190    1.7507    0.0173 C.ar      1 <0>        -0.1005
     23 C16        -0.0126    1.0758    0.0080 C.ar      1 <0>        -0.1707
     24 C17         1.1779    1.7849    0.0004 C.ar      1 <0>         0.1092
     25 C18         1.1554    3.1762    0.0081 C.ar      1 <0>         0.1017
     26 C19        -0.0572    3.8465    0.0234 C.ar      1 <0>        -0.1635
     27 O5          2.3212    3.8766    0.0012 O.3       1 <0>        -0.3042
     28 C20         2.2216    5.3021    0.0098 C.3       1 <0>         0.0252
     29 O6          2.3655    1.1226   -0.0150 O.3       1 <0>        -0.3048
     30 C21         2.3119   -0.3054   -0.0227 C.3       1 <0>         0.0241
     31 C22        -1.8732   12.5285   -0.7583 C.3       1 <0>        -0.0369
     32 C23        -2.1993   14.0156   -0.9594 C.3       1 <0>        -0.1158
     33 C24        -3.5714   14.3071   -0.3449 C.3       1 <0>        -0.1191
     34 C25        -4.6677   13.6484   -1.1841 C.3       1 <0>        -0.0650
     35 H2         -9.7730   12.8223   -5.0653 H         1 <0>         0.0834
     36 H3         -8.1069   13.4368   -5.1874 H         1 <0>         0.0682
     37 H4         -8.4574   11.7335   -5.5672 H         1 <0>         0.0681
     38 H5         -9.0882   11.3359   -3.2023 H         1 <0>         0.0718
     39 H6         -8.7378   13.0392   -2.8225 H         1 <0>         0.0728
     40 H7         -6.4957    8.7987   -2.4643 H         1 <0>         0.4256
     41 H8         -6.1293    6.4471   -3.7285 H         1 <0>         0.1562
     42 H9         -6.5144    6.1411   -2.0178 H         1 <0>         0.1225
     43 H10        -2.2743    4.7230   -1.9079 H         1 <0>         0.1251
     44 H11        -3.1373    3.1662   -1.9077 H         1 <0>         0.1350
     45 H12        -3.3036    3.2588    0.5647 H         1 <0>         0.0960
     46 H13        -2.4407    4.8155    0.5645 H         1 <0>         0.0896
     47 H14        -2.1462    1.1969    0.0183 H         1 <0>         0.1329
     48 H15         0.0021   -0.0041    0.0020 H         1 <0>         0.1399
     49 H16        -0.0774    4.9263    0.0290 H         1 <0>         0.1374
     50 H17         1.6755    5.6336   -0.8734 H         1 <0>         0.0556
     51 H18         1.6919    5.6239    0.9065 H         1 <0>         0.0553
     52 H19         3.2214    5.7363    0.0030 H         1 <0>         0.1030
     53 H20         1.7935   -0.6543    0.8704 H         1 <0>         0.0569
     54 H21         1.7762   -0.6441   -0.9094 H         1 <0>         0.0576
     55 H22         3.3252   -0.7070   -0.0349 H         1 <0>         0.1035
     56 H23        -1.6477   12.3407    0.2914 H         1 <0>         0.0851
     57 H24        -1.0159   12.2537   -1.3728 H         1 <0>         0.0839
     58 H25        -1.4416   14.6255   -0.4675 H         1 <0>         0.0767
     59 H26        -2.2177   14.2448   -2.0248 H         1 <0>         0.0703
     60 H27        -3.6052   13.9111    0.6701 H         1 <0>         0.0683
     61 H28        -3.7350   15.3844   -0.3189 H         1 <0>         0.0732
     62 H29        -5.6248   13.7379   -0.6702 H         1 <0>         0.0748
     63 H30        -4.7276   14.1379   -2.1561 H         1 <0>         0.0823
     64 O7         -6.0503    3.9006   -4.4874 O.co2     1 <0>        -0.6955
     65 N2         -4.3087    4.8333   -1.3655 N.4       1 <0>        -0.4989
     66 H31        -5.0042    4.2604   -0.8733 H         1 <0>         0.4302
     67 H32        -4.1913    5.7268   -0.8736 H         1 <0>         0.4151
@<TRIPOS>BOND
     1    1    2 1
     2    1   35 1
     3    1   36 1
     4    1   37 1
     5    2    3 1
     6    2   38 1
     7    2   39 1
     8    3    4 1
     9    4    5 2
    10    4    6 1
    11    6   10 2
    12    6    7 1
    13    7   34 1
    14    7    8 2
    15    8    9 1
    16    8   31 1
    17    9   10 1
    18   10   11 1
    19   11   12 am
    20   11   40 1
    21   12   13 2
    22   12   14 1
    23   14   15 1
    24   14   41 1
    25   14   42 1
    26   15   16 1
    27   15   17 1
    28   15   65 1
    29   17   18 2
    30   17   64 1
    31   19   20 1
    32   19   43 1
    33   19   44 1
    34   19   65 1
    35   20   21 1
    36   20   45 1
    37   20   46 1
    38   21   26 ar
    39   21   22 ar
    40   22   23 ar
    41   22   47 1
    42   23   24 ar
    43   23   48 1
    44   24   25 ar
    45   24   29 1
    46   25   26 ar
    47   25   27 1
    48   26   49 1
    49   27   28 1
    50   28   50 1
    51   28   51 1
    52   28   52 1
    53   29   30 1
    54   30   53 1
    55   30   54 1
    56   30   55 1
    57   31   32 1
    58   31   56 1
    59   31   57 1
    60   32   33 1
    61   32   58 1
    62   32   59 1
    63   33   34 1
    64   33   60 1
    65   33   61 1
    66   34   62 1
    67   34   63 1
    68   65   66 1
    69   65   67 1
@<TRIPOS>MOLECULE
ZINC16890734
   56    58     0     0     0
SMALL
USER_CHARGES
N-(4-acetylphenyl)-2-[1-[2-[(4-chlorophenyl)methylamino]-2-oxo-ethyl]-5-(hydroxymethyl)imidazol-2-yl]sulfanyl-acetamide
@<TRIPOS>ATOM
      1 C1         12.4571   -2.7497   -1.2089 C.3       1 <0>        -0.1933
      2 C2         11.5558   -3.7602   -0.5474 C.2       1 <0>         0.3956
      3 O1         12.0183   -4.7962   -0.1182 O.2       1 <0>        -0.4596
      4 C3         10.1177   -3.4908   -0.4224 C.ar      1 <0>        -0.1904
      5 C4          9.2782   -4.4285    0.1920 C.ar      1 <0>        -0.0376
      6 C5          7.9364   -4.1725    0.3069 C.ar      1 <0>        -0.1569
      7 C6          7.4079   -2.9826   -0.1860 C.ar      1 <0>         0.1812
      8 C7          8.2376   -2.0501   -0.8025 C.ar      1 <0>        -0.1360
      9 C8          9.5815   -2.2951   -0.9167 C.ar      1 <0>        -0.0499
     10 N1          6.0436   -2.7267   -0.0670 N.am      1 <0>        -0.6667
     11 C9          5.6081   -1.4643    0.1150 C.2       1 <0>         0.5355
     12 O2          6.4058   -0.5642    0.2708 O.2       1 <0>        -0.4987
     13 C10         4.1299   -1.1712    0.1247 C.3       1 <0>        -0.1402
     14 S1          3.8677    0.6002    0.3882 S.3       1 <0>         0.0598
     15 C11         2.1070    0.6572    0.3553 C.2       1 <0>         0.1892
     16 N2          1.3086   -0.3699    0.1797 N.2       1 <0>        -0.4870
     17 C12         0.0323    0.0486    0.2139 C.2       1 <0>         0.0192
     18 C13         0.0281    1.3771    0.4170 C.2       1 <0>        -0.0168
     19 N3          1.3434    1.7735    0.5083 N.pl3     1 <0>        -0.4243
     20 C14         1.8291    3.1381    0.7278 C.3       1 <0>         0.0818
     21 C15         1.9627    3.3918    2.2073 C.2       1 <0>         0.4965
     22 O3          1.6801    2.5187    3.0002 O.2       1 <0>        -0.5083
     23 N4          2.3962    4.5889    2.6493 N.am      1 <0>        -0.7223
     24 C16         2.5261    4.8355    4.0876 C.3       1 <0>         0.1628
     25 C17         3.0257    6.2393    4.3134 C.ar      1 <0>        -0.1099
     26 C18         4.3839    6.4855    4.3886 C.ar      1 <0>        -0.0853
     27 C19         4.8429    7.7736    4.5901 C.ar      1 <0>        -0.1110
     28 C20         3.9423    8.8149    4.7279 C.ar      1 <0>        -0.0254
     29 C21         2.5830    8.5669    4.6582 C.ar      1 <0>        -0.1119
     30 C22         2.1254    7.2793    4.4510 C.ar      1 <0>        -0.0867
     31 Cl1         4.5178   10.4320    4.9875 Cl        1 <0>        -0.0630
     32 C23        -1.1853    2.2649    0.5188 C.3       1 <0>         0.1609
     33 O4         -2.3670    1.4761    0.3657 O.3       1 <0>        -0.5585
     34 H1         12.8063   -2.1136   -0.5208 H         1 <0>         0.0882
     35 H2         13.2918   -3.2641   -1.6850 H         1 <0>         0.0890
     36 H3         11.8936   -2.1978   -1.9612 H         1 <0>         0.0866
     37 H4          9.6874   -5.3517    0.5750 H         1 <0>         0.1392
     38 H5          7.2883   -4.8948    0.7809 H         1 <0>         0.1349
     39 H6          7.8225   -1.1305   -1.1877 H         1 <0>         0.1417
     40 H7         10.2252   -1.5692   -1.3913 H         1 <0>         0.1384
     41 H8          5.4071   -3.4571   -0.1151 H         1 <0>         0.4187
     42 H9          3.6535   -1.7326    0.9285 H         1 <0>         0.1314
     43 H10         3.6950   -1.4647   -0.8307 H         1 <0>         0.1327
     44 H11        -0.8412   -0.5759    0.0980 H         1 <0>         0.1795
     45 H12         2.8008    3.2594    0.2492 H         1 <0>         0.1275
     46 H13         1.1220    3.8487    0.2998 H         1 <0>         0.1258
     47 H14         2.6223    5.2872    2.0152 H         1 <0>         0.4046
     48 H15         1.5544    4.7143    4.5662 H         1 <0>         0.0814
     49 H16         3.2332    4.1249    4.5156 H         1 <0>         0.0831
     50 H17         5.0867    5.6720    4.2855 H         1 <0>         0.1361
     51 H18         5.9041    7.9666    4.6444 H         1 <0>         0.1378
     52 H19         1.8796    9.3794    4.7653 H         1 <0>         0.1371
     53 H20         1.0643    7.0856    4.3963 H         1 <0>         0.1344
     54 H21        -1.1979    2.7527    1.4935 H         1 <0>         0.0587
     55 H22        -1.1491    3.0211   -0.2654 H         1 <0>         0.0586
     56 H23        -3.1884    1.9834    0.4203 H         1 <0>         0.3916
@<TRIPOS>BOND
     1    1    2 1
     2    1   34 1
     3    1   35 1
     4    1   36 1
     5    2    3 2
     6    2    4 1
     7    4    9 ar
     8    4    5 ar
     9    5    6 ar
    10    5   37 1
    11    6    7 ar
    12    6   38 1
    13    7    8 ar
    14    7   10 1
    15    8    9 ar
    16    8   39 1
    17    9   40 1
    18   10   11 am
    19   10   41 1
    20   11   12 2
    21   11   13 1
    22   13   14 1
    23   13   42 1
    24   13   43 1
    25   14   15 1
    26   15   19 1
    27   15   16 2
    28   16   17 1
    29   17   18 2
    30   17   44 1
    31   18   19 1
    32   18   32 1
    33   19   20 1
    34   20   21 1
    35   20   45 1
    36   20   46 1
    37   21   22 2
    38   21   23 am
    39   23   24 1
    40   23   47 1
    41   24   25 1
    42   24   48 1
    43   24   49 1
    44   25   30 ar
    45   25   26 ar
    46   26   27 ar
    47   26   50 1
    48   27   28 ar
    49   27   51 1
    50   28   29 ar
    51   28   31 1
    52   29   30 ar
    53   29   52 1
    54   30   53 1
    55   32   33 1
    56   32   54 1
    57   32   55 1
    58   33   56 1
@<TRIPOS>MOLECULE
ZINC22226840
   55    58     0     0     0
SMALL
USER_CHARGES
ethyl 2-[[2-[[4-amino-5-(4-methoxyphenyl)-1,2,4-triazol-3-yl]sulfanyl]acetyl]amino]-4-(2-furyl)thiophene-3-carboxylate
@<TRIPOS>ATOM
      1 C1          3.6398    0.2226   -0.3254 C.3       1 <0>        -0.1540
      2 C2          2.4191   -0.6837   -0.4969 C.3       1 <0>         0.0554
      3 O1          1.2273    0.0814   -0.3063 O.3       1 <0>        -0.3438
      4 C3          0.0537   -0.5733   -0.4243 C.2       1 <0>         0.5304
      5 O2          0.0437   -1.7623   -0.6821 O.2       1 <0>        -0.4830
      6 C4         -1.2065    0.1473   -0.2481 C.2       1 <0>        -0.2002
      7 C5         -1.8438    0.2604    1.0514 C.2       1 <0>         0.0031
      8 C6         -3.0128    0.9534    1.0989 C.2       1 <0>        -0.2071
      9 S1         -3.2613    1.4542   -0.5915 S.3       1 <0>         0.2703
     10 C7         -1.8492    0.7618   -1.3145 C.2       1 <0>         0.0900
     11 N1         -1.4551    0.8079   -2.6422 N.am      1 <0>        -0.6270
     12 C8         -2.2129    1.4574   -3.5480 C.2       1 <0>         0.5360
     13 O3         -3.2397    2.0015   -3.2010 O.2       1 <0>        -0.4852
     14 C9         -1.7843    1.5075   -4.9918 C.3       1 <0>        -0.1457
     15 S2         -3.0008    2.4444   -5.9501 S.3       1 <0>         0.0883
     16 C10        -2.2707    2.3464   -7.5507 C.2       1 <0>         0.1127
     17 N2         -1.1456    1.7416   -7.8585 N.2       1 <0>        -0.2789
     18 N3         -0.9090    1.8622   -9.1158 N.2       1 <0>        -0.2576
     19 C11        -1.8642    2.5586   -9.6869 C.2       1 <0>         0.2102
     20 N4         -2.7659    2.8903   -8.7021 N.pl3     1 <0>        -0.2069
     21 N5         -3.9163    3.6127   -8.8456 N.3       1 <0>        -0.7659
     22 C12        -1.9537    2.9188  -11.1177 C.ar      1 <0>        -0.0505
     23 C13        -1.1792    2.2398  -12.0601 C.ar      1 <0>        -0.0320
     24 C14        -1.2692    2.5755  -13.3941 C.ar      1 <0>        -0.2007
     25 C15        -2.1209    3.5946  -13.7996 C.ar      1 <0>         0.1439
     26 C16        -2.8890    4.2759  -12.8647 C.ar      1 <0>        -0.1433
     27 C17        -2.8087    3.9427  -11.5295 C.ar      1 <0>        -0.0753
     28 O4         -2.2025    3.9263  -15.1147 O.3       1 <0>        -0.3129
     29 C18        -1.3849    3.1852  -16.0227 C.3       1 <0>         0.0200
     30 C19        -1.2525   -0.3471    2.2606 C.2       1 <0>         0.0259
     31 C20        -1.0397    0.2823    3.4476 C.2       1 <0>        -0.1780
     32 C21        -0.4648   -0.6696    4.3145 C.2       1 <0>        -0.2126
     33 C22        -0.3479   -1.8170    3.6190 C.2       1 <0>        -0.0317
     34 O5         -0.8249   -1.6187    2.3780 O.3       1 <0>        -0.1652
     35 H1          4.5572   -0.3663   -0.4721 H         1 <0>         0.0824
     36 H2          3.6380    0.6524    0.6872 H         1 <0>         0.0679
     37 H3          3.6018    1.0333   -1.0679 H         1 <0>         0.0679
     38 H4          2.4209   -1.1135   -1.5094 H         1 <0>         0.0698
     39 H5          2.4571   -1.4944    0.2456 H         1 <0>         0.0692
     40 H6         -3.6394    1.1525    1.9558 H         1 <0>         0.1994
     41 H7         -0.5238    0.3144   -2.9569 H         1 <0>         0.4527
     42 H8         -0.8025    1.9980   -5.0660 H         1 <0>         0.1401
     43 H9         -1.7139    0.4842   -5.3891 H         1 <0>         0.1398
     44 H10        -4.2044    3.9974   -9.8351 H         1 <0>         0.4451
     45 H11        -4.5547    3.8097   -7.9717 H         1 <0>         0.4461
     46 H12        -0.5136    1.4499  -11.7450 H         1 <0>         0.1424
     47 H13        -0.6734    2.0480  -14.1243 H         1 <0>         0.1395
     48 H14        -3.5505    5.0676  -13.1841 H         1 <0>         0.1412
     49 H15        -3.4062    4.4733  -10.8029 H         1 <0>         0.1297
     50 H16        -1.5474    3.5533  -17.0465 H         1 <0>         0.1058
     51 H17        -1.6513    2.1193  -15.9697 H         1 <0>         0.0603
     52 H18        -0.3267    3.3126  -15.7509 H         1 <0>         0.0607
     53 H19        -1.2693    1.3113    3.6816 H         1 <0>         0.1533
     54 H20        -0.1697   -0.5079    5.3407 H         1 <0>         0.1530
     55 H21         0.0609   -2.7428    3.9959 H         1 <0>         0.2048
@<TRIPOS>BOND
     1    1    2 1
     2    1   35 1
     3    1   36 1
     4    1   37 1
     5    2    3 1
     6    2   38 1
     7    2   39 1
     8    3    4 1
     9    4    5 2
    10    4    6 1
    11    6   10 2
    12    6    7 1
    13    7    8 2
    14    7   30 1
    15    8    9 1
    16    8   40 1
    17    9   10 1
    18   10   11 1
    19   11   12 am
    20   11   41 1
    21   12   13 2
    22   12   14 1
    23   14   15 1
    24   14   42 1
    25   14   43 1
    26   15   16 1
    27   16   20 1
    28   16   17 2
    29   17   18 1
    30   18   19 2
    31   19   20 1
    32   19   22 1
    33   20   21 1
    34   21   44 1
    35   21   45 1
    36   22   27 ar
    37   22   23 ar
    38   23   24 ar
    39   23   46 1
    40   24   25 ar
    41   24   47 1
    42   25   26 ar
    43   25   28 1
    44   26   27 ar
    45   26   48 1
    46   27   49 1
    47   28   29 1
    48   29   50 1
    49   29   51 1
    50   29   52 1
    51   30   34 1
    52   30   31 2
    53   31   32 1
    54   31   53 1
    55   32   33 2
    56   32   54 1
    57   33   34 1
    58   33   55 1
@<TRIPOS>MOLECULE
ZINC13449828
   67    68     0     0     0
SMALL
USER_CHARGES

@<TRIPOS>ATOM
      1 C1         -0.0187    1.5258    0.0104 C.3       1 <0>        -0.1505
      2 C2          0.0021   -0.0041    0.0020 C.3       1 <0>        -0.1237
      3 C3         -1.4333   -0.5336    0.0129 C.3       1 <0>         0.0571
      4 O1         -1.4139   -1.9625    0.0050 O.3       1 <0>        -0.3031
      5 C4         -2.6171   -2.5963    0.0131 C.ar      1 <0>         0.1076
      6 C5         -3.7903   -1.8590    0.0225 C.ar      1 <0>        -0.1687
      7 C6         -5.0125   -2.5049    0.0302 C.ar      1 <0>        -0.1107
      8 C7         -5.0679   -3.8863    0.0291 C.ar      1 <0>        -0.0937
      9 C8         -3.9012   -4.6279    0.0202 C.ar      1 <0>        -0.1599
     10 C9         -2.6729   -3.9867    0.0062 C.ar      1 <0>         0.1096
     11 O2         -1.5243   -4.7147   -0.0086 O.3       1 <0>        -0.3025
     12 C10        -1.6580   -6.1375   -0.0150 C.3       1 <0>         0.0562
     13 C11        -0.2696   -6.7801   -0.0316 C.3       1 <0>        -0.1230
     14 C12        -0.4127   -8.3034   -0.0384 C.3       1 <0>        -0.1508
     15 C13        -6.4029   -4.5853    0.0380 C.3       1 <0>         0.1904
     16 H1         -6.2744   -5.6097    0.3874 H         1 <0>         0.0996
     17 C14        -6.9813   -4.5983   -1.3784 C.3       1 <0>        -0.1599
     18 N1         -7.3198   -3.8754    0.9333 N.am      1 <0>        -0.7151
     19 C15        -8.3517   -4.5318    1.4998 C.2       1 <0>         0.5353
     20 O3         -8.5212   -5.7101    1.2683 O.2       1 <0>        -0.5199
     21 C16        -9.2948   -3.8015    2.4207 C.3       1 <0>        -0.1436
     22 S1        -10.5673   -4.9488    3.0168 S.3       1 <0>         0.0813
     23 C17       -11.5772   -3.9574    4.0665 C.2       1 <0>         0.3563
     24 N2        -12.6455   -4.5215    4.6951 N.am      1 <0>        -0.6136
     25 C18       -13.4233   -3.7677    5.5012 C.2       1 <0>         0.5349
     26 O4        -14.3841   -4.2567    6.0726 O.2       1 <0>        -0.5262
     27 C19       -13.1049   -2.4088    5.6700 C.2       1 <0>        -0.2676
     28 C20       -12.0219   -1.8982    5.0144 C.2       1 <0>         0.1992
     29 N3        -11.2825   -2.6825    4.2344 N.2       1 <0>        -0.5447
     30 C21       -11.6600   -0.4445    5.1785 C.3       1 <0>        -0.1128
     31 C22       -13.9457   -1.5301    6.5599 C.3       1 <0>        -0.0406
     32 C23       -15.1402   -0.9956    5.7672 C.3       1 <0>        -0.1113
     33 C24       -15.9810   -0.1168    6.6571 C.2       1 <0>         0.4754
     34 O5        -15.6580    0.0634    7.8073 O.2       1 <0>        -0.5126
     35 O6        -17.0887    0.4656    6.1718 O.3       1 <0>        -0.5088
     36 H2          1.0039    1.9031    0.0027 H         1 <0>         0.0657
     37 H3         -0.5459    1.8868   -0.8726 H         1 <0>         0.0577
     38 H4         -0.5289    1.8773    0.9072 H         1 <0>         0.0577
     39 H5          0.5123   -0.3556   -0.8948 H         1 <0>         0.0742
     40 H6          0.5293   -0.3651    0.8851 H         1 <0>         0.0742
     41 H7         -1.9435   -0.1821    0.9097 H         1 <0>         0.0620
     42 H8         -1.9605   -0.1726   -0.8702 H         1 <0>         0.0621
     43 H9         -3.7498   -0.7798    0.0241 H         1 <0>         0.1373
     44 H10        -5.9262   -1.9291    0.0375 H         1 <0>         0.1258
     45 H11        -3.9472   -5.7069    0.0197 H         1 <0>         0.1376
     46 H12        -2.1951   -6.4559    0.8784 H         1 <0>         0.0623
     47 H13        -2.2120   -6.4464   -0.9014 H         1 <0>         0.0626
     48 H14         0.2675   -6.4616   -0.9250 H         1 <0>         0.0742
     49 H15         0.2844   -6.4712    0.8548 H         1 <0>         0.0741
     50 H16         0.5764   -8.7612   -0.0503 H         1 <0>         0.0657
     51 H17        -0.9498   -8.6218    0.8550 H         1 <0>         0.0580
     52 H18        -0.9667   -8.6123   -0.9249 H         1 <0>         0.0580
     53 H19        -6.2991   -5.1265   -2.0445 H         1 <0>         0.0709
     54 H20        -7.9469   -5.1039   -1.3719 H         1 <0>         0.0672
     55 H21        -7.1098   -3.5739   -1.7278 H         1 <0>         0.0617
     56 H22        -7.1842   -2.9329    1.1185 H         1 <0>         0.4043
     57 H23        -8.7385   -3.4033    3.2693 H         1 <0>         0.1331
     58 H24        -9.7688   -2.9822    1.8802 H         1 <0>         0.1333
     59 H25       -10.9750   -0.3333    6.0191 H         1 <0>         0.0906
     60 H26       -11.1799   -0.0846    4.2685 H         1 <0>         0.0843
     61 H27       -12.5633    0.1358    5.3667 H         1 <0>         0.0844
     62 H28       -14.3042   -2.1108    7.4099 H         1 <0>         0.0896
     63 H29       -13.3444   -0.6946    6.9184 H         1 <0>         0.0879
     64 H30       -14.7816   -0.4149    4.9172 H         1 <0>         0.1046
     65 H31       -15.7415   -1.8310    5.4087 H         1 <0>         0.1085
     66 H32       -17.5615    1.0097    6.8164 H         1 <0>         0.4088
     67 H33       -12.8470   -5.4612    4.5640 H         1 <0>         0.4225
@<TRIPOS>BOND
     1    1    2 1
     2    1   36 1
     3    1   37 1
     4    1   38 1
     5    2    3 1
     6    2   39 1
     7    2   40 1
     8    3    4 1
     9    3   41 1
    10    3   42 1
    11    4    5 1
    12    5   10 ar
    13    5    6 ar
    14    6    7 ar
    15    6   43 1
    16    7    8 ar
    17    7   44 1
    18    8    9 ar
    19    8   15 1
    20    9   10 ar
    21    9   45 1
    22   10   11 1
    23   11   12 1
    24   12   13 1
    25   12   46 1
    26   12   47 1
    27   13   14 1
    28   13   48 1
    29   13   49 1
    30   14   50 1
    31   14   51 1
    32   14   52 1
    33   15   16 1
    34   15   17 1
    35   15   18 1
    36   17   53 1
    37   17   54 1
    38   17   55 1
    39   18   19 am
    40   18   56 1
    41   19   20 2
    42   19   21 1
    43   21   22 1
    44   21   57 1
    45   21   58 1
    46   22   23 1
    47   23   29 2
    48   23   24 1
    49   24   25 am
    50   24   67 1
    51   25   26 2
    52   25   27 1
    53   27   28 2
    54   27   31 1
    55   28   29 1
    56   28   30 1
    57   30   59 1
    58   30   60 1
    59   30   61 1
    60   31   32 1
    61   31   62 1
    62   31   63 1
    63   32   33 1
    64   32   64 1
    65   32   65 1
    66   33   34 2
    67   33   35 1
    68   35   66 1
@<TRIPOS>MOLECULE
ZINC59311545
   49    51     0     0     0
SMALL
USER_CHARGES

@<TRIPOS>ATOM
      1 C1         -0.0187    1.5258    0.0104 C.3       1 <0>        -0.1447
      2 C2          0.0021   -0.0041    0.0020 C.3       1 <0>        -0.0420
      3 C3          0.7421   -0.5109    1.2415 C.3       1 <0>        -0.1447
      4 C4         -1.4117   -0.5257    0.0127 C.2       1 <0>         0.0752
      5 N1         -1.8296   -1.2621   -0.9474 N.2       1 <0>        -0.2076
      6 N2         -3.1439   -1.7471   -0.9375 N.pl3     1 <0>        -0.5569
      7 C5         -3.5955   -2.5429   -1.9751 C.2       1 <0>         0.5642
      8 N3         -2.8934   -2.9209   -3.0225 N.2       1 <0>        -0.5186
      9 C6         -3.6498   -3.6829   -3.8199 C.2       1 <0>         0.2156
     10 N4         -4.8440   -3.7999   -3.2899 N.2       1 <0>        -0.3248
     11 N5         -4.8316   -3.0732   -2.0885 N.pl3     1 <0>        -0.5043
     12 S1         -3.1272   -4.4112   -5.3369 S.3       1 <0>         0.1245
     13 C7         -4.5929   -5.3054   -5.9223 C.3       1 <0>        -0.1607
     14 C8         -4.2782   -5.9836   -7.2307 C.2       1 <0>         0.5327
     15 O1         -3.1738   -5.8745   -7.7202 O.2       1 <0>        -0.4449
     16 N6         -5.2239   -6.7115   -7.8570 N.am      1 <0>        -0.6068
     17 C9         -4.9331   -7.3383   -9.0663 C.2       1 <0>         0.2808
     18 N7         -3.8104   -7.3571   -9.7658 N.2       1 <0>        -0.2662
     19 N8         -3.7128   -7.9825  -10.8567 N.2       1 <0>        -0.2565
     20 C10        -4.7299   -8.6595  -11.3695 C.2       1 <0>         0.0137
     21 S2         -5.9696   -8.3552  -10.1139 S.3       1 <0>         0.0493
     22 S3         -4.8315   -9.5965  -12.8582 S.3       1 <0>         0.0668
     23 C11        -3.1779   -9.4419  -13.5878 C.3       1 <0>        -0.0784
     24 C12        -3.1273  -10.2079  -14.8846 C.ar      1 <0>        -0.0769
     25 C13        -2.7570  -11.5397  -14.8868 C.ar      1 <0>        -0.0852
     26 C14        -2.7106  -12.2424  -16.0762 C.ar      1 <0>        -0.1139
     27 C15        -3.0346  -11.6138  -17.2643 C.ar      1 <0>        -0.0951
     28 C16        -3.4050  -10.2825  -17.2633 C.ar      1 <0>        -0.1098
     29 C17        -3.4571   -9.5800  -16.0723 C.ar      1 <0>        -0.0182
     30 Cl1        -3.9287   -7.9093  -16.0695 Cl        1 <0>        -0.0554
     31 H1          1.0039    1.9031    0.0027 H         1 <0>         0.0688
     32 H2         -0.5459    1.8868   -0.8726 H         1 <0>         0.0587
     33 H3         -0.5289    1.8773    0.9072 H         1 <0>         0.0590
     34 H4          0.5123   -0.3556   -0.8948 H         1 <0>         0.0942
     35 H5          0.7568   -1.6008    1.2356 H         1 <0>         0.0587
     36 H6          1.7647   -0.1336    1.2338 H         1 <0>         0.0688
     37 H7          0.2319   -0.1594    2.1383 H         1 <0>         0.0590
     38 H8         -2.0724   -0.2782    0.8304 H         1 <0>         0.1108
     39 H9         -3.7373   -1.5248   -0.2031 H         1 <0>         0.3983
     40 H10        -4.8801   -6.0546   -5.1845 H         1 <0>         0.1320
     41 H11        -5.4139   -4.6030   -6.0654 H         1 <0>         0.1319
     42 H12        -6.1071   -6.7988   -7.4656 H         1 <0>         0.4323
     43 H13        -2.9616   -8.3906  -13.7781 H         1 <0>         0.1150
     44 H14        -2.4371   -9.8461  -12.8979 H         1 <0>         0.1145
     45 H15        -2.5035  -12.0311  -13.9591 H         1 <0>         0.1381
     46 H16        -2.4208  -13.2828  -16.0775 H         1 <0>         0.1349
     47 H17        -2.9978  -12.1633  -18.1933 H         1 <0>         0.1364
     48 H18        -3.6577   -9.7915  -18.1915 H         1 <0>         0.1385
     49 H19        -5.5670   -2.9705   -1.4643 H         1 <0>         0.4389
@<TRIPOS>BOND
     1    1    2 1
     2    1   31 1
     3    1   32 1
     4    1   33 1
     5    2    3 1
     6    2    4 1
     7    2   34 1
     8    3   35 1
     9    3   36 1
    10    3   37 1
    11    4    5 2
    12    4   38 1
    13    5    6 1
    14    6    7 1
    15    6   39 1
    16    7   11 1
    17    7    8 2
    18    8    9 1
    19    9   10 2
    20    9   12 1
    21   10   11 1
    22   11   49 1
    23   12   13 1
    24   13   14 1
    25   13   40 1
    26   13   41 1
    27   14   15 2
    28   14   16 am
    29   16   17 1
    30   16   42 1
    31   17   21 1
    32   17   18 2
    33   18   19 1
    34   19   20 2
    35   20   21 1
    36   20   22 1
    37   22   23 1
    38   23   24 1
    39   23   43 1
    40   23   44 1
    41   24   29 ar
    42   24   25 ar
    43   25   26 ar
    44   25   45 1
    45   26   27 ar
    46   26   46 1
    47   27   28 ar
    48   27   47 1
    49   28   29 ar
    50   28   48 1
    51   29   30 1
@<TRIPOS>MOLECULE
ZINC02179574
   55    57     0     0     0
SMALL
USER_CHARGES
N-[1-[4-allyl-5-(thiazol-2-ylcarbamoylmethylsulfanyl)-1,2,4-triazol-3-yl]-2-methyl-propyl]-2-chloro-benzamide
@<TRIPOS>ATOM
      1 C1          1.0396   -1.3347   -8.0564 C.3       1 <0>        -0.1382
      2 C2          0.7948   -1.1652   -6.5556 C.3       1 <0>        -0.1002
      3 C3          1.6291   -2.1895   -5.7839 C.3       1 <0>        -0.1488
      4 C4          1.1993    0.2474   -6.1292 C.3       1 <0>         0.2469
      5 H1          0.6049    0.9771   -6.6790 H         1 <0>         0.1063
      6 C5          0.9582    0.4143   -4.6511 C.2       1 <0>         0.1797
      7 N1          1.6838   -0.0823   -3.6894 N.2       1 <0>        -0.2671
      8 N2          1.1980    0.2581   -2.5493 N.2       1 <0>        -0.2908
      9 C6          0.1221    0.9900   -2.7235 C.2       1 <0>         0.1444
     10 N3         -0.0626    1.1152   -4.0705 N.pl3     1 <0>        -0.4461
     11 C7         -1.1322    1.8482   -4.7523 C.3       1 <0>         0.1288
     12 C8         -0.6954    3.2714   -4.9868 C.2       1 <0>        -0.1944
     13 C9         -0.7197    3.7730   -6.1967 C.2       1 <0>        -0.1425
     14 S1         -0.8881    1.6854   -1.4584 S.3       1 <0>         0.0953
     15 C10        -0.0127    1.0858    0.0080 C.3       1 <0>        -0.1471
     16 C11        -0.7181    1.5718    1.2479 C.2       1 <0>         0.5299
     17 O1         -1.7146    2.2562    1.1498 O.2       1 <0>        -0.4525
     18 N4         -0.2416    1.2460    2.4658 N.am      1 <0>        -0.6139
     19 C12        -0.8922    1.6942    3.6094 C.2       1 <0>         0.2997
     20 N5         -1.9728    2.4437    3.7079 N.2       1 <0>        -0.5123
     21 C13        -2.4676    2.7779    4.8836 C.2       1 <0>         0.0562
     22 C14        -1.8323    2.3428    5.9992 C.2       1 <0>        -0.2256
     23 S2         -0.4863    1.4174    5.2749 S.3       1 <0>         0.0634
     24 N6          2.6200    0.4569   -6.4190 N.am      1 <0>        -0.7123
     25 C15         3.0055    0.8566   -7.6471 C.2       1 <0>         0.5602
     26 O2          2.1743    1.0432   -8.5143 O.2       1 <0>        -0.5047
     27 C16         4.4385    1.0679   -7.9394 C.ar      1 <0>        -0.1328
     28 C17         5.3954    0.8599   -6.9441 C.ar      1 <0>        -0.0739
     29 C18         6.7316    1.0533   -7.2251 C.ar      1 <0>        -0.1233
     30 C19         7.1250    1.4639   -8.4871 C.ar      1 <0>        -0.0785
     31 C20         6.1833    1.6775   -9.4767 C.ar      1 <0>        -0.1216
     32 C21         4.8416    1.4821   -9.2111 C.ar      1 <0>         0.0158
     33 Cl1         3.6600    1.7512  -10.4542 Cl        1 <0>        -0.0283
     34 H2          0.7513   -2.3411   -8.3601 H         1 <0>         0.0540
     35 H3          0.4451   -0.6050   -8.6062 H         1 <0>         0.0652
     36 H4          2.0966   -1.1789   -8.2720 H         1 <0>         0.0579
     37 H5         -0.2623   -1.3211   -6.3400 H         1 <0>         0.0777
     38 H6          1.4547   -2.0687   -4.7147 H         1 <0>         0.0666
     39 H7          1.3409   -3.1959   -6.0876 H         1 <0>         0.0558
     40 H8          2.6862   -2.0336   -5.9995 H         1 <0>         0.0577
     41 H9         -1.3466    1.3717   -5.7089 H         1 <0>         0.1070
     42 H10        -2.0294    1.8408   -4.1335 H         1 <0>         0.1116
     43 H11        -0.3624    3.8777   -4.1574 H         1 <0>         0.1212
     44 H12        -1.0527    3.1667   -7.0261 H         1 <0>         0.1046
     45 H13        -0.4067    4.7929   -6.3648 H         1 <0>         0.1106
     46 H14         0.0021   -0.0041    0.0020 H         1 <0>         0.1356
     47 H15         1.0099    1.4631    0.0003 H         1 <0>         0.1354
     48 H16         0.5554    0.6986    2.5442 H         1 <0>         0.4313
     49 H17        -3.3558    3.3880    4.9561 H         1 <0>         0.1754
     50 H18        -2.0730    2.5098    7.0387 H         1 <0>         0.2020
     51 H19         3.2833    0.3079   -5.7271 H         1 <0>         0.4076
     52 H20         5.0902    0.5440   -5.9575 H         1 <0>         0.1344
     53 H21         7.4727    0.8884   -6.4570 H         1 <0>         0.1370
     54 H22         8.1725    1.6184   -8.6998 H         1 <0>         0.1384
     55 H23         6.4971    1.9981  -10.4591 H         1 <0>         0.1412
@<TRIPOS>BOND
     1    1    2 1
     2    1   34 1
     3    1   35 1
     4    1   36 1
     5    2    3 1
     6    2    4 1
     7    2   37 1
     8    3   38 1
     9    3   39 1
    10    3   40 1
    11    4    5 1
    12    4    6 1
    13    4   24 1
    14    6   10 1
    15    6    7 2
    16    7    8 1
    17    8    9 2
    18    9   10 1
    19    9   14 1
    20   10   11 1
    21   11   12 1
    22   11   41 1
    23   11   42 1
    24   12   13 2
    25   12   43 1
    26   13   44 1
    27   13   45 1
    28   14   15 1
    29   15   16 1
    30   15   46 1
    31   15   47 1
    32   16   17 2
    33   16   18 am
    34   18   19 1
    35   18   48 1
    36   19   23 1
    37   19   20 2
    38   20   21 1
    39   21   22 2
    40   21   49 1
    41   22   23 1
    42   22   50 1
    43   24   25 am
    44   24   51 1
    45   25   26 2
    46   25   27 1
    47   27   32 ar
    48   27   28 ar
    49   28   29 ar
    50   28   52 1
    51   29   30 ar
    52   29   53 1
    53   30   31 ar
    54   30   54 1
    55   31   32 ar
    56   31   55 1
    57   32   33 1
@<TRIPOS>MOLECULE
ZINC00880200
   61    65     0     0     0
SMALL
USER_CHARGES
1-(1,3-benzodioxol-5-ylmethyl)-1-[(6-methoxy-2-oxo-1H-quinolin-3-yl)methyl]-3-(4-methoxyphenyl)thiourea
@<TRIPOS>ATOM
      1 C1         -0.6391    3.6699    0.9484 C.3       1 <0>         0.0262
      2 O1          0.3032    3.1349    0.0169 O.3       1 <0>        -0.3154
      3 C2          0.4654    1.7848    0.0095 C.ar      1 <0>         0.1348
      4 C3          1.3642    1.1994   -0.8701 C.ar      1 <0>        -0.1425
      5 C4          1.5294   -0.1716   -0.8782 C.ar      1 <0>        -0.0285
      6 C5          0.7956   -0.9641   -0.0057 C.ar      1 <0>         0.0866
      7 C6         -0.1039   -0.3775    0.8744 C.ar      1 <0>        -0.0825
      8 C7         -0.2681    0.9936    0.8814 C.ar      1 <0>        -0.2042
      9 N1          0.9623   -2.3551   -0.0137 N.pl3     1 <0>        -0.6284
     10 C8          2.1960   -2.8853   -0.1299 C.2       1 <0>         0.5611
     11 S1          3.5702   -1.8643   -0.1274 S.2       1 <0>        -0.6212
     12 N2          2.3478   -4.2192   -0.2482 N.pl3     1 <0>        -0.5502
     13 C9          1.1702   -5.0831   -0.3632 C.3       1 <0>         0.1317
     14 C10         0.8090   -5.2491   -1.8169 C.ar      1 <0>        -0.1064
     15 C11        -0.0726   -4.3671   -2.4136 C.ar      1 <0>        -0.0937
     16 C12        -0.4026   -4.5118   -3.7482 C.ar      1 <0>        -0.0969
     17 C13         0.1407   -5.5496   -4.4882 C.ar      1 <0>         0.0440
     18 C14         1.0246   -6.4413   -3.8856 C.ar      1 <0>         0.0355
     19 C15         1.3555   -6.2864   -2.5492 C.ar      1 <0>        -0.0753
     20 O2          1.4158   -7.3623   -4.8141 O.3       1 <0>        -0.3053
     21 C16         0.4500   -7.2696   -5.8781 C.3       1 <0>         0.2125
     22 O3         -0.0219   -5.9118   -5.7941 O.3       1 <0>        -0.3064
     23 C17         3.6903   -4.8054   -0.2617 C.3       1 <0>         0.1741
     24 C18         4.1415   -5.0602    1.1534 C.2       1 <0>        -0.2249
     25 C19         4.9238   -4.1518    1.7870 C.2       1 <0>         0.0318
     26 C20         5.3416   -4.4266    3.1631 C.ar      1 <0>        -0.0950
     27 C21         6.1445   -3.5235    3.8679 C.ar      1 <0>        -0.0839
     28 C22         6.5243   -3.8161    5.1621 C.ar      1 <0>         0.0988
     29 C23         6.1119   -5.0024    5.7650 C.ar      1 <0>        -0.1456
     30 C24         5.3218   -5.8994    5.0812 C.ar      1 <0>        -0.1247
     31 C25         4.9273   -5.6239    3.7760 C.ar      1 <0>         0.1501
     32 N3          4.1352   -6.5098    3.0741 N.am      1 <0>        -0.6274
     33 H1          3.8498   -7.3346    3.4975 H         1 <0>         0.4152
     34 C26         3.7530   -6.2461    1.8125 C.2       1 <0>         0.5462
     35 O4          3.0529   -7.0513    1.2231 O.2       1 <0>        -0.5460
     36 O5          7.3049   -2.9425    5.8520 O.3       1 <0>        -0.3133
     37 C27         7.6619   -3.3061    7.1871 C.3       1 <0>         0.0252
     38 H2         -0.3381    3.4056    1.9621 H         1 <0>         0.0561
     39 H3         -0.6710    4.7550    0.8502 H         1 <0>         0.1007
     40 H4         -1.6270    3.2574    0.7435 H         1 <0>         0.0556
     41 H5          1.9383    1.8163   -1.5455 H         1 <0>         0.1361
     42 H6          2.2290   -0.6273   -1.5633 H         1 <0>         0.1511
     43 H7         -0.6753   -0.9934    1.5531 H         1 <0>         0.1246
     44 H8         -0.9677    1.4501    1.5659 H         1 <0>         0.1317
     45 H9          0.1899   -2.9366    0.0644 H         1 <0>         0.4027
     46 H10         1.3915   -6.0586    0.0698 H         1 <0>         0.1267
     47 H11         0.3339   -4.6303    0.1695 H         1 <0>         0.0848
     48 H12        -0.5009   -3.5606   -1.8371 H         1 <0>         0.1303
     49 H13        -1.0883   -3.8189   -4.2129 H         1 <0>         0.1395
     50 H14         2.0405   -6.9766   -2.0793 H         1 <0>         0.1414
     51 H15        -0.3686   -7.9704   -5.7144 H         1 <0>         0.0872
     52 H16         0.9219   -7.4521   -6.8436 H         1 <0>         0.1351
     53 H17         3.6705   -5.7462   -0.8117 H         1 <0>         0.1036
     54 H18         4.3827   -4.1163   -0.7453 H         1 <0>         0.1261
     55 H19         5.2294   -3.2437    1.2885 H         1 <0>         0.1695
     56 H20         6.4649   -2.6031    3.4024 H         1 <0>         0.1480
     57 H21         6.4149   -5.2207    6.7784 H         1 <0>         0.1390
     58 H22         5.0079   -6.8160    5.5583 H         1 <0>         0.1376
     59 H23         6.7584   -3.4265    7.7848 H         1 <0>         0.0562
     60 H24         8.2156   -4.2450    7.1722 H         1 <0>         0.0567
     61 H25         8.2842   -2.5243    7.6225 H         1 <0>         0.1033
@<TRIPOS>BOND
     1    1    2 1
     2    1   38 1
     3    1   39 1
     4    1   40 1
     5    2    3 1
     6    3    8 ar
     7    3    4 ar
     8    4    5 ar
     9    4   41 1
    10    5    6 ar
    11    5   42 1
    12    6    7 ar
    13    6    9 1
    14    7    8 ar
    15    7   43 1
    16    8   44 1
    17    9   10 1
    18    9   45 1
    19   10   11 2
    20   10   12 1
    21   12   13 1
    22   12   23 1
    23   13   14 1
    24   13   46 1
    25   13   47 1
    26   14   19 ar
    27   14   15 ar
    28   15   16 ar
    29   15   48 1
    30   16   17 ar
    31   16   49 1
    32   17   22 1
    33   17   18 ar
    34   18   19 ar
    35   18   20 1
    36   19   50 1
    37   20   21 1
    38   21   22 1
    39   21   51 1
    40   21   52 1
    41   23   24 1
    42   23   53 1
    43   23   54 1
    44   24   34 1
    45   24   25 2
    46   25   26 1
    47   25   55 1
    48   26   31 ar
    49   26   27 ar
    50   27   28 ar
    51   27   56 1
    52   28   29 ar
    53   28   36 1
    54   29   30 ar
    55   29   57 1
    56   30   31 ar
    57   30   58 1
    58   31   32 1
    59   32   33 1
    60   32   34 am
    61   34   35 2
    62   36   37 1
    63   37   59 1
    64   37   60 1
    65   37   61 1
@<TRIPOS>MOLECULE
ZINC02925142
   67    70     0     0     0
SMALL
USER_CHARGES
2-methoxyethyl (4R,7S)-4-(4-hydroxy-3-methoxy-phenyl)-7-(4-methoxyphenyl)-2-methyl-5-oxo-4,6,7,8-tetrahydro-1H-quinoline-3-carboxylate
@<TRIPOS>ATOM
      1 C1         -4.5268    4.9520    5.7182 C.3       1 <0>        -0.1310
      2 C2         -3.9593    5.7604    4.5801 C.2       1 <0>         0.1912
      3 C3         -3.2167    5.1558    3.6367 C.2       1 <0>        -0.2302
      4 C4         -2.6337    5.9290    2.4905 C.3       1 <0>         0.0928
      5 H1         -2.7792    5.3436    1.5706 H         1 <0>         0.0865
      6 C5         -3.3221    7.2612    2.3303 C.2       1 <0>        -0.2795
      7 C6         -4.0607    7.7806    3.3337 C.2       1 <0>         0.2260
      8 N1         -4.1988    7.1047    4.5164 N.pl3     1 <0>        -0.6464
      9 C7         -4.7548    9.1113    3.1801 C.3       1 <0>        -0.0889
     10 C8         -3.9492   10.0050    2.2346 C.3       1 <0>        -0.0306
     11 H2         -2.9580   10.2200    2.6605 H         1 <0>         0.0935
     12 C9         -3.8118    9.2879    0.8874 C.3       1 <0>        -0.1600
     13 C10        -3.1714    7.9451    1.1112 C.2       1 <0>         0.4053
     14 O1         -2.5119    7.4430    0.2227 O.2       1 <0>        -0.4684
     15 C11        -4.6686   11.3148    2.0401 C.ar      1 <0>        -0.1208
     16 C12        -5.9494   11.3279    1.5192 C.ar      1 <0>        -0.0728
     17 C13        -6.6132   12.5269    1.3452 C.ar      1 <0>        -0.2056
     18 C14        -5.9892   13.7192    1.6825 C.ar      1 <0>         0.1286
     19 C15        -4.7020   13.7036    2.1997 C.ar      1 <0>        -0.1492
     20 C16        -4.0448   12.5016    2.3775 C.ar      1 <0>        -0.0698
     21 O2         -6.6377   14.9004    1.5063 O.3       1 <0>        -0.3173
     22 C17        -7.9607   14.8404    0.9693 C.3       1 <0>         0.0231
     23 C18        -1.1662    6.1591    2.7444 C.ar      1 <0>        -0.0738
     24 C19        -0.7619    6.8633    3.8634 C.ar      1 <0>        -0.0907
     25 C20         0.5834    7.0720    4.1038 C.ar      1 <0>        -0.1328
     26 C21         1.5295    6.5848    3.2163 C.ar      1 <0>         0.1339
     27 C22         1.1223    5.8809    2.0871 C.ar      1 <0>         0.0328
     28 C23        -0.2274    5.6703    1.8551 C.ar      1 <0>        -0.1463
     29 O3          2.0470    5.4012    1.2130 O.3       1 <0>        -0.3280
     30 C24         1.5563    4.6886    0.0757 C.3       1 <0>         0.0299
     31 O4          2.8530    6.7945    3.4482 O.3       1 <0>        -0.5086
     32 C25        -2.9853    3.7631    3.7230 C.2       1 <0>         0.5362
     33 O5         -3.5676    3.0019    2.9733 O.2       1 <0>        -0.5035
     34 O6         -2.1186    3.2785    4.6369 O.3       1 <0>        -0.3355
     35 C26        -1.9335    1.8619    4.6682 C.3       1 <0>         0.0623
     36 C27        -0.9230    1.5036    5.7596 C.3       1 <0>         0.0610
     37 O7         -1.4629    1.8426    7.0386 O.3       1 <0>        -0.3852
     38 C28        -0.5936    1.5467    8.1334 C.3       1 <0>         0.0280
     39 H3         -4.2319    3.8986    5.6025 H         1 <0>         0.0842
     40 H4         -5.6241    5.0286    5.7109 H         1 <0>         0.0861
     41 H5         -4.1386    5.3388    6.6720 H         1 <0>         0.0911
     42 H6         -4.5052    7.6522    5.4199 H         1 <0>         0.4450
     43 H7         -5.7613    8.9541    2.7651 H         1 <0>         0.1027
     44 H8         -4.8354    9.5984    4.1631 H         1 <0>         0.0939
     45 H9         -4.8078    9.1542    0.4400 H         1 <0>         0.1013
     46 H10        -3.1850    9.8904    0.2135 H         1 <0>         0.0995
     47 H11        -6.4327   10.3999    1.2519 H         1 <0>         0.1249
     48 H12        -7.6154   12.5364    0.9428 H         1 <0>         0.1288
     49 H13        -4.2143   14.6305    2.4634 H         1 <0>         0.1320
     50 H14        -3.0427   12.4890    2.7801 H         1 <0>         0.1311
     51 H15        -8.3664   15.8589    0.8792 H         1 <0>         0.1030
     52 H16        -8.6017   14.2483    1.6390 H         1 <0>         0.0570
     53 H17        -7.9323   14.3678   -0.0236 H         1 <0>         0.0574
     54 H18        -1.4985    7.2476    4.5534 H         1 <0>         0.1204
     55 H19         0.8967    7.6186    4.9809 H         1 <0>         0.1319
     56 H20        -0.5461    5.1240    0.9796 H         1 <0>         0.1274
     57 H21         2.4033    4.3587   -0.5437 H         1 <0>         0.1019
     58 H22         0.9038    5.3473   -0.5162 H         1 <0>         0.0590
     59 H23         0.9840    3.8113    0.4116 H         1 <0>         0.0542
     60 H24         3.6031    6.4072    2.7429 H         1 <0>         0.4368
     61 H25        -2.8943    1.3712    4.8827 H         1 <0>         0.0776
     62 H26        -1.5567    1.5197    3.6930 H         1 <0>         0.0841
     63 H27        -0.7128    0.4244    5.7247 H         1 <0>         0.0736
     64 H28         0.0090    2.0642    5.5948 H         1 <0>         0.0635
     65 H29        -1.0804    1.8357    9.0766 H         1 <0>         0.0889
     66 H30         0.3453    2.1082    8.0182 H         1 <0>         0.0441
     67 H31        -0.3765    0.4684    8.1482 H         1 <0>         0.0425
@<TRIPOS>BOND
     1    1    2 1
     2    1   39 1
     3    1   40 1
     4    1   41 1
     5    2    8 1
     6    2    3 2
     7    3    4 1
     8    3   32 1
     9    4    5 1
    10    4    6 1
    11    4   23 1
    12    6   13 1
    13    6    7 2
    14    7    8 1
    15    7    9 1
    16    8   42 1
    17    9   10 1
    18    9   43 1
    19    9   44 1
    20   10   11 1
    21   10   12 1
    22   10   15 1
    23   12   13 1
    24   12   45 1
    25   12   46 1
    26   13   14 2
    27   15   20 ar
    28   15   16 ar
    29   16   17 ar
    30   16   47 1
    31   17   18 ar
    32   17   48 1
    33   18   19 ar
    34   18   21 1
    35   19   20 ar
    36   19   49 1
    37   20   50 1
    38   21   22 1
    39   22   51 1
    40   22   52 1
    41   22   53 1
    42   23   28 ar
    43   23   24 ar
    44   24   25 ar
    45   24   54 1
    46   25   26 ar
    47   25   55 1
    48   26   27 ar
    49   26   31 1
    50   27   28 ar
    51   27   29 1
    52   28   56 1
    53   29   30 1
    54   30   57 1
    55   30   58 1
    56   30   59 1
    57   31   60 1
    58   32   33 2
    59   32   34 1
    60   34   35 1
    61   35   36 1
    62   35   61 1
    63   35   62 1
    64   36   37 1
    65   36   63 1
    66   36   64 1
    67   37   38 1
    68   38   65 1
    69   38   66 1
    70   38   67 1
@<TRIPOS>MOLECULE
ZINC13063339
   61    64     0     0     0
SMALL
USER_CHARGES

@<TRIPOS>ATOM
      1 C1         -0.0187    1.5258    0.0104 C.3       1 <0>        -0.1519
      2 C2          0.0021   -0.0041    0.0020 C.3       1 <0>         0.0563
      3 O1          0.6709   -0.4649   -1.1737 O.3       1 <0>        -0.3466
      4 C3          0.7760   -1.8001   -1.3349 C.2       1 <0>         0.5356
      5 O2          0.3117   -2.5521   -0.4990 O.2       1 <0>        -0.4898
      6 C4          1.4482   -2.3437   -2.5150 C.2       1 <0>        -0.2175
      7 C5          2.8737   -2.6214   -2.5218 C.2       1 <0>        -0.0194
      8 C6          3.3642   -3.1237   -3.6844 C.2       1 <0>        -0.2418
      9 S1          1.9275   -3.2128   -4.7301 S.3       1 <0>         0.3144
     10 C7          0.7566   -2.6257   -3.6826 C.2       1 <0>         0.0519
     11 N1         -0.5966   -2.4579   -3.9295 N.am      1 <0>        -0.6238
     12 C8         -1.1078   -2.7865   -5.1325 C.2       1 <0>         0.5104
     13 O3         -0.3836   -3.2290   -5.9988 O.2       1 <0>        -0.4675
     14 C9         -2.5794   -2.6040   -5.4011 C.3       1 <0>         0.0409
     15 N2         -2.8834   -3.0314   -6.7733 N.3       1 <0>        -0.4999
     16 C10        -2.2371   -2.1498   -7.7547 C.3       1 <0>         0.0108
     17 C11        -4.3341   -3.0932   -6.9963 C.3       1 <0>         0.1004
     18 C12        -4.6111   -3.7633   -8.3174 C.2       1 <0>         0.3879
     19 N3         -5.9044   -3.9102   -8.7067 N.am      1 <0>        -0.6526
     20 H1         -6.6181   -3.5857   -8.1354 H         1 <0>         0.4176
     21 C13        -6.2063   -4.5048   -9.8844 C.2       1 <0>         0.5532
     22 O4         -7.3605   -4.6426  -10.2457 O.2       1 <0>        -0.5099
     23 C14        -5.0856   -4.9774  -10.7109 C.ar      1 <0>        -0.1994
     24 C15        -5.2879   -5.6026  -11.9391 C.ar      1 <0>        -0.0428
     25 C16        -4.2009   -6.0263  -12.6725 C.ar      1 <0>        -0.1361
     26 C17        -2.9105   -5.8349  -12.1973 C.ar      1 <0>        -0.0728
     27 C18        -2.6890   -5.2195  -10.9855 C.ar      1 <0>        -0.1047
     28 C19        -3.7739   -4.7810  -10.2242 C.ar      1 <0>         0.1490
     29 N4         -3.6015   -4.1657   -9.0275 N.2       1 <0>        -0.4805
     30 C20         3.7345   -2.3732   -1.3409 C.ar      1 <0>        -0.0454
     31 C21         3.6867   -1.1431   -0.6863 C.ar      1 <0>        -0.1042
     32 C22         4.4901   -0.9179    0.4129 C.ar      1 <0>        -0.1192
     33 C23         5.3419   -1.9096    0.8652 C.ar      1 <0>        -0.0802
     34 C24         5.3936   -3.1321    0.2198 C.ar      1 <0>        -0.1195
     35 C25         4.5908   -3.3708   -0.8769 C.ar      1 <0>        -0.0936
     36 C26         6.2174   -1.6570    2.0656 C.3       1 <0>        -0.1174
     37 H2          1.0039    1.9031    0.0027 H         1 <0>         0.0678
     38 H3         -0.5459    1.8868   -0.8726 H         1 <0>         0.0664
     39 H4         -0.5289    1.8773    0.9072 H         1 <0>         0.0809
     40 H5          0.5293   -0.3651    0.8851 H         1 <0>         0.0692
     41 H6         -1.0205   -0.3814    0.0098 H         1 <0>         0.0670
     42 H7          4.3813   -3.4015   -3.9181 H         1 <0>         0.1931
     43 H8         -1.1758   -2.1040   -3.2366 H         1 <0>         0.4182
     44 H9         -3.1546   -3.2056   -4.6973 H         1 <0>         0.1162
     45 H10        -2.8431   -1.5532   -5.2810 H         1 <0>         0.0773
     46 H11        -1.1569   -2.1768   -7.6114 H         1 <0>         0.0889
     47 H12        -2.4786   -2.4887   -8.7621 H         1 <0>         0.0962
     48 H13        -2.5962   -1.1297   -7.6187 H         1 <0>         0.0183
     49 H14        -4.8009   -3.6647   -6.1940 H         1 <0>         0.1130
     50 H15        -4.7432   -2.0830   -7.0084 H         1 <0>         0.0749
     51 H16        -6.2894   -5.7544  -12.3137 H         1 <0>         0.1376
     52 H17        -4.3541   -6.5117  -13.6250 H         1 <0>         0.1343
     53 H18        -2.0700   -6.1732  -12.7851 H         1 <0>         0.1357
     54 H19        -1.6807   -5.0761  -10.6261 H         1 <0>         0.1425
     55 H20         3.0226   -0.3679   -1.0390 H         1 <0>         0.1276
     56 H21         4.4540    0.0345    0.9208 H         1 <0>         0.1236
     57 H22         6.0606   -3.9026    0.5774 H         1 <0>         0.1259
     58 H23         4.6287   -4.3272   -1.3773 H         1 <0>         0.1267
     59 H24         5.6868   -1.9523    2.9708 H         1 <0>         0.0716
     60 H25         7.1343   -2.2395    1.9755 H         1 <0>         0.0680
     61 H26         6.4642   -0.5967    2.1186 H         1 <0>         0.0673
@<TRIPOS>BOND
     1    1    2 1
     2    1   37 1
     3    1   38 1
     4    1   39 1
     5    2    3 1
     6    2   40 1
     7    2   41 1
     8    3    4 1
     9    4    5 2
    10    4    6 1
    11    6   10 2
    12    6    7 1
    13    7    8 2
    14    7   30 1
    15    8    9 1
    16    8   42 1
    17    9   10 1
    18   10   11 1
    19   11   12 am
    20   11   43 1
    21   12   13 2
    22   12   14 1
    23   14   15 1
    24   14   44 1
    25   14   45 1
    26   15   16 1
    27   15   17 1
    28   16   46 1
    29   16   47 1
    30   16   48 1
    31   17   49 1
    32   17   50 1
    33   17   18 1
    34   18   29 2
    35   18   19 1
    36   19   20 1
    37   19   21 am
    38   21   22 2
    39   21   23 1
    40   23   24 ar
    41   23   28 ar
    42   24   51 1
    43   24   25 ar
    44   25   52 1
    45   25   26 ar
    46   26   53 1
    47   26   27 ar
    48   27   54 1
    49   27   28 ar
    50   28   29 1
    51   30   35 ar
    52   30   31 ar
    53   31   32 ar
    54   31   55 1
    55   32   33 ar
    56   32   56 1
    57   33   34 ar
    58   33   36 1
    59   34   35 ar
    60   34   57 1
    61   35   58 1
    62   36   59 1
    63   36   60 1
    64   36   61 1
@<TRIPOS>MOLECULE
ZINC40321272
   60    63     0     0     0
SMALL
USER_CHARGES

@<TRIPOS>ATOM
      1 C1         -0.0173    1.4248    0.0099 C.3       1 <0>         0.0313
      2 O1          0.0021   -0.0041    0.0020 O.3       1 <0>        -0.3922
      3 C2          0.6734   -0.5824    1.1231 C.3       1 <0>         0.0640
      4 C3          0.6327   -2.1077    1.0107 C.3       1 <0>        -0.1319
      5 C4          1.3514   -2.7270    2.2110 C.3       1 <0>         0.1193
      6 N1          1.3125   -4.1875    2.1034 N.am      1 <0>        -0.7224
      7 C5          1.8871   -4.9489    3.0555 C.2       1 <0>         0.5802
      8 O2          2.4384   -4.4232    4.0047 O.2       1 <0>        -0.5278
      9 C6          1.8481   -6.4104    2.9477 C.2       1 <0>        -0.2208
     10 C7          2.8984   -7.1474    2.2669 C.2       1 <0>        -0.0619
     11 C8          2.7156   -8.4853    2.2545 C.2       1 <0>        -0.2162
     12 S1          1.1957   -8.7389    3.1229 S.3       1 <0>         0.2892
     13 C9          0.8101   -7.1478    3.4965 C.2       1 <0>         0.0279
     14 N2         -0.2926   -6.6794    4.1916 N.am      1 <0>        -0.6070
     15 C10        -1.2127   -7.5463    4.6588 C.2       1 <0>         0.5991
     16 O3         -1.0747   -8.7407    4.4700 O.2       1 <0>        -0.4676
     17 C11        -2.3798   -7.0507    5.3945 C.2       1 <0>        -0.0293
     18 C12        -3.3792   -7.8163    5.9242 C.2       1 <0>        -0.1213
     19 C13        -4.2824   -6.9335    6.5363 C.2       1 <0>        -0.0922
     20 C14        -3.8012   -5.6836    6.3558 C.2       1 <0>        -0.5308
     21 O4         -2.6520   -5.7588    5.6721 O.3       1 <0>        -0.1078
     22 S2         -4.5578   -4.1999    6.9309 S.o2      1 <0>         2.6084
     23 O5         -4.0845   -3.1524    6.0955 O.2       1 <0>        -0.9112
     24 O6         -5.9415   -4.4836    7.0869 O.2       1 <0>        -0.9044
     25 C15        -3.9237   -3.8831    8.5440 C.ar      1 <0>        -0.6617
     26 C16        -4.5643   -4.4034    9.6530 C.ar      1 <0>        -0.0200
     27 C17        -4.0668   -4.1548   10.9185 C.ar      1 <0>        -0.1378
     28 C18        -2.9284   -3.3864   11.0751 C.ar      1 <0>        -0.0556
     29 C19        -2.2873   -2.8668    9.9660 C.ar      1 <0>        -0.1374
     30 C20        -2.7824   -3.1189    8.7002 C.ar      1 <0>        -0.0170
     31 C21         3.6144   -9.5104    1.6347 C.3       1 <0>        -0.0357
     32 C22         4.5848   -8.7906    0.6865 C.3       1 <0>        -0.1145
     33 C23         5.1857   -7.5846    1.4142 C.3       1 <0>        -0.1195
     34 C24         4.1148   -6.5094    1.6122 C.3       1 <0>        -0.0598
     35 H1          1.0053    1.8021    0.0021 H         1 <0>         0.0426
     36 H2         -0.5445    1.7859   -0.8732 H         1 <0>         0.0880
     37 H3         -0.5275    1.7763    0.9067 H         1 <0>         0.0433
     38 H4          1.7103   -0.2468    1.1385 H         1 <0>         0.0534
     39 H5          0.1775   -0.2725    2.0430 H         1 <0>         0.0544
     40 H6         -0.4042   -2.4434    0.9953 H         1 <0>         0.0798
     41 H7          1.1285   -2.4176    0.0908 H         1 <0>         0.0796
     42 H8          2.3884   -2.3913    2.2264 H         1 <0>         0.0729
     43 H9          0.8556   -2.4171    3.1309 H         1 <0>         0.0726
     44 H10         0.8731   -4.6065    1.3469 H         1 <0>         0.4041
     45 H11        -0.4027   -5.7275    4.3421 H         1 <0>         0.4258
     46 H12        -3.4592   -8.8924    5.8801 H         1 <0>         0.1808
     47 H13        -5.1915   -7.2024    7.0537 H         1 <0>         0.1836
     48 H14        -5.4537   -5.0037    9.5307 H         1 <0>         0.1453
     49 H15        -4.5677   -4.5607   11.7850 H         1 <0>         0.1381
     50 H16        -2.5401   -3.1916   12.0639 H         1 <0>         0.1356
     51 H17        -1.3981   -2.2662   10.0884 H         1 <0>         0.1379
     52 H18        -2.2794   -2.7161    7.8335 H         1 <0>         0.1450
     53 H19         4.1762  -10.0256    2.4138 H         1 <0>         0.0837
     54 H20         3.0185  -10.2302    1.0735 H         1 <0>         0.0825
     55 H21         5.3817   -9.4736    0.3923 H         1 <0>         0.0747
     56 H22         4.0465   -8.4519   -0.1987 H         1 <0>         0.0686
     57 H23         5.5658   -7.9005    2.3858 H         1 <0>         0.0676
     58 H24         6.0044   -7.1755    0.8222 H         1 <0>         0.0709
     59 H25         3.8328   -6.0914    0.6458 H         1 <0>         0.0780
     60 H26         4.5041   -5.7199    2.2551 H         1 <0>         0.0760
@<TRIPOS>BOND
     1    1    2 1
     2    1   35 1
     3    1   36 1
     4    1   37 1
     5    2    3 1
     6    3    4 1
     7    3   38 1
     8    3   39 1
     9    4    5 1
    10    4   40 1
    11    4   41 1
    12    5    6 1
    13    5   42 1
    14    5   43 1
    15    6    7 am
    16    6   44 1
    17    7    8 2
    18    7    9 1
    19    9   13 2
    20    9   10 1
    21   10   34 1
    22   10   11 2
    23   11   12 1
    24   11   31 1
    25   12   13 1
    26   13   14 1
    27   14   15 am
    28   14   45 1
    29   15   16 2
    30   15   17 1
    31   17   21 1
    32   17   18 2
    33   18   19 1
    34   18   46 1
    35   19   20 2
    36   19   47 1
    37   20   21 1
    38   20   22 1
    39   22   23 2
    40   22   24 2
    41   22   25 1
    42   25   30 ar
    43   25   26 ar
    44   26   27 ar
    45   26   48 1
    46   27   28 ar
    47   27   49 1
    48   28   29 ar
    49   28   50 1
    50   29   30 ar
    51   29   51 1
    52   30   52 1
    53   31   32 1
    54   31   53 1
    55   31   54 1
    56   32   33 1
    57   32   55 1
    58   32   56 1
    59   33   34 1
    60   33   57 1
    61   33   58 1
    62   34   59 1
    63   34   60 1
@<TRIPOS>MOLECULE
ZINC09347280
   51    53     0     0     0
SMALL
USER_CHARGES
ethyl 7-[2-[(5-butanoylamino-1,3,4-thiadiazol-2-yl)sulfanyl]acetyl]amino-6-thiabicyclo[3.3.0]octa-7,9-diene-8-carboxylate
@<TRIPOS>ATOM
      1 C1        -10.8830    7.5705    0.0941 C.3       1 <0>        -0.1538
      2 C2         -9.7081    6.5906    0.0838 C.3       1 <0>        -0.1129
      3 C3         -8.3925    7.3717    0.0811 C.3       1 <0>        -0.1322
      4 C4         -7.2352    6.4065    0.0709 C.2       1 <0>         0.5067
      5 O1         -7.4423    5.2114    0.0663 O.2       1 <0>        -0.4643
      6 N1         -5.9701    6.8712    0.0670 N.am      1 <0>        -0.6144
      7 C5         -4.9006    5.9792    0.0576 C.2       1 <0>         0.2859
      8 N2         -4.8968    4.6563    0.0509 N.2       1 <0>        -0.2732
      9 N3         -3.8254    3.9908    0.0423 N.2       1 <0>        -0.2572
     10 C6         -2.6369    4.5766    0.0394 C.2       1 <0>        -0.0107
     11 S1         -3.1382    6.2955    0.0585 S.3       1 <0>         0.0558
     12 S2         -1.0241    3.8670    0.0279 S.3       1 <0>         0.1452
     13 C7         -1.3314    2.0792    0.0197 C.3       1 <0>        -0.1605
     14 C8         -0.0162    1.3436    0.0094 C.2       1 <0>         0.5363
     15 O2          1.0257    1.9642    0.0028 O.2       1 <0>        -0.4805
     16 N4          0.0021   -0.0041    0.0020 N.am      1 <0>        -0.6118
     17 C9          1.2117   -0.6807   -0.0132 C.2       1 <0>         0.0713
     18 C10         1.4333   -2.0482   -0.0170 C.2       1 <0>        -0.1878
     19 C11         2.8218   -2.5086   -0.0382 C.2       1 <0>        -0.0915
     20 C12         3.7471   -1.5326   -0.0421 C.2       1 <0>        -0.2287
     21 S3          2.8123   -0.0225   -0.0243 S.3       1 <0>         0.2846
     22 C13         5.1475   -2.0831   -0.0614 C.3       1 <0>        -0.0321
     23 C14         4.9817   -3.5530   -0.5061 C.3       1 <0>        -0.1157
     24 C15         3.5408   -3.8582   -0.0507 C.3       1 <0>        -0.0628
     25 C16         0.3187   -2.9979   -0.0049 C.2       1 <0>         0.5293
     26 O3         -0.1562   -3.3917   -1.0532 O.2       1 <0>        -0.4930
     27 O4         -0.1813   -3.4360    1.1688 O.3       1 <0>        -0.3501
     28 C17        -1.2858   -4.3763    1.1048 C.3       1 <0>         0.0578
     29 C18        -1.7149   -4.7564    2.5233 C.3       1 <0>        -0.1532
     30 H1        -11.8203    7.0140    0.0960 H         1 <0>         0.0615
     31 H2        -10.8286    8.1936    0.9867 H         1 <0>         0.0566
     32 H3        -10.8372    8.2020   -0.7932 H         1 <0>         0.0566
     33 H4         -9.7625    5.9674   -0.8089 H         1 <0>         0.0729
     34 H5         -9.7539    5.9591    0.9710 H         1 <0>         0.0728
     35 H6         -8.3381    7.9948    0.9737 H         1 <0>         0.1038
     36 H7         -8.3467    8.0032   -0.8062 H         1 <0>         0.1038
     37 H8         -5.8045    7.8270    0.0707 H         1 <0>         0.4303
     38 H9         -1.9035    1.8130   -0.8691 H         1 <0>         0.1390
     39 H10        -1.8951    1.8033    0.9108 H         1 <0>         0.1389
     40 H11        -0.8313   -0.5005    0.0073 H         1 <0>         0.4238
     41 H12         5.7611   -1.5362   -0.7773 H         1 <0>         0.0820
     42 H13         5.5888   -2.0345    0.9341 H         1 <0>         0.0879
     43 H14         5.0770   -3.6464   -1.5879 H         1 <0>         0.0785
     44 H15         5.6970   -4.1980    0.0042 H         1 <0>         0.0864
     45 H16         3.0583   -4.5360   -0.7549 H         1 <0>         0.0738
     46 H17         3.5453   -4.2939    0.9484 H         1 <0>         0.0840
     47 H18        -2.1247   -3.9165    0.5824 H         1 <0>         0.0711
     48 H19        -0.9704   -5.2713    0.5685 H         1 <0>         0.0723
     49 H20        -0.8760   -5.2163    3.0457 H         1 <0>         0.0680
     50 H21        -2.0303   -3.8614    3.0596 H         1 <0>         0.0671
     51 H22        -2.5440   -5.4623    2.4753 H         1 <0>         0.0823
@<TRIPOS>BOND
     1    1    2 1
     2    1   30 1
     3    1   31 1
     4    1   32 1
     5    2    3 1
     6    2   33 1
     7    2   34 1
     8    3    4 1
     9    3   35 1
    10    3   36 1
    11    4    5 2
    12    4    6 am
    13    6    7 1
    14    6   37 1
    15    7   11 1
    16    7    8 2
    17    8    9 1
    18    9   10 2
    19   10   11 1
    20   10   12 1
    21   12   13 1
    22   13   14 1
    23   13   38 1
    24   13   39 1
    25   14   15 2
    26   14   16 am
    27   16   17 1
    28   16   40 1
    29   17   21 1
    30   17   18 2
    31   18   19 1
    32   18   25 1
    33   19   24 1
    34   19   20 2
    35   20   21 1
    36   20   22 1
    37   22   23 1
    38   22   41 1
    39   22   42 1
    40   23   24 1
    41   23   43 1
    42   23   44 1
    43   24   45 1
    44   24   46 1
    45   25   26 2
    46   25   27 1
    47   27   28 1
    48   28   29 1
    49   28   47 1
    50   28   48 1
    51   29   49 1
    52   29   50 1
    53   29   51 1
@<TRIPOS>MOLECULE
ZINC14537785
   59    62     0     0     0
SMALL
USER_CHARGES
methyl 5-[(4-fluorophenyl)methylamino]-3-(furan-3-carbonylamino)-1-isobutyl-pyrrolo[5,4-b]pyridine-2-carboxylate
@<TRIPOS>ATOM
      1 C1          4.2317   -7.0008   -0.1627 C.3       1 <0>        -0.1423
      2 C2          3.2794   -5.8609   -0.5292 C.3       1 <0>        -0.1081
      3 C3          2.2392   -6.3673   -1.5304 C.3       1 <0>        -0.1440
      4 C4          2.5722   -5.3616    0.7323 C.3       1 <0>         0.1118
      5 N1          1.7513   -4.1939    0.4023 N.pl3     1 <0>        -0.4385
      6 C5          2.1882   -2.8771    0.4410 C.2       1 <0>         0.0533
      7 C6          1.1474   -2.0491    0.0726 C.2       1 <0>         0.1537
      8 C7          0.0062   -2.9191   -0.2176 C.ar      1 <0>        -0.1109
      9 C8          0.4367   -4.2417    0.0035 C.ar      1 <0>         0.2797
     10 N2         -0.4051   -5.2511   -0.1856 N.ar      1 <0>        -0.4549
     11 C9         -1.6452   -5.0564   -0.5789 C.ar      1 <0>         0.1066
     12 C10        -2.1409   -3.7768   -0.8170 C.ar      1 <0>         0.1399
     13 C11        -1.3075   -2.6827   -0.6357 C.ar      1 <0>        -0.0991
     14 N3         -3.4654   -3.5968   -1.2342 N.pl3     1 <0>        -0.7397
     15 C12        -4.3382   -4.7581   -1.4230 C.3       1 <0>         0.1674
     16 C13        -5.7006   -4.2951   -1.8708 C.ar      1 <0>        -0.1211
     17 C14        -6.6763   -4.0115   -0.9334 C.ar      1 <0>        -0.0691
     18 C15        -7.9245   -3.5822   -1.3427 C.ar      1 <0>        -0.1563
     19 C16        -8.2010   -3.4462   -2.6926 C.ar      1 <0>         0.1085
     20 C17        -7.2247   -3.7356   -3.6307 C.ar      1 <0>        -0.1559
     21 C18        -5.9755   -4.1597   -3.2188 C.ar      1 <0>        -0.0689
     22 F1         -9.4224   -3.0311   -3.0940 F         1 <0>        -0.1369
     23 N4          1.1783   -0.6620   -0.0122 N.am      1 <0>        -0.6504
     24 C19         1.4628   -0.0648   -1.1865 C.2       1 <0>         0.6000
     25 O1          1.7774   -0.7369   -2.1500 O.2       1 <0>        -0.5166
     26 C20         1.3928    1.4023   -1.3029 C.2       1 <0>        -0.2324
     27 C21         1.6740    2.2136   -2.4964 C.2       1 <0>        -0.1640
     28 C22         1.4779    3.4893   -2.1297 C.2       1 <0>        -0.0365
     29 O2          1.1165    3.5250   -0.8376 O.3       1 <0>        -0.1719
     30 C23         1.0592    2.2924   -0.3241 C.2       1 <0>         0.0256
     31 C24         3.4908   -2.4515    0.8035 C.2       1 <0>         0.5313
     32 O3          3.7649   -1.2659    0.8063 O.2       1 <0>        -0.4797
     33 O4          4.4272   -3.3613    1.1456 O.3       1 <0>        -0.3502
     34 C25         5.7183   -2.8618    1.4997 C.3       1 <0>         0.0331
     35 H1          3.6653   -7.8181    0.2839 H         1 <0>         0.0585
     36 H2          4.7356   -7.3565   -1.0614 H         1 <0>         0.0609
     37 H3          4.9728   -6.6401    0.5506 H         1 <0>         0.0582
     38 H4          3.8458   -5.0436   -0.9758 H         1 <0>         0.0735
     39 H5          1.6728   -7.1845   -1.0839 H         1 <0>         0.0615
     40 H6          1.5607   -5.5551   -1.7915 H         1 <0>         0.0532
     41 H7          2.7430   -6.7230   -2.4292 H         1 <0>         0.0534
     42 H8          3.3154   -5.0837    1.4797 H         1 <0>         0.1042
     43 H9          1.9358   -6.1526    1.1293 H         1 <0>         0.0974
     44 H10        -2.2939   -5.9083   -0.7200 H         1 <0>         0.1631
     45 H11        -1.6625   -1.6782   -0.8126 H         1 <0>         0.1330
     46 H12        -3.8050   -2.7031   -1.3981 H         1 <0>         0.4029
     47 H13        -3.9105   -5.4148   -2.1806 H         1 <0>         0.0725
     48 H14        -4.4300   -5.3005   -0.4820 H         1 <0>         0.0728
     49 H15        -6.4617   -4.1216    0.1193 H         1 <0>         0.1356
     50 H16        -8.6853   -3.3567   -0.6100 H         1 <0>         0.1383
     51 H17        -7.4391   -3.6296   -4.6839 H         1 <0>         0.1384
     52 H18        -5.2137   -4.3852   -3.9504 H         1 <0>         0.1357
     53 H19         0.9950   -0.1238    0.7737 H         1 <0>         0.4087
     54 H20         1.9747    1.8557   -3.4700 H         1 <0>         0.1603
     55 H21         1.5967    4.3504   -2.7707 H         1 <0>         0.2109
     56 H22         0.7936    2.0433    0.6927 H         1 <0>         0.2110
     57 H23         6.1384   -2.3115    0.6578 H         1 <0>         0.0636
     58 H24         5.6277   -2.1974    2.3591 H         1 <0>         0.0636
     59 H25         6.3737   -3.6953    1.7523 H         1 <0>         0.1055
@<TRIPOS>BOND
     1    1    2 1
     2    1   35 1
     3    1   36 1
     4    1   37 1
     5    2    3 1
     6    2    4 1
     7    2   38 1
     8    3   39 1
     9    3   40 1
    10    3   41 1
    11    4    5 1
    12    4   42 1
    13    4   43 1
    14    5    9 1
    15    5    6 1
    16    6    7 2
    17    6   31 1
    18    7    8 1
    19    7   23 1
    20    8   13 ar
    21    8    9 ar
    22    9   10 ar
    23   10   11 ar
    24   11   12 ar
    25   11   44 1
    26   12   13 ar
    27   12   14 1
    28   13   45 1
    29   14   15 1
    30   14   46 1
    31   15   16 1
    32   15   47 1
    33   15   48 1
    34   16   21 ar
    35   16   17 ar
    36   17   18 ar
    37   17   49 1
    38   18   19 ar
    39   18   50 1
    40   19   20 ar
    41   19   22 1
    42   20   21 ar
    43   20   51 1
    44   21   52 1
    45   23   24 am
    46   23   53 1
    47   24   25 2
    48   24   26 1
    49   26   30 2
    50   26   27 1
    51   27   28 2
    52   27   54 1
    53   28   29 1
    54   28   55 1
    55   29   30 1
    56   30   56 1
    57   31   32 2
    58   31   33 1
    59   33   34 1
    60   34   57 1
    61   34   58 1
    62   34   59 1
@<TRIPOS>MOLECULE
ZINC23865142
   59    62     0     0     0
SMALL
USER_CHARGES
ethyl (6R)-4-[[1-(1,3-benzothiazol-2-ylmethyl)cyclopentanecarbonyl]oxymethyl]-6-methyl-2-oxo-3,6-dihydro-1H-pyrimidine-5-carboxylate
@<TRIPOS>ATOM
      1 C1          2.8294   -2.9633    2.0759 C.3       1 <0>        -0.1544
      2 C2          3.3621   -1.5517    1.8221 C.3       1 <0>         0.0590
      3 O1          2.2652   -0.6544    1.6387 O.3       1 <0>        -0.3454
      4 C3          2.5653    0.6400    1.4031 C.2       1 <0>         0.5334
      5 O2          3.7279    0.9959    1.3549 O.2       1 <0>        -0.5198
      6 C4          1.5284    1.5830    1.2121 C.2       1 <0>        -0.2972
      7 C5          1.7983    2.8988    1.0722 C.2       1 <0>         0.2764
      8 N1          0.7964    3.8080    0.8870 N.am      1 <0>        -0.6513
      9 C6         -0.5010    3.4819    0.8300 C.2       1 <0>         0.7044
     10 O3         -1.3218    4.3627    0.6618 O.2       1 <0>        -0.5674
     11 N2         -0.9268    2.2093    0.9540 N.am      1 <0>        -0.7353
     12 C7          0.0770    1.1511    1.1570 C.3       1 <0>         0.1987
     13 H1         -0.0162    0.5443    0.2442 H         1 <0>         0.0813
     14 C8         -0.2518    0.4342    2.4680 C.3       1 <0>        -0.1622
     15 C9          3.2285    3.3714    1.1208 C.3       1 <0>         0.1023
     16 O4          3.2612    4.8218    1.0617 O.3       1 <0>        -0.3638
     17 C10         4.4697    5.4017    0.9913 C.2       1 <0>         0.4819
     18 O5          5.4690    4.7272    1.0715 O.2       1 <0>        -0.4870
     19 C11         4.5802    6.8939    0.8121 C.3       1 <0>        -0.0497
     20 C12         6.0616    7.3013    0.6733 C.3       1 <0>        -0.1256
     21 C13         6.1554    8.6524    1.4264 C.3       1 <0>        -0.1229
     22 C14         5.2115    8.4369    2.6354 C.3       1 <0>        -0.1209
     23 C15         4.0396    7.6159    2.0588 C.3       1 <0>        -0.1082
     24 C16         3.7978    7.3319   -0.4276 C.3       1 <0>        -0.0258
     25 C17         4.2761    6.5517   -1.6250 C.2       1 <0>         0.1238
     26 N3          3.7800    5.4558   -2.1265 N.2       1 <0>        -0.4935
     27 C18         4.3072    4.8520   -3.2119 C.ar      1 <0>         0.0752
     28 C19         3.8876    3.6729   -3.8669 C.ar      1 <0>        -0.0574
     29 C20         4.5522    3.2118   -4.9607 C.ar      1 <0>        -0.1108
     30 C21         5.6591    3.8743   -5.4731 C.ar      1 <0>        -0.0907
     31 C22         6.1012    5.0318   -4.8606 C.ar      1 <0>        -0.0676
     32 C23         5.4367    5.5055   -3.7555 C.ar      1 <0>        -0.1501
     33 S1          5.6159    6.9006   -2.6727 S.3       1 <0>         0.0363
     34 H2          3.6738   -3.6540    2.2171 H         1 <0>         0.0805
     35 H3          2.2293   -3.2893    1.2136 H         1 <0>         0.0674
     36 H4          2.2021   -2.9615    2.9795 H         1 <0>         0.0673
     37 H5          3.9622   -1.2257    2.6844 H         1 <0>         0.0688
     38 H6          3.9894   -1.5535    0.9185 H         1 <0>         0.0685
     39 H7          1.0363    4.8757    0.7750 H         1 <0>         0.4648
     40 H8         -1.9953    1.9521    0.9068 H         1 <0>         0.4578
     41 H9         -1.3026    0.1091    2.4546 H         1 <0>         0.0642
     42 H10        -0.0913    1.1213    3.3119 H         1 <0>         0.0596
     43 H11         0.4021   -0.4432    2.5801 H         1 <0>         0.0880
     44 H12         3.6952    3.0320    2.0573 H         1 <0>         0.1186
     45 H13         3.7809    2.9570    0.2646 H         1 <0>         0.1176
     46 H14         6.6985    6.5291    1.1294 H         1 <0>         0.0943
     47 H15         6.3155    7.4037   -0.3921 H         1 <0>         0.0757
     48 H16         7.1978    8.8323    1.7283 H         1 <0>         0.0766
     49 H17         5.8197    9.4649    0.7652 H         1 <0>         0.0730
     50 H18         5.7475    7.8919    3.4264 H         1 <0>         0.0719
     51 H19         4.8814    9.4126    3.0214 H         1 <0>         0.0775
     52 H20         3.2057    8.2724    1.7696 H         1 <0>         0.0894
     53 H21         3.6852    6.8726    2.7881 H         1 <0>         0.0770
     54 H22         2.7257    7.1420   -0.2706 H         1 <0>         0.1172
     55 H23         3.9582    8.4061   -0.6019 H         1 <0>         0.1168
     56 H24         3.0300    3.1317   -3.4954 H         1 <0>         0.1304
     57 H25         4.2102    2.3077   -5.4423 H         1 <0>         0.1353
     58 H26         6.1706    3.4886   -6.3425 H         1 <0>         0.1406
     59 H27         6.9607    5.5591   -5.2474 H         1 <0>         0.1354
@<TRIPOS>BOND
     1    1    2 1
     2    1   34 1
     3    1   35 1
     4    1   36 1
     5    2    3 1
     6    2   37 1
     7    2   38 1
     8    3    4 1
     9    4    5 2
    10    4    6 1
    11    6   12 1
    12    6    7 2
    13    7    8 1
    14    7   15 1
    15    8    9 am
    16    8   39 1
    17    9   10 2
    18    9   11 am
    19   11   12 1
    20   11   40 1
    21   12   13 1
    22   12   14 1
    23   14   41 1
    24   14   42 1
    25   14   43 1
    26   15   16 1
    27   15   44 1
    28   15   45 1
    29   16   17 1
    30   17   18 2
    31   17   19 1
    32   19   23 1
    33   19   20 1
    34   19   24 1
    35   20   21 1
    36   20   46 1
    37   20   47 1
    38   21   22 1
    39   21   48 1
    40   21   49 1
    41   22   23 1
    42   22   50 1
    43   22   51 1
    44   23   52 1
    45   23   53 1
    46   24   25 1
    47   24   54 1
    48   24   55 1
    49   25   33 1
    50   25   26 2
    51   26   27 1
    52   27   32 ar
    53   27   28 ar
    54   28   29 ar
    55   28   56 1
    56   29   30 ar
    57   29   57 1
    58   30   31 ar
    59   30   58 1
    60   31   32 ar
    61   31   59 1
    62   32   33 1
@<TRIPOS>MOLECULE
ZINC39772867
   63    65     0     0     0
SMALL
USER_CHARGES

@<TRIPOS>ATOM
      1 C1         -0.0187    1.5258    0.0104 C.3       1 <0>        -0.1445
      2 C2          0.0021   -0.0041    0.0020 C.3       1 <0>        -0.0491
      3 C3          0.7309   -0.5033    1.2229 C.2       1 <0>         0.0828
      4 C4          2.0698   -0.7161    1.2105 C.2       1 <0>        -0.2403
      5 S1          2.3324   -1.2805    2.8840 S.3       1 <0>         0.2153
      6 C5          0.7377   -1.1875    3.4138 C.2       1 <0>         0.2364
      7 N1          0.0950   -0.7475    2.3537 N.2       1 <0>        -0.5414
      8 N2          0.2250   -1.4961    4.6684 N.am      1 <0>        -0.6024
      9 C6          1.0466   -1.9331    5.6433 C.2       1 <0>         0.5402
     10 O1          2.2333   -2.0570    5.4260 O.2       1 <0>        -0.4820
     11 C7          0.4907   -2.2677    7.0035 C.3       1 <0>        -0.1003
     12 H1         -0.3253   -1.5850    7.2405 H         1 <0>         0.1320
     13 C8         -0.0317   -3.7057    7.0013 C.3       1 <0>        -0.1481
     14 S2          1.7990   -2.1015    8.2490 S.3       1 <0>         0.0816
     15 C9          0.9687   -2.3758    9.7787 C.2       1 <0>         0.1488
     16 N3         -0.3067   -2.6435    9.9375 N.2       1 <0>        -0.2880
     17 N4         -0.5709   -2.7843   11.1874 N.2       1 <0>        -0.2661
     18 C10         0.5104   -2.6163   11.8948 C.2       1 <0>         0.1762
     19 N5          1.5311   -2.3560   11.0227 N.pl3     1 <0>        -0.4511
     20 C11         2.9357   -2.1044   11.3546 C.3       1 <0>         0.0630
     21 C12         0.6176   -2.6999   13.3957 C.3       1 <0>         0.2448
     22 H2          1.6664   -2.7804   13.6811 H         1 <0>         0.1069
     23 C13         0.0141   -1.4407   14.0211 C.3       1 <0>        -0.0988
     24 C14        -1.4862   -1.3928   13.7245 C.3       1 <0>        -0.1498
     25 C15         0.2340   -1.4674   15.5349 C.3       1 <0>        -0.1398
     26 N6         -0.1101   -3.8787   13.8723 N.am      1 <0>        -0.7132
     27 C16         0.2306   -4.4532   15.0430 C.2       1 <0>         0.5652
     28 O2          1.1416   -3.9932   15.7033 O.2       1 <0>        -0.5271
     29 C17        -0.5038   -5.6428   15.5240 C.ar      1 <0>        -0.1386
     30 C18        -1.5466   -6.1769   14.7654 C.ar      1 <0>        -0.0851
     31 C19        -2.2274   -7.2874   15.2197 C.ar      1 <0>        -0.1265
     32 C20        -1.8789   -7.8713   16.4247 C.ar      1 <0>        -0.0907
     33 C21        -0.8465   -7.3466   17.1817 C.ar      1 <0>        -0.1278
     34 C22        -0.1535   -6.2401   16.7359 C.ar      1 <0>        -0.0578
     35 C23         3.0626   -0.5286    0.0924 C.3       1 <0>        -0.0592
     36 H3          1.0039    1.9031    0.0027 H         1 <0>         0.0552
     37 H4         -0.5459    1.8868   -0.8726 H         1 <0>         0.0622
     38 H5         -0.5289    1.8773    0.9072 H         1 <0>         0.0558
     39 H6         -1.0205   -0.3814    0.0098 H         1 <0>         0.0783
     40 H7          0.5123   -0.3556   -0.8948 H         1 <0>         0.0808
     41 H8         -0.7242   -1.3970    4.8422 H         1 <0>         0.4275
     42 H9         -0.8179   -3.8055    6.2529 H         1 <0>         0.0771
     43 H10         0.7843   -4.3884    6.7644 H         1 <0>         0.0773
     44 H11        -0.4338   -3.9477    7.9851 H         1 <0>         0.0941
     45 H12         3.0865   -1.0362   11.5105 H         1 <0>         0.0930
     46 H13         3.1964   -2.6448   12.2646 H         1 <0>         0.0996
     47 H14         3.5691   -2.4451   10.5356 H         1 <0>         0.0996
     48 H15         0.4962   -0.5588   13.5994 H         1 <0>         0.0781
     49 H16        -1.9683   -2.2747   14.1462 H         1 <0>         0.0578
     50 H17        -1.9161   -0.4957   14.1700 H         1 <0>         0.0565
     51 H18        -1.6429   -1.3737   12.6460 H         1 <0>         0.0676
     52 H19         1.3028   -1.5016   15.7462 H         1 <0>         0.0620
     53 H20        -0.1959   -0.5703   15.9804 H         1 <0>         0.0548
     54 H21        -0.2481   -2.3494   15.9566 H         1 <0>         0.0609
     55 H22        -0.8371   -4.2458   13.3454 H         1 <0>         0.4096
     56 H23        -1.8201   -5.7216   13.8250 H         1 <0>         0.1258
     57 H24        -3.0345   -7.7017   14.6337 H         1 <0>         0.1303
     58 H25        -2.4153   -8.7403   16.7760 H         1 <0>         0.1287
     59 H26        -0.5796   -7.8069   18.1216 H         1 <0>         0.1314
     60 H27         0.6554   -5.8344   17.3254 H         1 <0>         0.1371
     61 H28         3.4589    0.4862    0.1248 H         1 <0>         0.0776
     62 H29         3.8791   -1.2414    0.2082 H         1 <0>         0.0734
     63 H30         2.5679   -0.6951   -0.8645 H         1 <0>         0.0818
@<TRIPOS>BOND
     1    1    2 1
     2    1   36 1
     3    1   37 1
     4    1   38 1
     5    2    3 1
     6    2   39 1
     7    2   40 1
     8    3    7 1
     9    3    4 2
    10    4    5 1
    11    4   35 1
    12    5    6 1
    13    6    7 2
    14    6    8 1
    15    8    9 am
    16    8   41 1
    17    9   10 2
    18    9   11 1
    19   11   12 1
    20   11   13 1
    21   11   14 1
    22   13   42 1
    23   13   43 1
    24   13   44 1
    25   14   15 1
    26   15   19 1
    27   15   16 2
    28   16   17 1
    29   17   18 2
    30   18   19 1
    31   18   21 1
    32   19   20 1
    33   20   45 1
    34   20   46 1
    35   20   47 1
    36   21   22 1
    37   21   23 1
    38   21   26 1
    39   23   24 1
    40   23   25 1
    41   23   48 1
    42   24   49 1
    43   24   50 1
    44   24   51 1
    45   25   52 1
    46   25   53 1
    47   25   54 1
    48   26   27 am
    49   26   55 1
    50   27   28 2
    51   27   29 1
    52   29   34 ar
    53   29   30 ar
    54   30   31 ar
    55   30   56 1
    56   31   32 ar
    57   31   57 1
    58   32   33 ar
    59   32   58 1
    60   33   34 ar
    61   33   59 1
    62   34   60 1
    63   35   61 1
    64   35   62 1
    65   35   63 1
@<TRIPOS>MOLECULE
ZINC59885403
   54    57     0     0     0
SMALL
USER_CHARGES

@<TRIPOS>ATOM
      1 C1         -0.0187    1.5258    0.0104 C.3       1 <0>        -0.1523
      2 C2          0.0021   -0.0041    0.0020 C.3       1 <0>         0.0560
      3 O1         -1.3386   -0.4987    0.0122 O.3       1 <0>        -0.3453
      4 C3         -1.4971   -1.8382    0.0065 C.2       1 <0>         0.5326
      5 O2         -0.5226   -2.5659   -0.0067 O.2       1 <0>        -0.4938
      6 C4         -2.8425   -2.4162    0.0162 C.2       1 <0>        -0.2148
      7 C5         -3.5479   -2.7136   -1.2187 C.2       1 <0>        -0.0586
      8 C6         -4.7773   -3.2421   -1.0392 C.2       1 <0>        -0.2219
      9 S1         -4.9745   -3.3353    0.7161 S.3       1 <0>         0.3051
     10 C7         -3.4952   -2.7084    1.2047 C.2       1 <0>         0.0433
     11 N1         -3.0333   -2.5236    2.4984 N.am      1 <0>        -0.6201
     12 C8         -3.8085   -2.8669    3.5462 C.2       1 <0>         0.5176
     13 O3         -4.9101   -3.3375    3.3570 O.2       1 <0>        -0.4870
     14 C9         -3.3063   -2.6660    4.9527 C.3       1 <0>        -0.1229
     15 C10        -4.3718   -3.1333    5.9463 C.3       1 <0>        -0.0902
     16 S2         -3.7674   -2.8914    7.6394 S.3       1 <0>         0.0130
     17 C11        -5.0896   -3.4690    8.6507 C.2       1 <0>         0.2681
     18 N2         -6.2338   -3.9559    8.2227 N.2       1 <0>        -0.5256
     19 H1         -4.3939   -3.2012   10.5953 H         1 <0>         0.4484
     20 C12        -6.9994   -4.2949    9.2701 C.2       1 <0>         0.2840
     21 N3         -6.3472   -4.0259   10.3784 N.2       1 <0>        -0.2905
     22 N4         -5.1031   -3.4946   10.0021 N.pl3     1 <0>        -0.4574
     23 C13        -8.3613   -4.8787    9.1904 C.ar      1 <0>        -0.0723
     24 C14        -9.0705   -5.1883   10.3543 C.ar      1 <0>        -0.0395
     25 C15       -10.3373   -5.7311   10.2263 C.ar      1 <0>        -0.1752
     26 C16       -10.8560   -5.9477    8.9626 C.ar      1 <0>         0.1147
     27 N5        -10.1625   -5.6457    7.8821 N.ar      1 <0>        -0.4835
     28 C17        -8.9559   -5.1217    7.9543 C.ar      1 <0>         0.1473
     29 C18        -5.7452   -3.6512   -2.1062 C.3       1 <0>        -0.0353
     30 C19        -5.2872   -3.0331   -3.4354 C.3       1 <0>        -0.1152
     31 C20        -3.7901   -3.2996   -3.6162 C.3       1 <0>        -0.1189
     32 C21        -2.9883   -2.4682   -2.6122 C.3       1 <0>        -0.0626
     33 H2          1.0039    1.9031    0.0027 H         1 <0>         0.0812
     34 H3         -0.5459    1.8868   -0.8726 H         1 <0>         0.0679
     35 H4         -0.5289    1.8773    0.9072 H         1 <0>         0.0665
     36 H5          0.5123   -0.3556   -0.8948 H         1 <0>         0.0692
     37 H6          0.5293   -0.3651    0.8851 H         1 <0>         0.0674
     38 H7         -2.1522   -2.1472    2.6497 H         1 <0>         0.4198
     39 H8         -2.3943   -3.2447    5.0991 H         1 <0>         0.1168
     40 H9         -3.0960   -1.6090    5.1159 H         1 <0>         0.1170
     41 H10        -5.2838   -2.5545    5.8000 H         1 <0>         0.1129
     42 H11        -4.5822   -4.1903    5.7831 H         1 <0>         0.1127
     43 H12        -8.6408   -5.0089   11.3287 H         1 <0>         0.1430
     44 H13       -10.9143   -5.9831   11.1038 H         1 <0>         0.1434
     45 H14       -11.8441   -6.3711    8.8589 H         1 <0>         0.1622
     46 H15        -8.4210   -4.8830    7.0470 H         1 <0>         0.1679
     47 H16        -5.7599   -4.7377   -2.1920 H         1 <0>         0.0840
     48 H17        -6.7423   -3.2883   -1.8565 H         1 <0>         0.0832
     49 H18        -5.8406   -3.4856   -4.2583 H         1 <0>         0.0752
     50 H19        -5.4674   -1.9582   -3.4195 H         1 <0>         0.0691
     51 H20        -3.5885   -4.3582   -3.4525 H         1 <0>         0.0680
     52 H21        -3.4938   -3.0283   -4.6294 H         1 <0>         0.0714
     53 H22        -3.0762   -1.4105   -2.8605 H         1 <0>         0.0807
     54 H23        -1.9407   -2.7677   -2.6435 H         1 <0>         0.0735
@<TRIPOS>BOND
     1    1    2 1
     2    1   33 1
     3    1   34 1
     4    1   35 1
     5    2    3 1
     6    2   36 1
     7    2   37 1
     8    3    4 1
     9    4    5 2
    10    4    6 1
    11    6   10 2
    12    6    7 1
    13    7   32 1
    14    7    8 2
    15    8    9 1
    16    8   29 1
    17    9   10 1
    18   10   11 1
    19   11   12 am
    20   11   38 1
    21   12   13 2
    22   12   14 1
    23   14   15 1
    24   14   39 1
    25   14   40 1
    26   15   41 1
    27   15   42 1
    28   15   16 1
    29   16   17 1
    30   17   18 2
    31   17   22 1
    32   18   20 1
    33   19   22 1
    34   20   23 1
    35   20   21 2
    36   21   22 1
    37   23   28 ar
    38   23   24 ar
    39   24   25 ar
    40   24   43 1
    41   25   26 ar
    42   25   44 1
    43   26   27 ar
    44   26   45 1
    45   27   28 ar
    46   28   46 1
    47   29   30 1
    48   29   47 1
    49   29   48 1
    50   30   31 1
    51   30   49 1
    52   30   50 1
    53   31   32 1
    54   31   51 1
    55   31   52 1
    56   32   53 1
    57   32   54 1
@<TRIPOS>MOLECULE
ZINC06291038
   57    59     0     0     0
SMALL
USER_CHARGES
[4-[(4-ethoxyphenyl)carbamoyl]phenyl]carbamoylmethyl cyclohex-3-ene-1-carboxylate
@<TRIPOS>ATOM
      1 C1         12.2559   -4.3851   -0.1412 C.3       1 <0>        -0.1534
      2 C2         11.1679   -3.3315    0.0756 C.3       1 <0>         0.0539
      3 O1          9.9602   -3.7562   -0.5594 O.3       1 <0>        -0.3157
      4 C3          8.8867   -2.9274   -0.4613 C.ar      1 <0>         0.1189
      5 C4          7.6831   -3.2788   -1.0548 C.ar      1 <0>        -0.1322
      6 C5          6.5923   -2.4379   -0.9551 C.ar      1 <0>        -0.0769
      7 C6          6.7006   -1.2402   -0.2607 C.ar      1 <0>         0.1072
      8 C7          7.9074   -0.8865    0.3282 C.ar      1 <0>        -0.1022
      9 C8          8.9956   -1.7311    0.2326 C.ar      1 <0>        -0.1898
     10 N1          5.5948   -0.3869   -0.1592 N.am      1 <0>        -0.6684
     11 C9          4.3529   -0.9016   -0.0634 C.2       1 <0>         0.5618
     12 O2          4.1989   -2.1040    0.0327 O.2       1 <0>        -0.5173
     13 C10         3.1801   -0.0061   -0.0752 C.ar      1 <0>        -0.1527
     14 C11         1.8916   -0.5382    0.0240 C.ar      1 <0>        -0.0330
     15 C12         0.7996    0.3001    0.0123 C.ar      1 <0>        -0.1499
     16 C13         0.9777    1.6756   -0.0982 C.ar      1 <0>         0.1776
     17 C14         2.2590    2.2086   -0.1972 C.ar      1 <0>        -0.1279
     18 C15         3.3554    1.3761   -0.1861 C.ar      1 <0>        -0.0623
     19 N2         -0.1309    2.5213   -0.1156 N.am      1 <0>        -0.6710
     20 C16        -0.0590    3.7384    0.4590 C.2       1 <0>         0.5166
     21 O3          0.9351    4.0607    1.0744 O.2       1 <0>        -0.4880
     22 C17        -1.2139    4.6987    0.3367 C.3       1 <0>         0.0481
     23 O4         -0.8948    5.9309    1.0354 O.3       1 <0>        -0.3306
     24 C18        -1.8260    6.8976    1.0223 C.2       1 <0>         0.4699
     25 O5         -2.8730    6.7201    0.4460 O.2       1 <0>        -0.5009
     26 C19        -1.5655    8.2044    1.7263 C.3       1 <0>        -0.0775
     27 H1         -1.3939    8.0212    2.7870 H         1 <0>         0.1149
     28 C20        -2.7735    9.1335    1.5523 C.3       1 <0>        -0.1052
     29 C21        -2.5569   10.3773    2.4156 C.3       1 <0>        -0.0930
     30 C22        -1.1871   10.9430    2.1793 C.2       1 <0>        -0.1545
     31 C23        -0.2201   10.2909    1.6178 C.2       1 <0>        -0.1555
     32 C24        -0.3366    8.8815    1.1157 C.3       1 <0>        -0.0819
     33 H2         12.4320   -4.5111   -1.2095 H         1 <0>         0.0667
     34 H3         13.1770   -4.0612    0.3432 H         1 <0>         0.0789
     35 H4         11.9337   -5.3338    0.2882 H         1 <0>         0.0669
     36 H5         11.4900   -2.3829   -0.3538 H         1 <0>         0.0621
     37 H6         10.9918   -3.2056    1.1439 H         1 <0>         0.0620
     38 H7          7.5992   -4.2101   -1.5951 H         1 <0>         0.1354
     39 H8          5.6552   -2.7117   -1.4169 H         1 <0>         0.1404
     40 H9          7.9936    0.0471    0.8643 H         1 <0>         0.1291
     41 H10         9.9330   -1.4582    0.6943 H         1 <0>         0.1322
     42 H11         5.7228    0.5746   -0.1578 H         1 <0>         0.4094
     43 H12         1.7527   -1.6057    0.1102 H         1 <0>         0.1443
     44 H13        -0.1964   -0.1104    0.0886 H         1 <0>         0.1375
     45 H14         2.3937    3.2768   -0.2829 H         1 <0>         0.1413
     46 H15         4.3497    1.7905   -0.2626 H         1 <0>         0.1309
     47 H16        -0.9537    2.2338   -0.5412 H         1 <0>         0.4175
     48 H17        -1.3969    4.9148   -0.7159 H         1 <0>         0.1089
     49 H18        -2.1058    4.2523    0.7763 H         1 <0>         0.1076
     50 H19        -2.8613    9.4285    0.5066 H         1 <0>         0.0747
     51 H20        -3.6806    8.6182    1.8682 H         1 <0>         0.0791
     52 H21        -2.6593   10.1056    3.4662 H         1 <0>         0.0781
     53 H22        -3.3061   11.1271    2.1616 H         1 <0>         0.0810
     54 H23        -0.9963   11.9573    2.4974 H         1 <0>         0.1080
     55 H24         0.7294   10.7926    1.5030 H         1 <0>         0.1110
     56 H25         0.5582    8.3241    1.3931 H         1 <0>         0.0893
     57 H26        -0.4327    8.8936    0.0301 H         1 <0>         0.0789
@<TRIPOS>BOND
     1    1    2 1
     2    1   33 1
     3    1   34 1
     4    1   35 1
     5    2    3 1
     6    2   36 1
     7    2   37 1
     8    3    4 1
     9    4    9 ar
    10    4    5 ar
    11    5    6 ar
    12    5   38 1
    13    6    7 ar
    14    6   39 1
    15    7    8 ar
    16    7   10 1
    17    8    9 ar
    18    8   40 1
    19    9   41 1
    20   10   11 am
    21   10   42 1
    22   11   12 2
    23   11   13 1
    24   13   18 ar
    25   13   14 ar
    26   14   15 ar
    27   14   43 1
    28   15   16 ar
    29   15   44 1
    30   16   17 ar
    31   16   19 1
    32   17   18 ar
    33   17   45 1
    34   18   46 1
    35   19   20 am
    36   19   47 1
    37   20   21 2
    38   20   22 1
    39   22   23 1
    40   22   48 1
    41   22   49 1
    42   23   24 1
    43   24   25 2
    44   24   26 1
    45   26   27 1
    46   26   32 1
    47   26   28 1
    48   28   29 1
    49   28   50 1
    50   28   51 1
    51   29   30 1
    52   29   52 1
    53   29   53 1
    54   30   31 2
    55   30   54 1
    56   31   32 1
    57   31   55 1
    58   32   56 1
    59   32   57 1
@<TRIPOS>MOLECULE
ZINC11835382
   51    53     0     0     0
SMALL
USER_CHARGES
ethyl 4-[3-(2-benzamidothiazol-4-yl)propanoylamino]benzoate
@<TRIPOS>ATOM
      1 C1         19.2010    5.3462    0.5473 C.3       1 <0>        -0.1538
      2 C2         18.6356    5.2882   -0.8733 C.3       1 <0>         0.0630
      3 O1         17.3356    4.6420   -0.8507 O.3       1 <0>        -0.3544
      4 C3         16.6973    4.5103   -2.0302 C.2       1 <0>         0.5120
      5 O2         17.2130    4.9243   -3.0495 O.2       1 <0>        -0.5086
      6 C4         15.3730    3.8640   -2.0838 C.ar      1 <0>        -0.1479
      7 C5         14.7094    3.7265   -3.3066 C.ar      1 <0>        -0.0307
      8 C6         13.4735    3.1222   -3.3529 C.ar      1 <0>        -0.1605
      9 C7         12.8847    2.6484   -2.1846 C.ar      1 <0>         0.1869
     10 C8         13.5399    2.7882   -0.9650 C.ar      1 <0>        -0.1378
     11 C9         14.7784    3.3867   -0.9119 C.ar      1 <0>        -0.0378
     12 N1         11.6327    2.0373   -2.2352 N.am      1 <0>        -0.6766
     13 C10        11.3376    1.0340   -1.3851 C.2       1 <0>         0.5152
     14 O3         12.1911    0.5984   -0.6416 O.2       1 <0>        -0.5115
     15 C11         9.9472    0.4534   -1.3582 C.3       1 <0>        -0.1303
     16 C12         9.8804   -0.6622   -0.3133 C.3       1 <0>        -0.0286
     17 C13         8.4900   -1.2428   -0.2865 C.2       1 <0>         0.0801
     18 C14         8.2903   -2.5725   -0.4582 C.2       1 <0>        -0.2569
     19 S1          6.5101   -2.6600   -0.3308 S.3       1 <0>         0.1634
     20 C15         6.2188   -0.9681   -0.0696 C.2       1 <0>         0.2823
     21 N2          7.4390   -0.4683   -0.1008 N.2       1 <0>        -0.5427
     22 N3          5.0105   -0.3094    0.1180 N.am      1 <0>        -0.6075
     23 C16         3.8559   -1.0046    0.1112 C.2       1 <0>         0.5637
     24 O4          3.8720   -2.2081   -0.0592 O.2       1 <0>        -0.4932
     25 C17         2.5701   -0.3037    0.3108 C.ar      1 <0>        -0.1386
     26 C18         1.3723   -1.0208    0.3043 C.ar      1 <0>        -0.0507
     27 C19         0.1756   -0.3603    0.4908 C.ar      1 <0>        -0.1253
     28 C20         0.1608    1.0098    0.6836 C.ar      1 <0>        -0.0833
     29 C21         1.3443    1.7265    0.6912 C.ar      1 <0>        -0.1248
     30 C22         2.5480    1.0783    0.5063 C.ar      1 <0>        -0.0829
     31 H1         20.1770    5.8314    0.5304 H         1 <0>         0.0815
     32 H2         18.5238    5.9144    1.1849 H         1 <0>         0.0674
     33 H3         19.3051    4.3342    0.9385 H         1 <0>         0.0677
     34 H4         19.3129    4.7200   -1.5109 H         1 <0>         0.0715
     35 H5         18.5316    6.3003   -1.2645 H         1 <0>         0.0714
     36 H6         15.1660    4.0938   -4.2138 H         1 <0>         0.1426
     37 H7         12.9604    3.0154   -4.2972 H         1 <0>         0.1372
     38 H8         13.0780    2.4232   -0.0596 H         1 <0>         0.1436
     39 H9         15.2882    3.4912    0.0344 H         1 <0>         0.1424
     40 H10        10.9739    2.3342   -2.8823 H         1 <0>         0.4154
     41 H11         9.7043    0.0467   -2.3399 H         1 <0>         0.0973
     42 H12         9.2320    1.2349   -1.1016 H         1 <0>         0.1083
     43 H13        10.1233   -0.2555    0.6684 H         1 <0>         0.0888
     44 H14        10.5956   -1.4437   -0.5700 H         1 <0>         0.0906
     45 H15         9.0088   -3.3612   -0.6257 H         1 <0>         0.1976
     46 H16         4.9976    0.6509    0.2540 H         1 <0>         0.4246
     47 H17         1.3825   -2.0901    0.1533 H         1 <0>         0.1408
     48 H18        -0.7517   -0.9138    0.4860 H         1 <0>         0.1355
     49 H19        -0.7792    1.5227    0.8243 H         1 <0>         0.1323
     50 H20         1.3257    2.7958    0.8418 H         1 <0>         0.1341
     51 H21         3.4710    1.6390    0.5121 H         1 <0>         0.1274
@<TRIPOS>BOND
     1    1    2 1
     2    1   31 1
     3    1   32 1
     4    1   33 1
     5    2    3 1
     6    2   34 1
     7    2   35 1
     8    3    4 1
     9    4    5 2
    10    4    6 1
    11    6   11 ar
    12    6    7 ar
    13    7    8 ar
    14    7   36 1
    15    8    9 ar
    16    8   37 1
    17    9   10 ar
    18    9   12 1
    19   10   11 ar
    20   10   38 1
    21   11   39 1
    22   12   13 am
    23   12   40 1
    24   13   14 2
    25   13   15 1
    26   15   16 1
    27   15   41 1
    28   15   42 1
    29   16   17 1
    30   16   43 1
    31   16   44 1
    32   17   21 1
    33   17   18 2
    34   18   19 1
    35   18   45 1
    36   19   20 1
    37   20   21 2
    38   20   22 1
    39   22   23 am
    40   22   46 1
    41   23   24 2
    42   23   25 1
    43   25   30 ar
    44   25   26 ar
    45   26   27 ar
    46   26   47 1
    47   27   28 ar
    48   27   48 1
    49   28   29 ar
    50   28   49 1
    51   29   30 ar
    52   29   50 1
    53   30   51 1
@<TRIPOS>MOLECULE
ZINC21605472
   65    66     0     0     0
SMALL
USER_CHARGES
(2R)-2-[[4-amino-5-[(2-isopropyl-5-methyl-phenoxy)methyl]-1,2,4-triazol-3-yl]sulfanyl]-N,N-diisopropyl-propanamide
@<TRIPOS>ATOM
      1 C1          8.0907    8.5083    2.5712 C.3       1 <0>        -0.1201
      2 C2          7.5483    7.8243    1.3428 C.ar      1 <0>        -0.0493
      3 C3          8.1393    8.0439    0.1120 C.ar      1 <0>        -0.1514
      4 C4          7.6437    7.4183   -1.0168 C.ar      1 <0>        -0.0739
      5 C5          6.5604    6.5666   -0.9167 C.ar      1 <0>        -0.1059
      6 C6          5.9625    6.3488    0.3159 C.ar      1 <0>         0.1328
      7 C7          6.4615    6.9782    1.4473 C.ar      1 <0>        -0.2081
      8 O1          4.8933    5.5159    0.4161 O.3       1 <0>        -0.3056
      9 C8          4.3323    5.3342    1.7177 C.3       1 <0>         0.1551
     10 C9          3.1647    4.3851    1.6334 C.2       1 <0>         0.1503
     11 N1          3.2131    3.0887    1.7553 N.2       1 <0>        -0.2436
     12 N2          2.0354    2.5895    1.6296 N.2       1 <0>        -0.2773
     13 C10         1.1645    3.5490    1.4189 C.2       1 <0>         0.1250
     14 N3          1.8590    4.7244    1.4088 N.pl3     1 <0>        -0.2001
     15 N4          1.3541    5.9792    1.2175 N.3       1 <0>        -0.7617
     16 S1         -0.5713    3.3557    1.1856 S.3       1 <0>         0.0908
     17 C11        -0.7088    1.5564    1.3261 C.3       1 <0>        -0.1197
     18 H1         -0.3287    1.0595    2.2309 H         1 <0>         0.1299
     19 C12         0.0401    0.8956    0.1670 C.3       1 <0>        -0.1517
     20 C13        -2.1615    1.1583    1.2775 C.2       1 <0>         0.5354
     21 O2         -2.9844    1.9218    0.8184 O.2       1 <0>        -0.5197
     22 N5         -2.5462   -0.0461    1.7443 N.am      1 <0>        -0.5993
     23 C14        -1.5724   -0.9228    2.3995 C.3       1 <0>         0.1177
     24 C15        -2.0255   -1.2069    3.8330 C.3       1 <0>        -0.1660
     25 C16        -1.4703   -2.2393    1.6266 C.3       1 <0>        -0.1660
     26 C17        -3.9381   -0.4786    1.5964 C.3       1 <0>         0.1454
     27 C18        -4.8537    0.4792    2.3614 C.3       1 <0>        -0.1717
     28 C19        -4.3189   -0.4738    0.1146 C.3       1 <0>        -0.1716
     29 C20         6.0249    5.8797   -2.1465 C.3       1 <0>        -0.0524
     30 C21         5.5816    6.9312   -3.1657 C.3       1 <0>        -0.1431
     31 C22         7.1202    5.0050   -2.7598 C.3       1 <0>        -0.1441
     32 H2          8.9494    9.1366    2.2920 H         1 <0>         0.0686
     33 H3          8.4126    7.7506    3.3008 H         1 <0>         0.0721
     34 H4          7.3060    9.1369    3.0174 H         1 <0>         0.0709
     35 H5          8.9892    8.7055    0.0325 H         1 <0>         0.1241
     36 H6          8.1068    7.5917   -1.9769 H         1 <0>         0.1291
     37 H7          6.0007    6.8065    2.4088 H         1 <0>         0.1268
     38 H8          5.0958    4.9174    2.3911 H         1 <0>         0.1046
     39 H9          3.9893    6.3038    2.1078 H         1 <0>         0.0801
     40 H10         0.2766    6.1181    1.0453 H         1 <0>         0.4511
     41 H11         2.0250    6.8507    1.2357 H         1 <0>         0.4491
     42 H12        -0.0435   -0.1979    0.2524 H         1 <0>         0.0731
     43 H13         1.1004    1.1862    0.2024 H         1 <0>         0.0926
     44 H14        -0.3983    1.2235   -0.7871 H         1 <0>         0.0695
     45 H15        -0.6071   -0.3953    2.3956 H         1 <0>         0.0989
     46 H16        -1.2943   -1.8652    4.3250 H         1 <0>         0.0735
     47 H17        -3.0090   -1.6993    3.8159 H         1 <0>         0.0640
     48 H18        -2.0989   -0.2604    4.3887 H         1 <0>         0.0614
     49 H19        -0.7391   -2.8975    2.1186 H         1 <0>         0.0736
     50 H20        -1.1446   -2.0351    0.5960 H         1 <0>         0.0630
     51 H21        -2.4538   -2.7317    1.6096 H         1 <0>         0.0638
     52 H22        -4.0077   -1.4951    2.0109 H         1 <0>         0.0885
     53 H23        -5.8988    0.1545    2.2504 H         1 <0>         0.0647
     54 H24        -4.7407    1.4959    1.9570 H         1 <0>         0.0805
     55 H25        -4.5799    0.4758    3.4268 H         1 <0>         0.0540
     56 H26        -5.3640   -0.7985    0.0036 H         1 <0>         0.0662
     57 H27        -3.6606   -1.1624   -0.4354 H         1 <0>         0.0547
     58 H28        -4.2059    0.5429   -0.2897 H         1 <0>         0.0791
     59 H29         5.1670    5.2557   -1.8556 H         1 <0>         0.0835
     60 H30         5.1907    6.4298   -4.0634 H         1 <0>         0.0582
     61 H31         6.4412    7.5596   -3.4417 H         1 <0>         0.0565
     62 H32         4.7942    7.5601   -2.7248 H         1 <0>         0.0533
     63 H33         6.7293    4.5036   -3.6575 H         1 <0>         0.0583
     64 H34         7.4390    4.2491   -2.0270 H         1 <0>         0.0562
     65 H35         7.9797    5.6335   -3.0358 H         1 <0>         0.0561
@<TRIPOS>BOND
     1    1    2 1
     2    1   32 1
     3    1   33 1
     4    1   34 1
     5    2    7 ar
     6    2    3 ar
     7    3    4 ar
     8    3   35 1
     9    4    5 ar
    10    4   36 1
    11    5    6 ar
    12    5   29 1
    13    6    7 ar
    14    6    8 1
    15    7   37 1
    16    8    9 1
    17    9   10 1
    18    9   38 1
    19    9   39 1
    20   10   14 1
    21   10   11 2
    22   11   12 1
    23   12   13 2
    24   13   14 1
    25   13   16 1
    26   14   15 1
    27   15   40 1
    28   15   41 1
    29   16   17 1
    30   17   18 1
    31   17   19 1
    32   17   20 1
    33   19   42 1
    34   19   43 1
    35   19   44 1
    36   20   21 2
    37   20   22 am
    38   22   23 1
    39   22   26 1
    40   23   24 1
    41   23   25 1
    42   23   45 1
    43   24   46 1
    44   24   47 1
    45   24   48 1
    46   25   49 1
    47   25   50 1
    48   25   51 1
    49   26   27 1
    50   26   28 1
    51   26   52 1
    52   27   53 1
    53   27   54 1
    54   27   55 1
    55   28   56 1
    56   28   57 1
    57   28   58 1
    58   29   30 1
    59   29   31 1
    60   29   59 1
    61   30   60 1
    62   30   61 1
    63   30   62 1
    64   31   63 1
    65   31   64 1
    66   31   65 1
@<TRIPOS>MOLECULE
ZINC32933243
   48    50     0     0     0
SMALL
USER_CHARGES
2-(2-methylphenoxy)ethyl 4-[(2-fluorophenyl)sulfamoyl]-1H-pyrrole-2-carboxylate
@<TRIPOS>ATOM
      1 C1         -1.3745    1.4523    9.0516 C.3       1 <0>        -0.1053
      2 C2         -0.5974    1.9732   10.2330 C.ar      1 <0>        -0.1153
      3 C3         -1.2552    2.6151   11.2646 C.ar      1 <0>        -0.0830
      4 C4         -0.5429    3.0928   12.3489 C.ar      1 <0>        -0.1520
      5 C5          0.8292    2.9292   12.4042 C.ar      1 <0>        -0.0858
      6 C6          1.4908    2.2836   11.3779 C.ar      1 <0>        -0.2062
      7 C7          0.7789    1.8083   10.2859 C.ar      1 <0>         0.1251
      8 O1          1.4282    1.1772    9.2724 O.3       1 <0>        -0.3065
      9 C8          2.8457    1.0432    9.3941 C.3       1 <0>         0.0573
     10 C9          3.3960    0.3126    8.1677 C.3       1 <0>         0.0711
     11 O2          3.1875    1.1281    6.9845 O.3       1 <0>        -0.3565
     12 C10         3.6191    0.6246    5.8099 C.2       1 <0>         0.5400
     13 O3          4.1552   -0.4666    5.7762 O.2       1 <0>        -0.4901
     14 C11         3.4422    1.3922    4.5747 C.2       1 <0>        -0.0539
     15 C12         3.8323    1.0037    3.3094 C.2       1 <0>        -0.0027
     16 C13         3.4693    2.0336    2.4364 C.2       1 <0>        -0.7658
     17 C14         2.8830    3.0111    3.1686 C.2       1 <0>         0.1764
     18 N1          2.8554    2.6329    4.4639 N.pl3     1 <0>        -0.5222
     19 H1          2.4628    3.1376    5.3590 H         1 <0>         0.4647
     20 S1          3.7341    2.0590    0.6946 S.o2      1 <0>         2.7236
     21 O4          4.8217    1.1817    0.4363 O.2       1 <0>        -0.9459
     22 O5          3.7488    3.4257    0.3059 O.2       1 <0>        -0.9523
     23 N2          2.3999    1.3799   -0.0134 N.pl3     1 <0>        -1.0669
     24 C15         1.1397    1.9568    0.1726 C.ar      1 <0>         0.1356
     25 C16         1.0117    3.3365    0.2579 C.ar      1 <0>        -0.1558
     26 C17        -0.2347    3.9036    0.4413 C.ar      1 <0>        -0.0986
     27 C18        -1.3550    3.0992    0.5400 C.ar      1 <0>        -0.1089
     28 C19        -1.2335    1.7246    0.4504 C.ar      1 <0>        -0.1305
     29 C20         0.0114    1.1497    0.2722 C.ar      1 <0>         0.0774
     30 F1          0.1309   -0.1935    0.1893 F         1 <0>        -0.1338
     31 H2         -2.4430    1.6752    9.1885 H         1 <0>         0.0651
     32 H3         -1.2342    0.3642    8.9714 H         1 <0>         0.0685
     33 H4         -1.0135    1.9373    8.1326 H         1 <0>         0.0676
     34 H5         -2.3267    2.7435   11.2241 H         1 <0>         0.1297
     35 H6         -1.0589    3.5943   13.1543 H         1 <0>         0.1250
     36 H7          1.3833    3.3030   13.2525 H         1 <0>         0.1252
     37 H8          2.5618    2.1521   11.4237 H         1 <0>         0.1271
     38 H9          3.3038    2.0409    9.4627 H         1 <0>         0.0772
     39 H10         3.0831    0.4676   10.3009 H         1 <0>         0.0914
     40 H11         4.4724    0.1299    8.3021 H         1 <0>         0.1000
     41 H12         2.8733   -0.6478    8.0479 H         1 <0>         0.0887
     42 H13         4.3245    0.0798    3.0439 H         1 <0>         0.1670
     43 H14         2.4974    3.9415    2.7785 H         1 <0>         0.1929
     44 H15         2.5050    0.4750   -0.6300 H         1 <0>         0.4589
     45 H16         1.8858    3.9661    0.1807 H         1 <0>         0.1699
     46 H17        -0.3342    4.9769    0.5073 H         1 <0>         0.1375
     47 H18        -2.3279    3.5458    0.6829 H         1 <0>         0.1355
     48 H19        -2.1111    1.0994    0.5238 H         1 <0>         0.1396
@<TRIPOS>BOND
     1    1    2 1
     2    1   31 1
     3    1   32 1
     4    1   33 1
     5    2    7 ar
     6    2    3 ar
     7    3    4 ar
     8    3   34 1
     9    4    5 ar
    10    4   35 1
    11    5    6 ar
    12    5   36 1
    13    6    7 ar
    14    6   37 1
    15    7    8 1
    16    8    9 1
    17    9   10 1
    18    9   38 1
    19    9   39 1
    20   10   11 1
    21   10   40 1
    22   10   41 1
    23   11   12 1
    24   12   13 2
    25   12   14 1
    26   14   18 1
    27   14   15 2
    28   15   16 1
    29   15   42 1
    30   16   17 2
    31   16   20 1
    32   17   18 1
    33   17   43 1
    34   18   19 1
    35   20   21 2
    36   20   22 2
    37   20   23 1
    38   23   24 1
    39   23   44 1
    40   24   29 ar
    41   24   25 ar
    42   25   26 ar
    43   25   45 1
    44   26   27 ar
    45   26   46 1
    46   27   28 ar
    47   27   47 1
    48   28   29 ar
    49   28   48 1
    50   29   30 1
@<TRIPOS>MOLECULE
ZINC32973310
   60    62     0     0     0
SMALL
NO_CHARGES

@<TRIPOS>ATOM
      1 C1         -7.3431   -8.0709    3.0186 C.3       1 <0>        -0.1698
      2 C2         -5.9856   -7.8040    2.3651 C.3       1 <0>         0.1267
      3 N1         -5.5135   -6.4707    2.7469 N.pl3     1 <0>        -0.3668
      4 C3         -5.7647   -5.3206    2.0872 C.2       1 <0>         0.0959
      5 C4         -5.1534   -4.3177    2.7593 C.2       1 <0>        -0.2420
      6 C5         -4.5064   -4.8741    3.8675 C.2       1 <0>         0.0831
      7 N2         -4.7267   -6.1638    3.8645 N.2       1 <0>        -0.2934
      8 C6         -3.7007   -4.1177    4.8921 C.3       1 <0>        -0.0759
      9 C7         -5.1665   -2.8593    2.3801 C.3       1 <0>        -0.0412
     10 C8         -6.3610   -2.1706    3.0433 C.3       1 <0>         0.0942
     11 N3         -6.3738   -0.7528    2.6747 N.pl3     1 <0>        -0.7111
     12 C9         -7.4088    0.0446    3.0668 C.2       1 <0>         0.6948
     13 N4         -8.3732   -0.4482    3.8972 N.pl3     1 <0>        -0.6401
     14 C10        -9.4940    0.3317    4.2094 C.ar      1 <0>         0.1175
     15 C11       -10.0358    1.1826    3.2551 C.ar      1 <0>        -0.0590
     16 C12       -11.1410    1.9508    3.5634 C.ar      1 <0>        -0.1357
     17 C13       -11.7098    1.8730    4.8262 C.ar      1 <0>         0.1187
     18 C14       -11.1688    1.0236    5.7803 C.ar      1 <0>        -0.1916
     19 C15       -10.0673    0.2502    5.4714 C.ar      1 <0>        -0.1002
     20 O1        -12.7978    2.6301    5.1292 O.3       1 <0>        -0.3168
     21 C16       -13.3318    2.4999    6.4483 C.3       1 <0>         0.0265
     22 N5         -7.4779    1.2972    2.6415 N.2       1 <0>        -0.6798
     23 C17        -6.4781    1.8139    1.9152 C.2       1 <0>         0.5506
     24 O2         -5.5559    1.1036    1.5561 O.2       1 <0>        -0.5722
     25 C18        -6.4938    3.2489    1.5488 C.ar      1 <0>        -0.0852
     26 C19        -7.5458    4.0659    1.9636 C.ar      1 <0>        -0.0670
     27 C20        -7.5558    5.4021    1.6203 C.ar      1 <0>        -0.1074
     28 C21        -6.5257    5.9336    0.8653 C.ar      1 <0>        -0.1283
     29 C22        -5.4779    5.1283    0.4494 C.ar      1 <0>         0.0839
     30 C23        -5.4543    3.7895    0.7928 C.ar      1 <0>        -0.1033
     31 F1         -4.4750    5.6533   -0.2881 F         1 <0>        -0.1377
     32 C24        -6.5796   -5.1785    0.8276 C.3       1 <0>        -0.0963
     33 H1         -7.6943   -9.0628    2.7346 H         1 <0>         0.0788
     34 H2         -7.2411   -8.0181    4.1026 H         1 <0>         0.0655
     35 H3         -8.0608   -7.3217    2.6843 H         1 <0>         0.0604
     36 H4         -5.2679   -8.5531    2.6994 H         1 <0>         0.0963
     37 H5         -6.0876   -7.8567    1.2812 H         1 <0>         0.0931
     38 H6         -4.3540   -3.7968    5.7034 H         1 <0>         0.0761
     39 H7         -2.9189   -4.7649    5.2895 H         1 <0>         0.0739
     40 H8         -3.2464   -3.2442    4.4244 H         1 <0>         0.0776
     41 H9         -4.2428   -2.3881    2.7163 H         1 <0>         0.0795
     42 H10        -5.2486   -2.7661    1.2972 H         1 <0>         0.0769
     43 H11        -7.2846   -2.6418    2.7071 H         1 <0>         0.0687
     44 H12        -6.2788   -2.2638    4.1262 H         1 <0>         0.0669
     45 H13        -5.6462   -0.3810    2.1518 H         1 <0>         0.4349
     46 H14        -9.5926    1.2437    2.2721 H         1 <0>         0.1491
     47 H15       -11.5625    2.6126    2.8212 H         1 <0>         0.1354
     48 H16       -11.6117    0.9641    6.7635 H         1 <0>         0.1315
     49 H17        -9.6489   -0.4144    6.2129 H         1 <0>         0.1263
     50 H18       -13.6376    1.4672    6.6162 H         1 <0>         0.0552
     51 H19       -12.5703    2.7765    7.1775 H         1 <0>         0.0559
     52 H20       -14.1949    3.1567    6.5574 H         1 <0>         0.1004
     53 H21        -8.2824   -1.3385    4.2713 H         1 <0>         0.4180
     54 H22        -8.3514    3.6529    2.5525 H         1 <0>         0.1477
     55 H23        -8.3702    6.0347    1.9414 H         1 <0>         0.1387
     56 H24        -6.5384    6.9801    0.5989 H         1 <0>         0.1382
     57 H25        -4.6351    3.1628    0.4726 H         1 <0>         0.1444
     58 H26        -7.6238   -5.0055    1.0879 H         1 <0>         0.0808
     59 H27        -6.2057   -4.3358    0.2460 H         1 <0>         0.0867
     60 H28        -6.4988   -6.0915    0.2376 H         1 <0>         0.0720
@<TRIPOS>BOND
     1    1    2 1
     2    1   33 1
     3    1   34 1
     4    1   35 1
     5    2    3 1
     6    2   36 1
     7    2   37 1
     8    3    7 1
     9    3    4 1
    10    4    5 2
    11    4   32 1
    12    5    6 1
    13    5    9 1
    14    6    7 2
    15    6    8 1
    16    8   38 1
    17    8   39 1
    18    8   40 1
    19    9   10 1
    20    9   41 1
    21    9   42 1
    22   10   43 1
    23   10   44 1
    24   10   11 1
    25   11   12 1
    26   11   45 1
    27   12   13 1
    28   12   22 2
    29   13   14 1
    30   13   53 1
    31   14   19 ar
    32   14   15 ar
    33   15   16 ar
    34   15   46 1
    35   16   17 ar
    36   16   47 1
    37   17   18 ar
    38   17   20 1
    39   18   19 ar
    40   18   48 1
    41   19   49 1
    42   20   21 1
    43   21   50 1
    44   21   51 1
    45   21   52 1
    46   22   23 1
    47   23   24 2
    48   23   25 1
    49   25   30 ar
    50   25   26 ar
    51   26   27 ar
    52   26   54 1
    53   27   28 ar
    54   27   55 1
    55   28   29 ar
    56   28   56 1
    57   29   30 ar
    58   29   31 1
    59   30   57 1
    60   32   58 1
    61   32   59 1
    62   32   60 1
@<TRIPOS>MOLECULE
ZINC06155424
   53    54     0     0     0
SMALL
USER_CHARGES
3-chloro-N-[1-[(3-ethoxy-4-hydroxy-phenyl)methyleneaminocarbamoyl]-2-methyl-propyl]-benzamide
@<TRIPOS>ATOM
      1 C1          2.7762    1.0316    1.1155 C.3       1 <0>        -0.1532
      2 C2          2.3341   -0.4212    0.9290 C.3       1 <0>         0.0509
      3 O1          2.5872   -0.8270   -0.4176 O.3       1 <0>        -0.3045
      4 C3          2.2494   -2.1011   -0.7524 C.ar      1 <0>         0.1030
      5 C4          1.6882   -2.9384    0.1934 C.ar      1 <0>        -0.1673
      6 C5          1.3419   -4.2467   -0.1542 C.ar      1 <0>        -0.0279
      7 C6          1.5645   -4.7021   -1.4562 C.ar      1 <0>        -0.0965
      8 C7          2.1247   -3.8609   -2.3943 C.ar      1 <0>        -0.1112
      9 C8          2.4636   -2.5603   -2.0502 C.ar      1 <0>         0.0944
     10 O2          3.0104   -1.7334   -2.9803 O.3       1 <0>        -0.4853
     11 C9          0.7426   -5.1442    0.8502 C.2       1 <0>         0.1143
     12 N1          0.4215   -6.3591    0.5256 N.2       1 <0>        -0.2230
     13 N2         -0.1480   -7.2119    1.4801 N.am      1 <0>        -0.5790
     14 C10        -0.4814   -8.4735    1.1430 C.2       1 <0>         0.5347
     15 O3         -0.3741   -8.8424   -0.0077 O.2       1 <0>        -0.4929
     16 C11        -0.9875   -9.4260    2.1955 C.3       1 <0>         0.1414
     17 H1         -0.5314   -9.1828    3.1551 H         1 <0>         0.1152
     18 C12        -2.5083   -9.3012    2.3074 C.3       1 <0>        -0.1005
     19 C13        -3.0112  -10.1953    3.4424 C.3       1 <0>        -0.1388
     20 C14        -2.8804   -7.8464    2.6011 C.3       1 <0>        -0.1592
     21 N3         -0.6363  -10.7983    1.8217 N.am      1 <0>        -0.7113
     22 C15        -0.5146  -11.7455    2.7727 C.2       1 <0>         0.5682
     23 O4         -0.6962  -11.4612    3.9405 O.2       1 <0>        -0.5211
     24 C16        -0.1602  -13.1305    2.3955 C.ar      1 <0>        -0.1251
     25 C17        -0.0334  -14.1139    3.3781 C.ar      1 <0>        -0.0531
     26 C18         0.2970  -15.4044    3.0202 C.ar      1 <0>        -0.1128
     27 C19         0.5023  -15.7260    1.6902 C.ar      1 <0>        -0.0817
     28 C20         0.3778  -14.7560    0.7102 C.ar      1 <0>        -0.0429
     29 C21         0.0432  -13.4613    1.0552 C.ar      1 <0>        -0.0774
     30 Cl1         0.6363  -15.1694   -0.9559 Cl        1 <0>        -0.0576
     31 H2          3.8422    1.1170    0.9046 H         1 <0>         0.0671
     32 H3          2.2182    1.6717    0.4322 H         1 <0>         0.0679
     33 H4          2.5832    1.3411    2.1427 H         1 <0>         0.0797
     34 H5          2.8922   -1.0614    1.6123 H         1 <0>         0.0629
     35 H6          1.2682   -0.5066    1.1399 H         1 <0>         0.0633
     36 H7          1.5182   -2.5824    1.1988 H         1 <0>         0.1380
     37 H8          1.2976   -5.7127   -1.7280 H         1 <0>         0.1422
     38 H9          2.2967   -4.2142   -3.4003 H         1 <0>         0.1422
     39 H10         3.9760   -1.7689   -3.0190 H         1 <0>         0.3904
     40 H11         0.5708   -4.7907    1.8561 H         1 <0>         0.1235
     41 H12        -0.3023   -6.8944    2.3836 H         1 <0>         0.3898
     42 H13        -2.9683   -9.6116    1.3692 H         1 <0>         0.0835
     43 H14        -2.5512   -9.8849    4.3806 H         1 <0>         0.0660
     44 H15        -4.0947  -10.1064    3.5222 H         1 <0>         0.0564
     45 H16        -2.7462  -11.2317    3.2332 H         1 <0>         0.0588
     46 H17        -2.4767   -7.2032    1.8192 H         1 <0>         0.0559
     47 H18        -3.9655   -7.7475    2.6288 H         1 <0>         0.0712
     48 H19        -2.4640   -7.5523    3.5645 H         1 <0>         0.0629
     49 H20        -0.4914  -11.0251    0.8898 H         1 <0>         0.4115
     50 H21        -0.1940  -13.8648    4.4167 H         1 <0>         0.1452
     51 H22         0.3953  -16.1658    3.7799 H         1 <0>         0.1430
     52 H23         0.7605  -16.7380    1.4154 H         1 <0>         0.1409
     53 H24        -0.0574  -12.7060    0.2899 H         1 <0>         0.1378
@<TRIPOS>BOND
     1    1    2 1
     2    1   31 1
     3    1   32 1
     4    1   33 1
     5    2    3 1
     6    2   34 1
     7    2   35 1
     8    3    4 1
     9    4    9 ar
    10    4    5 ar
    11    5    6 ar
    12    5   36 1
    13    6    7 ar
    14    6   11 1
    15    7    8 ar
    16    7   37 1
    17    8    9 ar
    18    8   38 1
    19    9   10 1
    20   10   39 1
    21   11   12 2
    22   11   40 1
    23   12   13 1
    24   13   14 am
    25   13   41 1
    26   14   15 2
    27   14   16 1
    28   16   17 1
    29   16   18 1
    30   16   21 1
    31   18   19 1
    32   18   20 1
    33   18   42 1
    34   19   43 1
    35   19   44 1
    36   19   45 1
    37   20   46 1
    38   20   47 1
    39   20   48 1
    40   21   22 am
    41   21   49 1
    42   22   23 2
    43   22   24 1
    44   24   29 ar
    45   24   25 ar
    46   25   26 ar
    47   25   50 1
    48   26   27 ar
    49   26   51 1
    50   27   28 ar
    51   27   52 1
    52   28   29 ar
    53   28   30 1
    54   29   53 1
@<TRIPOS>MOLECULE
ZINC14158620
   56    57     0     0     0
SMALL
USER_CHARGES
(1E)-3-(2,4-dimethylphenyl)-1-[[(4,6-dimethylpyrimidin-2-yl)amino]-(3-methoxypropylamino)methylene]thiourea
@<TRIPOS>ATOM
      1 C1          9.3464    4.2056   -1.3599 C.3       1 <0>        -0.1165
      2 C2          8.0122    3.5091   -1.2831 C.ar      1 <0>        -0.0712
      3 C3          6.9791    4.0751   -0.5585 C.ar      1 <0>        -0.1231
      4 C4          5.7555    3.4392   -0.4857 C.ar      1 <0>        -0.0586
      5 C5          5.5629    2.2297   -1.1413 C.ar      1 <0>         0.0950
      6 C6          6.6040    1.6615   -1.8637 C.ar      1 <0>        -0.0802
      7 C7          7.8239    2.3054   -1.9369 C.ar      1 <0>        -0.1233
      8 C8          6.4015    0.3465   -2.5714 C.3       1 <0>        -0.1186
      9 N1          4.3252    1.5829   -1.0693 N.pl3     1 <0>        -0.5935
     10 C9          3.6587    1.5318    0.1010 C.2       1 <0>         0.5508
     11 S1          4.2607    2.3711    1.4663 S.2       1 <0>        -0.6497
     12 N2          2.5243    0.8235    0.1960 N.2       1 <0>        -0.5773
     13 C10         1.3800    1.4381    0.4413 C.2       1 <0>         0.7062
     14 N3          1.3553    2.7924    0.6110 N.pl3     1 <0>        -0.7218
     15 C11         0.1109    3.4590    1.0028 C.3       1 <0>         0.1038
     16 C12         0.3249    4.9739    1.0122 C.3       1 <0>        -0.1305
     17 C13        -0.9357    5.6638    1.5374 C.3       1 <0>         0.0651
     18 O1         -0.7790    7.0808    1.4397 O.3       1 <0>        -0.3904
     19 C14        -1.9067    7.8239    1.9068 C.3       1 <0>         0.0312
     20 N4          0.2197    0.7165    0.5252 N.pl3     1 <0>        -0.6066
     21 C15         0.2237   -0.6408    0.2333 C.ar      1 <0>         0.5513
     22 N5          1.3749   -1.2435   -0.0221 N.ar      1 <0>        -0.4899
     23 C16         1.4148   -2.5364   -0.2983 C.ar      1 <0>         0.2072
     24 C17         0.2315   -3.2577   -0.3295 C.ar      1 <0>        -0.2570
     25 C18        -0.9559   -2.5941   -0.0629 C.ar      1 <0>         0.2097
     26 N6         -0.9243   -1.3006    0.2116 N.ar      1 <0>        -0.5533
     27 C19        -2.2666   -3.3374   -0.0849 C.3       1 <0>        -0.1073
     28 C20         2.7299   -3.2158   -0.5812 C.3       1 <0>        -0.1054
     29 H1          9.9800    3.8687   -0.5394 H         1 <0>         0.0721
     30 H2          9.8257    3.9690   -2.3099 H         1 <0>         0.0660
     31 H3          9.1986    5.2830   -1.2860 H         1 <0>         0.0677
     32 H4          7.1296    5.0152   -0.0487 H         1 <0>         0.1264
     33 H5          4.9492    3.8815    0.0806 H         1 <0>         0.1512
     34 H6          8.6327    1.8661   -2.5019 H         1 <0>         0.1252
     35 H7          6.0419    0.5304   -3.5838 H         1 <0>         0.0713
     36 H8          7.3479   -0.1925   -2.6143 H         1 <0>         0.0738
     37 H9          5.6682   -0.2494   -2.0280 H         1 <0>         0.0631
     38 H10         3.9463    1.1711   -1.8616 H         1 <0>         0.4083
     39 H11         2.1616    3.3134    0.4722 H         1 <0>         0.4277
     40 H12        -0.6756    3.2075    0.2913 H         1 <0>         0.0752
     41 H13        -0.1809    3.1271    1.9992 H         1 <0>         0.0786
     42 H14         1.1684    5.2177    1.6581 H         1 <0>         0.0875
     43 H15         0.5320    5.3179   -0.0012 H         1 <0>         0.0824
     44 H16        -1.7949    5.3515    0.9438 H         1 <0>         0.0532
     45 H17        -1.0940    5.3868    2.5796 H         1 <0>         0.0554
     46 H18        -2.7860    7.5564    1.3209 H         1 <0>         0.0428
     47 H19        -2.0852    7.5917    2.9567 H         1 <0>         0.0436
     48 H20        -1.7090    8.8904    1.7991 H         1 <0>         0.0888
     49 H21        -0.6045    1.1527    0.7924 H         1 <0>         0.4357
     50 H22         0.2346   -4.3135   -0.5569 H         1 <0>         0.1493
     51 H23        -2.6876   -3.3019   -1.0898 H         1 <0>         0.0879
     52 H24        -2.1006   -4.3755    0.2030 H         1 <0>         0.0848
     53 H25        -2.9599   -2.8724    0.6160 H         1 <0>         0.0838
     54 H26         2.9851   -3.0897   -1.6334 H         1 <0>         0.0853
     55 H27         3.5092   -2.7709    0.0376 H         1 <0>         0.0848
     56 H28         2.6466   -4.2783   -0.3524 H         1 <0>         0.0818
@<TRIPOS>BOND
     1    1    2 1
     2    1   29 1
     3    1   30 1
     4    1   31 1
     5    2    7 ar
     6    2    3 ar
     7    3    4 ar
     8    3   32 1
     9    4    5 ar
    10    4   33 1
    11    5    6 ar
    12    5    9 1
    13    6    7 ar
    14    6    8 1
    15    7   34 1
    16    8   35 1
    17    8   36 1
    18    8   37 1
    19    9   10 1
    20    9   38 1
    21   10   11 2
    22   10   12 1
    23   12   13 2
    24   13   14 1
    25   13   20 1
    26   14   15 1
    27   14   39 1
    28   15   16 1
    29   15   40 1
    30   15   41 1
    31   16   17 1
    32   16   42 1
    33   16   43 1
    34   17   18 1
    35   17   44 1
    36   17   45 1
    37   18   19 1
    38   19   46 1
    39   19   47 1
    40   19   48 1
    41   20   21 1
    42   20   49 1
    43   21   26 ar
    44   21   22 ar
    45   22   23 ar
    46   23   24 ar
    47   23   28 1
    48   24   25 ar
    49   24   50 1
    50   25   26 ar
    51   25   27 1
    52   27   51 1
    53   27   52 1
    54   27   53 1
    55   28   54 1
    56   28   55 1
    57   28   56 1
@<TRIPOS>MOLECULE
ZINC27324096
   58    60     0     0     0
SMALL
USER_CHARGES
6-amino-1-butyl-5-(isobutyl-(8-quinolylmethyl)amino)pyrimidine-2,4-dione
@<TRIPOS>ATOM
      1 C1         10.0669    3.5538    0.3206 C.3       1 <0>        -0.1549
      2 C2          9.3294    4.1974    1.4965 C.3       1 <0>        -0.1212
      3 C3          8.0239    4.8216    0.9996 C.3       1 <0>        -0.1395
      4 C4          7.2864    5.4652    2.1755 C.3       1 <0>         0.1048
      5 N1          6.0363    6.0629    1.6997 N.am      1 <0>        -0.5448
      6 C5          4.8822    5.3130    1.6831 C.2       1 <0>         0.5083
      7 C6          3.7197    5.8806    1.2369 C.2       1 <0>        -0.2154
      8 C7          3.7371    7.2175    0.8004 C.2       1 <0>         0.5459
      9 O1          2.7147    7.7433    0.3932 O.2       1 <0>        -0.5249
     10 N2          4.8891    7.9154    0.8397 N.am      1 <0>        -0.6789
     11 H1          4.9082    8.9643    0.5090 H         1 <0>         0.4546
     12 C8          6.0230    7.3416    1.2811 C.2       1 <0>         0.7099
     13 O2          7.0523    7.9890    1.3024 O.2       1 <0>        -0.5445
     14 N3          2.5200    5.1322    1.2095 N.pl3     1 <0>        -0.4393
     15 C9          2.0861    4.8835   -0.1717 C.3       1 <0>         0.0961
     16 C10         0.9451    3.8990   -0.1702 C.ar      1 <0>        -0.0486
     17 C11         1.1919    2.5670   -0.3009 C.ar      1 <0>        -0.0895
     18 C12         0.1521    1.6398   -0.3011 C.ar      1 <0>        -0.1140
     19 C13        -1.1429    2.0421   -0.1764 C.ar      1 <0>        -0.0994
     20 C14        -1.4342    3.4081   -0.0343 C.ar      1 <0>        -0.1028
     21 C15        -0.3782    4.3530   -0.0333 C.ar      1 <0>         0.1312
     22 N4         -0.6509    5.6552    0.0973 N.ar      1 <0>        -0.4565
     23 C16        -1.8830    6.0839    0.2248 C.ar      1 <0>         0.1289
     24 C17        -2.9670    5.2084    0.2318 C.ar      1 <0>        -0.1741
     25 C18        -2.7588    3.8648    0.1029 C.ar      1 <0>        -0.0601
     26 C19         1.4641    5.8020    1.9805 C.3       1 <0>         0.0509
     27 C20         1.7696    5.6820    3.4749 C.3       1 <0>        -0.0843
     28 C21         3.0348    6.4777    3.8023 C.3       1 <0>        -0.1564
     29 C22         0.5945    6.2376    4.2819 C.3       1 <0>        -0.1450
     30 N5          4.8971    4.0053    2.1115 N.pl3     1 <0>        -0.8494
     31 H2         11.0055    3.1050    0.6778 H         1 <0>         0.0584
     32 H3         10.2915    4.3207   -0.4353 H         1 <0>         0.0561
     33 H4          9.4338    2.7730   -0.1261 H         1 <0>         0.0548
     34 H5          9.1048    3.4305    2.2524 H         1 <0>         0.0655
     35 H6          9.9624    4.9782    1.9433 H         1 <0>         0.0687
     36 H7          8.2486    5.5885    0.2437 H         1 <0>         0.0759
     37 H8          7.3909    4.0408    0.5528 H         1 <0>         0.0692
     38 H9          7.0618    4.6983    2.9314 H         1 <0>         0.0912
     39 H10         7.9194    6.2460    2.6223 H         1 <0>         0.1099
     40 H11         1.7548    5.8281   -0.6276 H         1 <0>         0.0734
     41 H12         2.9254    4.4713   -0.7511 H         1 <0>         0.0739
     42 H13         2.2103    2.2231   -0.4057 H         1 <0>         0.1281
     43 H14         0.3757    0.5884   -0.4061 H         1 <0>         0.1267
     44 H15        -1.9408    1.3143   -0.1828 H         1 <0>         0.1280
     45 H16        -2.0628    7.1438    0.3280 H         1 <0>         0.1576
     46 H17        -3.9708    5.5919    0.3393 H         1 <0>         0.1362
     47 H18        -3.5873    3.1720    0.1059 H         1 <0>         0.1368
     48 H19         1.4224    6.8645    1.6989 H         1 <0>         0.0688
     49 H20         0.4955    5.3273    1.7650 H         1 <0>         0.0819
     50 H21         1.9245    4.6242    3.7337 H         1 <0>         0.0660
     51 H22         3.2544    6.3914    4.8767 H         1 <0>         0.0409
     52 H23         2.8799    7.5355    3.5435 H         1 <0>         0.0439
     53 H24         3.8796    6.0782    3.2221 H         1 <0>         0.0675
     54 H25         0.8142    6.1513    5.3563 H         1 <0>         0.0523
     55 H26        -0.3150    5.6655    4.0465 H         1 <0>         0.0499
     56 H27         0.4396    7.2954    4.0231 H         1 <0>         0.0529
     57 H28         3.9717    3.4109    2.0960 H         1 <0>         0.4583
     58 H29         5.8344    3.5545    2.4695 H         1 <0>         0.4202
@<TRIPOS>BOND
     1    1    2 1
     2    1   31 1
     3    1   32 1
     4    1   33 1
     5    2    3 1
     6    2   34 1
     7    2   35 1
     8    3    4 1
     9    3   36 1
    10    3   37 1
    11    4    5 1
    12    4   38 1
    13    4   39 1
    14    5   12 am
    15    5    6 1
    16    6    7 2
    17    6   30 1
    18    7    8 1
    19    7   14 1
    20    8    9 2
    21    8   10 am
    22   10   11 1
    23   10   12 am
    24   12   13 2
    25   14   15 1
    26   14   26 1
    27   15   16 1
    28   15   40 1
    29   15   41 1
    30   16   21 ar
    31   16   17 ar
    32   17   18 ar
    33   17   42 1
    34   18   19 ar
    35   18   43 1
    36   19   20 ar
    37   19   44 1
    38   20   25 ar
    39   20   21 ar
    40   21   22 ar
    41   22   23 ar
    42   23   24 ar
    43   23   45 1
    44   24   25 ar
    45   24   46 1
    46   25   47 1
    47   26   27 1
    48   26   48 1
    49   26   49 1
    50   27   28 1
    51   27   29 1
    52   27   50 1
    53   28   51 1
    54   28   52 1
    55   28   53 1
    56   29   54 1
    57   29   55 1
    58   29   56 1
    59   30   57 1
    60   30   58 1
@<TRIPOS>MOLECULE
ZINC59019533
   50    52     0     0     0
SMALL
USER_CHARGES

@<TRIPOS>ATOM
      1 C1         -0.0184    1.5028    0.0103 C.3       1 <0>        -0.1206
      2 C2          0.0021   -0.0041    0.0020 C.ar      1 <0>        -0.0667
      3 C3          0.0057   -0.6860   -1.2020 C.ar      1 <0>        -0.1271
      4 C4          0.0248   -2.0651   -1.2173 C.ar      1 <0>        -0.0846
      5 C5          0.0406   -2.7734   -0.0132 C.ar      1 <0>        -0.0640
      6 C6          0.0368   -2.0782    1.1985 C.ar      1 <0>        -0.0714
      7 C7          0.0229   -0.6990    1.1984 C.ar      1 <0>        -0.1259
      8 C8          0.0606   -4.2478   -0.0213 C.2       1 <0>         0.1092
      9 N1          0.0751   -4.9029    1.0993 N.2       1 <0>        -0.2023
     10 N2          0.0941   -6.3037    1.0915 N.pl3     1 <0>        -0.5502
     11 C9          0.1096   -7.0016    2.2853 C.2       1 <0>         0.5618
     12 N3          0.1028   -6.4730    3.4911 N.2       1 <0>        -0.5186
     13 C10         0.1227   -7.4455    4.4087 C.2       1 <0>         0.2165
     14 N4          0.1425   -8.6067    3.7987 N.2       1 <0>        -0.3242
     15 N5          0.1286   -8.3449    2.4193 N.pl3     1 <0>        -0.5042
     16 S1          0.1224   -7.2060    6.1544 S.3       1 <0>         0.1137
     17 C11         0.1547   -8.8898    6.8284 C.3       1 <0>        -0.1635
     18 C12         0.1571   -8.8282    8.3341 C.2       1 <0>         0.5361
     19 O1          0.1388   -7.7542    8.8971 O.2       1 <0>        -0.5164
     20 N6          0.1796   -9.9667    9.0551 N.am      1 <0>        -0.7259
     21 C13         0.1819   -9.9069   10.5189 C.3       1 <0>         0.1235
     22 C14         0.2091  -11.3271   11.0873 C.3       1 <0>        -0.0904
     23 C15         0.2115  -11.2655   12.5931 C.ar      1 <0>        -0.0961
     24 C16         1.4098  -11.2097   13.2801 C.ar      1 <0>        -0.0831
     25 C17         1.4133  -11.1527   14.6609 C.ar      1 <0>        -0.1514
     26 C18         0.2159  -11.1516   15.3562 C.ar      1 <0>         0.0988
     27 C19        -0.9837  -11.2075   14.6670 C.ar      1 <0>        -0.1514
     28 C20        -0.9847  -11.2591   13.2860 C.ar      1 <0>        -0.0831
     29 F1          0.2181  -11.0964   16.7061 F         1 <0>        -0.1386
     30 H1          1.0042    1.8801    0.0026 H         1 <0>         0.0740
     31 H2         -0.5455    1.8639   -0.8728 H         1 <0>         0.0684
     32 H3         -0.5286    1.8543    0.9071 H         1 <0>         0.0692
     33 H4         -0.0068   -0.1371   -2.1320 H         1 <0>         0.1271
     34 H5          0.0273   -2.5960   -2.1577 H         1 <0>         0.1278
     35 H6          0.0488   -2.6194    2.1331 H         1 <0>         0.1377
     36 H7          0.0240   -0.1601    2.1344 H         1 <0>         0.1276
     37 H8          0.0631   -4.7826   -0.9596 H         1 <0>         0.1220
     38 H9          0.0964   -6.7841    0.2488 H         1 <0>         0.3999
     39 H10        -0.7263   -9.4342    6.4884 H         1 <0>         0.1227
     40 H11         1.0534   -9.4018    6.4842 H         1 <0>         0.1228
     41 H12         0.1942  -10.8258    8.6048 H         1 <0>         0.4043
     42 H13         1.0629   -9.3625   10.8588 H         1 <0>         0.0744
     43 H14        -0.7168   -9.3949   10.8630 H         1 <0>         0.0744
     44 H15        -0.6719  -11.8715   10.7474 H         1 <0>         0.0835
     45 H16         1.1078  -11.8390   10.7432 H         1 <0>         0.0835
     46 H17         2.3437  -11.2109   12.7376 H         1 <0>         0.1340
     47 H18         2.3496  -11.1094   15.1975 H         1 <0>         0.1371
     48 H19        -1.9182  -11.2070   15.2083 H         1 <0>         0.1371
     49 H20        -1.9204  -11.2983   12.7480 H         1 <0>         0.1340
     50 H21         0.1335   -8.9998    1.7038 H         1 <0>         0.4387
@<TRIPOS>BOND
     1    1    2 1
     2    1   30 1
     3    1   31 1
     4    1   32 1
     5    2    7 ar
     6    2    3 ar
     7    3    4 ar
     8    3   33 1
     9    4    5 ar
    10    4   34 1
    11    5    6 ar
    12    5    8 1
    13    6    7 ar
    14    6   35 1
    15    7   36 1
    16    8    9 2
    17    8   37 1
    18    9   10 1
    19   10   11 1
    20   10   38 1
    21   11   15 1
    22   11   12 2
    23   12   13 1
    24   13   14 2
    25   13   16 1
    26   14   15 1
    27   15   50 1
    28   16   17 1
    29   17   18 1
    30   17   39 1
    31   17   40 1
    32   18   19 2
    33   18   20 am
    34   20   21 1
    35   20   41 1
    36   21   22 1
    37   21   42 1
    38   21   43 1
    39   22   23 1
    40   22   44 1
    41   22   45 1
    42   23   28 ar
    43   23   24 ar
    44   24   25 ar
    45   24   46 1
    46   25   26 ar
    47   25   47 1
    48   26   27 ar
    49   26   29 1
    50   27   28 ar
    51   27   48 1
    52   28   49 1
@<TRIPOS>MOLECULE
ZINC65712460
   53    55     0     0     0
SMALL
USER_CHARGES

@<TRIPOS>ATOM
      1 C1         -0.0187    1.5258    0.0104 C.3       1 <0>        -0.1544
      2 C2          0.0021   -0.0041    0.0020 C.3       1 <0>        -0.1261
      3 C3         -1.4333   -0.5336    0.0129 C.3       1 <0>        -0.1194
      4 C4         -1.4126   -2.0635    0.0045 C.3       1 <0>        -0.1171
      5 C5         -2.8479   -2.5931    0.0153 C.3       1 <0>        -0.0250
      6 C6         -2.8275   -4.0999    0.0070 C.2       1 <0>         0.0752
      7 N1         -2.8122   -4.9527    1.0128 N.2       1 <0>        -0.2553
      8 N2         -2.7963   -6.2011    0.8343 N.2       1 <0>        -0.2778
      9 C7         -2.7940   -6.7341   -0.3802 C.2       1 <0>         0.2836
     10 S1         -2.8250   -5.2430   -1.3711 S.3       1 <0>        -0.0117
     11 N3         -2.7778   -8.0662   -0.7711 N.am      1 <0>        -0.5888
     12 C8         -2.7618   -9.0413    0.1592 C.2       1 <0>         0.5050
     13 O1         -2.7614   -8.7549    1.3387 O.2       1 <0>        -0.4408
     14 C9         -2.7444  -10.4739   -0.2612 C.2       1 <0>         0.5183
     15 O2         -2.7447  -10.7603   -1.4406 O.2       1 <0>        -0.5115
     16 N4         -2.7283  -11.4491    0.6690 N.am      1 <0>        -0.6876
     17 C10        -2.7112  -12.8547    0.2565 C.3       1 <0>         0.1664
     18 C11        -2.6954  -13.7366    1.4784 C.ar      1 <0>        -0.1446
     19 C12        -1.4828  -14.1191    2.0359 C.ar      1 <0>        -0.0794
     20 C13        -1.4459  -14.9251    3.1524 C.ar      1 <0>        -0.1286
     21 C14        -2.6344  -15.3612    3.7293 C.ar      1 <0>         0.1085
     22 C15        -3.8604  -14.9705    3.1609 C.ar      1 <0>        -0.1049
     23 C16        -3.8745  -14.1488    2.0320 C.ar      1 <0>        -0.0422
     24 C17        -4.9032  -15.5840    3.9867 C.2       1 <0>        -0.1692
     25 C18        -4.2812  -16.2740    4.9557 C.2       1 <0>         0.0776
     26 N5         -2.9252  -16.1524    4.8179 N.pl3     1 <0>        -0.5914
     27 H1         -2.2670  -16.5624    5.4007 H         1 <0>         0.4156
     28 C19        -4.9736  -17.0656    6.0350 C.3       1 <0>        -0.0954
     29 C20        -6.3920  -15.4632    3.7866 C.3       1 <0>        -0.0787
     30 H2          1.0039    1.9031    0.0027 H         1 <0>         0.0541
     31 H3         -0.5459    1.8868   -0.8726 H         1 <0>         0.0540
     32 H4         -0.5289    1.8773    0.9072 H         1 <0>         0.0546
     33 H5          0.5123   -0.3556   -0.8948 H         1 <0>         0.0615
     34 H6          0.5293   -0.3651    0.8851 H         1 <0>         0.0625
     35 H7         -1.9435   -0.1821    0.9097 H         1 <0>         0.0677
     36 H8         -1.9605   -0.1726   -0.8702 H         1 <0>         0.0660
     37 H9         -0.9024   -2.4150   -0.8923 H         1 <0>         0.0679
     38 H10        -0.8854   -2.4246    0.8875 H         1 <0>         0.0733
     39 H11        -3.3581   -2.2415    0.9121 H         1 <0>         0.1092
     40 H12        -3.3751   -2.2320   -0.8677 H         1 <0>         0.0977
     41 H13        -2.7781   -8.2951   -1.7137 H         1 <0>         0.4414
     42 H14        -2.7280  -11.2202    1.6116 H         1 <0>         0.4171
     43 H15        -3.6005  -13.0704   -0.3357 H         1 <0>         0.0852
     44 H16        -1.8207  -13.0470   -0.3419 H         1 <0>         0.0859
     45 H17        -0.5591  -13.7816    1.5895 H         1 <0>         0.1284
     46 H18        -0.4975  -15.2178    3.5782 H         1 <0>         0.1234
     47 H19        -4.8140  -13.8434    1.5957 H         1 <0>         0.1246
     48 H20        -5.1266  -18.0893    5.6933 H         1 <0>         0.0788
     49 H21        -4.3571  -17.0709    6.9339 H         1 <0>         0.0686
     50 H22        -5.9378  -16.6091    6.2585 H         1 <0>         0.0864
     51 H23        -6.7376  -16.2668    3.1364 H         1 <0>         0.0642
     52 H24        -6.8951  -15.5342    4.7509 H         1 <0>         0.0638
     53 H25        -6.6200  -14.5011    3.3278 H         1 <0>         0.0633
@<TRIPOS>BOND
     1    1    2 1
     2    1   30 1
     3    1   31 1
     4    1   32 1
     5    2    3 1
     6    2   33 1
     7    2   34 1
     8    3    4 1
     9    3   35 1
    10    3   36 1
    11    4    5 1
    12    4   37 1
    13    4   38 1
    14    5    6 1
    15    5   39 1
    16    5   40 1
    17    6   10 1
    18    6    7 2
    19    7    8 1
    20    8    9 2
    21    9   10 1
    22    9   11 1
    23   11   12 am
    24   11   41 1
    25   12   13 2
    26   12   14 1
    27   14   15 2
    28   14   16 am
    29   16   17 1
    30   16   42 1
    31   17   18 1
    32   17   43 1
    33   17   44 1
    34   18   23 ar
    35   18   19 ar
    36   19   20 ar
    37   19   45 1
    38   20   21 ar
    39   20   46 1
    40   21   26 1
    41   21   22 ar
    42   22   23 ar
    43   22   24 1
    44   23   47 1
    45   24   25 2
    46   24   29 1
    47   25   26 1
    48   25   28 1
    49   26   27 1
    50   28   48 1
    51   28   49 1
    52   28   50 1
    53   29   51 1
    54   29   52 1
    55   29   53 1
@<TRIPOS>MOLECULE
ZINC00055875
   44    46     0     0     0
SMALL
USER_CHARGES
N-[(3-ethoxy-4-hydroxy-phenyl)methyleneamino]-4,5,6,7-tetrahydro-1H-indazole-3-carboxamide
@<TRIPOS>ATOM
      1 C1         -9.1102    1.6663   11.5550 C.3       1 <0>        -0.1529
      2 C2         -8.0390    1.6938   10.4629 C.3       1 <0>         0.0508
      3 O1         -6.7790    2.0419   11.0401 O.3       1 <0>        -0.3048
      4 C3         -5.7126    2.1110   10.1991 C.ar      1 <0>         0.1027
      5 C4         -5.8770    1.8498    8.8517 C.ar      1 <0>        -0.1685
      6 C5         -4.7790    1.9217    7.9904 C.ar      1 <0>        -0.0242
      7 C6         -3.5192    2.2522    8.4964 C.ar      1 <0>        -0.0975
      8 C7         -3.3642    2.5171    9.8407 C.ar      1 <0>        -0.1104
      9 C8         -4.4546    2.4456   10.6955 C.ar      1 <0>         0.0920
     10 O2         -4.2950    2.7021   12.0209 O.3       1 <0>        -0.4857
     11 C9         -4.9483    1.6436    6.5527 C.2       1 <0>         0.1085
     12 N1         -3.9272    1.7109    5.7540 N.2       1 <0>        -0.2191
     13 N2         -4.0880    1.4466    4.3876 N.am      1 <0>        -0.5735
     14 C10        -3.0278    1.5165    3.5584 C.2       1 <0>         0.6261
     15 O3         -1.9316    1.8089    3.9963 O.2       1 <0>        -0.4868
     16 C11        -3.1973    1.2379    2.1182 C.2       1 <0>        -0.0087
     17 C12        -2.1954    1.2698    1.1335 C.2       1 <0>        -0.1361
     18 C13        -2.8091    0.9514   -0.0328 C.2       1 <0>         0.0166
     19 N3         -4.1059    0.7392    0.2453 N.pl3     1 <0>        -0.3702
     20 H1         -4.8022    0.4858   -0.4263 H         1 <0>         0.4544
     21 N4         -4.3214    0.9100    1.5041 N.2       1 <0>        -0.2634
     22 C14        -2.1003    0.8709   -1.3604 C.3       1 <0>        -0.0495
     23 C15        -0.7529    1.5928   -1.2326 C.3       1 <0>        -0.1161
     24 C16        -0.0127    1.0858    0.0080 C.3       1 <0>        -0.1223
     25 C17        -0.7307    1.5806    1.2710 C.3       1 <0>        -0.0462
     26 H2         -8.8402    0.9282   12.3103 H         1 <0>         0.0669
     27 H3         -9.1822    2.6504   12.0181 H         1 <0>         0.0677
     28 H4        -10.0713    1.4007   11.1147 H         1 <0>         0.0793
     29 H5         -8.3090    2.4318    9.7076 H         1 <0>         0.0632
     30 H6         -7.9670    0.7096    9.9998 H         1 <0>         0.0627
     31 H7         -6.8518    1.5910    8.4655 H         1 <0>         0.1376
     32 H8         -2.6678    2.3042    7.8339 H         1 <0>         0.1433
     33 H9         -2.3908    2.7768   10.2298 H         1 <0>         0.1421
     34 H10        -4.0787    1.9217   12.5493 H         1 <0>         0.3897
     35 H11        -5.9218    1.3839    6.1638 H         1 <0>         0.1227
     36 H12        -4.9623    1.2134    4.0383 H         1 <0>         0.3938
     37 H13        -2.7041    1.3533   -2.1289 H         1 <0>         0.0816
     38 H14        -1.9339   -0.1733   -1.6250 H         1 <0>         0.0859
     39 H15        -0.9233    2.6655   -1.1403 H         1 <0>         0.0696
     40 H16        -0.1510    1.3962   -2.1198 H         1 <0>         0.0759
     41 H17         0.0021   -0.0041    0.0020 H         1 <0>         0.0656
     42 H18         1.0099    1.4630    0.0003 H         1 <0>         0.0733
     43 H19        -0.3277    1.0711    2.1462 H         1 <0>         0.0853
     44 H20        -0.5916    2.6567    1.3750 H         1 <0>         0.0786
@<TRIPOS>BOND
     1    1    2 1
     2    1   26 1
     3    1   27 1
     4    1   28 1
     5    2    3 1
     6    2   29 1
     7    2   30 1
     8    3    4 1
     9    4    9 ar
    10    4    5 ar
    11    5    6 ar
    12    5   31 1
    13    6    7 ar
    14    6   11 1
    15    7    8 ar
    16    7   32 1
    17    8    9 ar
    18    8   33 1
    19    9   10 1
    20   10   34 1
    21   11   12 2
    22   11   35 1
    23   12   13 1
    24   13   14 am
    25   13   36 1
    26   14   15 2
    27   14   16 1
    28   16   21 2
    29   16   17 1
    30   17   25 1
    31   17   18 2
    32   18   19 1
    33   18   22 1
    34   19   20 1
    35   19   21 1
    36   22   23 1
    37   22   37 1
    38   22   38 1
    39   23   24 1
    40   23   39 1
    41   23   40 1
    42   24   25 1
    43   24   41 1
    44   24   42 1
    45   25   43 1
    46   25   44 1
@<TRIPOS>MOLECULE
ZINC14199467
   46    47     0     0     0
SMALL
USER_CHARGES
(2S)-2-[N'-(2,4-dimethylbenzoyl)hydrazino]-N-(5-methylisoxazol-3-yl)butanamide
@<TRIPOS>ATOM
      1 C1          1.9451    2.8211   -0.5156 C.3       1 <0>        -0.1634
      2 C2          0.4427    2.5361   -0.5662 C.3       1 <0>        -0.1572
      3 C3          0.2063    1.0275   -0.4701 C.3       1 <0>         0.0592
      4 H1          0.6923    0.6399    0.4252 H         1 <0>         0.1207
      5 C4         -1.2739    0.7547   -0.3963 C.2       1 <0>         0.5330
      6 O1         -1.8089    0.0771   -1.2480 O.2       1 <0>        -0.4776
      7 N1         -2.0033    1.2637    0.6164 N.am      1 <0>        -0.6319
      8 C5         -3.3735    1.0111    0.6847 C.2       1 <0>         0.2465
      9 C6         -4.1454    0.2427   -0.2268 C.2       1 <0>        -0.2290
     10 C7         -5.3992    0.3018    0.2769 C.2       1 <0>        -0.0182
     11 O2         -5.3310    1.0488    1.3883 O.3       1 <0>         0.0976
     12 N2         -4.2037    1.4295    1.6037 N.2       1 <0>        -0.3894
     13 C8         -6.6322   -0.3463   -0.2982 C.3       1 <0>        -0.0761
     14 N3          0.7673    0.3674   -1.6565 N.3       1 <0>        -0.4138
     15 N4          2.0695    0.0111   -1.4486 N.am      1 <0>        -0.5763
     16 C9          2.7623   -0.6096   -2.4240 C.2       1 <0>         0.5623
     17 O3          2.2283   -0.8524   -3.4886 O.2       1 <0>        -0.5110
     18 C10         4.1717   -0.9952   -2.1990 C.ar      1 <0>        -0.1438
     19 C11         4.8275   -0.6042   -1.0304 C.ar      1 <0>        -0.0799
     20 C12         6.1424   -0.9677   -0.8265 C.ar      1 <0>        -0.1358
     21 C13         6.8112   -1.7187   -1.7770 C.ar      1 <0>        -0.0513
     22 C14         6.1670   -2.1099   -2.9371 C.ar      1 <0>        -0.1313
     23 C15         4.8505   -1.7567   -3.1514 C.ar      1 <0>        -0.0120
     24 C16         4.1487   -2.1881   -4.4133 C.3       1 <0>        -0.1248
     25 C17         8.2476   -2.1127   -1.5472 C.3       1 <0>        -0.1219
     26 H2          2.4378    2.3223   -1.3501 H         1 <0>         0.0594
     27 H3          2.1135    3.8959   -0.5841 H         1 <0>         0.0712
     28 H4          2.3542    2.4484    0.4234 H         1 <0>         0.0617
     29 H5          0.0336    2.9089   -1.5052 H         1 <0>         0.0817
     30 H6         -0.0501    3.0349    0.2683 H         1 <0>         0.0830
     31 H7         -1.5754    1.8056    1.2976 H         1 <0>         0.4181
     32 H8         -3.8092   -0.2696   -1.1161 H         1 <0>         0.1908
     33 H9         -6.7456   -1.3465    0.1198 H         1 <0>         0.0908
     34 H10        -7.5077    0.2532   -0.0488 H         1 <0>         0.0857
     35 H11        -6.5351   -0.4142   -1.3818 H         1 <0>         0.0943
     36 H12         0.6788    0.9542   -2.4726 H         1 <0>         0.3564
     37 H13         2.4957    0.2048   -0.5991 H         1 <0>         0.3990
     38 H14         4.3064   -0.0186   -0.2874 H         1 <0>         0.1216
     39 H15         6.6509   -0.6658    0.0772 H         1 <0>         0.1289
     40 H16         6.6945   -2.6963   -3.6748 H         1 <0>         0.1310
     41 H17         4.1899   -1.3819   -5.1457 H         1 <0>         0.0770
     42 H18         4.6405   -3.0725   -4.8184 H         1 <0>         0.0597
     43 H19         3.1081   -2.4220   -4.1885 H         1 <0>         0.0969
     44 H20         8.2830   -3.0707   -1.0286 H         1 <0>         0.0766
     45 H21         8.7584   -2.1995   -2.5062 H         1 <0>         0.0708
     46 H22         8.7402   -1.3527   -0.9407 H         1 <0>         0.0703
@<TRIPOS>BOND
     1    1    2 1
     2    1   26 1
     3    1   27 1
     4    1   28 1
     5    2    3 1
     6    2   29 1
     7    2   30 1
     8    3    4 1
     9    3    5 1
    10    3   14 1
    11    5    6 2
    12    5    7 am
    13    7    8 1
    14    7   31 1
    15    8   12 2
    16    8    9 1
    17    9   10 2
    18    9   32 1
    19   10   11 1
    20   10   13 1
    21   11   12 1
    22   13   33 1
    23   13   34 1
    24   13   35 1
    25   14   15 1
    26   14   36 1
    27   15   16 am
    28   15   37 1
    29   16   17 2
    30   16   18 1
    31   18   23 ar
    32   18   19 ar
    33   19   20 ar
    34   19   38 1
    35   20   21 ar
    36   20   39 1
    37   21   22 ar
    38   21   25 1
    39   22   23 ar
    40   22   40 1
    41   23   24 1
    42   24   41 1
    43   24   42 1
    44   24   43 1
    45   25   44 1
    46   25   45 1
    47   25   46 1
@<TRIPOS>MOLECULE
ZINC28382237
   40    43     0     0     0
SMALL
USER_CHARGES
2-[[4-amino-5-(1,4,5,6-tetrahydrocyclopenta[d]pyrazol-3-yl)-1,2,4-triazol-3-yl]sulfanyl]-1-(4-fluorophenyl)ethanone
@<TRIPOS>ATOM
      1 C1         -6.0980   -6.3524    0.0252 C.ar      1 <0>        -0.0394
      2 C2         -6.4958   -7.6712    0.0284 C.ar      1 <0>        -0.1652
      3 C3         -7.8454   -7.9917    0.0404 C.ar      1 <0>         0.1372
      4 C4         -8.8029   -6.9881    0.0551 C.ar      1 <0>        -0.1665
      5 C5         -8.4185   -5.6653    0.0579 C.ar      1 <0>        -0.0258
      6 C6         -7.0587   -5.3351    0.0459 C.ar      1 <0>        -0.1788
      7 C7         -6.6412   -3.9254    0.0488 C.2       1 <0>         0.4203
      8 O1         -7.4760   -3.0458    0.0617 O.2       1 <0>        -0.4336
      9 C8         -5.1760   -3.5735    0.0358 C.3       1 <0>        -0.1700
     10 S1         -4.9878   -1.7733    0.0431 S.3       1 <0>         0.0582
     11 C9         -3.2302   -1.6493    0.0260 C.2       1 <0>         0.1195
     12 N1         -2.3784   -2.6496    0.0128 N.2       1 <0>        -0.2770
     13 N2         -1.1734   -2.2030    0.0028 N.2       1 <0>        -0.2347
     14 C10        -1.1817   -0.8906    0.0090 C.2       1 <0>         0.2313
     15 N3         -2.4991   -0.4952    0.0293 N.pl3     1 <0>        -0.1970
     16 N4         -2.9767    0.7845    0.0469 N.3       1 <0>        -0.7587
     17 C11         0.0021   -0.0041    0.0020 C.2       1 <0>         0.1690
     18 C12         1.3525   -0.4201   -0.0131 C.2       1 <0>        -0.2116
     19 C13         2.1249    0.6852   -0.0146 C.2       1 <0>         0.0490
     20 N5          1.3086    1.7655   -0.0010 N.pl3     1 <0>        -0.4524
     21 H1          1.7371    2.7786    0.0003 H         1 <0>         0.4745
     22 N6         -0.0158    1.3127    0.0093 N.2       1 <0>        -0.2754
     23 C14         3.5895    0.3028   -0.0306 C.3       1 <0>        -0.0493
     24 C15         3.6194   -1.1813    0.3954 C.3       1 <0>        -0.1110
     25 C16         2.2147   -1.6640   -0.0280 C.3       1 <0>        -0.0433
     26 F1         -8.2290   -9.2871    0.0382 F         1 <0>        -0.1304
     27 H2         -5.0470   -6.1042    0.0114 H         1 <0>         0.1474
     28 H3         -5.7554   -8.4574    0.0170 H         1 <0>         0.1464
     29 H4         -9.8520   -7.2443    0.0647 H         1 <0>         0.1454
     30 H5         -9.1649   -4.8848    0.0697 H         1 <0>         0.1469
     31 H6         -4.6894   -3.9967    0.9269 H         1 <0>         0.1382
     32 H7         -4.7075   -3.9875   -0.8692 H         1 <0>         0.1382
     33 H8         -2.2765    1.6329    0.0476 H         1 <0>         0.4580
     34 H9         -4.0614    0.9666    0.0604 H         1 <0>         0.4467
     35 H10         3.9939    0.4427   -1.0440 H         1 <0>         0.0905
     36 H11         4.1424    0.9393    0.6759 H         1 <0>         0.0808
     37 H12         4.4317   -1.6989   -0.1358 H         1 <0>         0.0856
     38 H13         3.7897   -1.2481    1.4801 H         1 <0>         0.0776
     39 H14         1.8078   -2.4007    0.6803 H         1 <0>         0.0804
     40 H15         2.2210   -2.0937   -1.0406 H         1 <0>         0.0789
@<TRIPOS>BOND
     1    1    6 ar
     2    1    2 ar
     3    1   27 1
     4    2    3 ar
     5    2   28 1
     6    3    4 ar
     7    3   26 1
     8    4    5 ar
     9    4   29 1
    10    5    6 ar
    11    5   30 1
    12    6    7 1
    13    7    8 2
    14    7    9 1
    15    9   10 1
    16    9   31 1
    17    9   32 1
    18   10   11 1
    19   11   15 1
    20   11   12 2
    21   12   13 1
    22   13   14 2
    23   14   15 1
    24   14   17 1
    25   15   16 1
    26   16   33 1
    27   16   34 1
    28   17   22 2
    29   17   18 1
    30   18   25 1
    31   18   19 2
    32   19   20 1
    33   19   23 1
    34   20   21 1
    35   20   22 1
    36   23   24 1
    37   23   35 1
    38   23   36 1
    39   24   25 1
    40   24   37 1
    41   24   38 1
    42   25   39 1
    43   25   40 1
@<TRIPOS>MOLECULE
ZINC55880306
   50    51     0     0     0
SMALL
USER_CHARGES

@<TRIPOS>ATOM
      1 C1          0.9147    1.3477   -0.1378 C.3       1 <0>        -0.0731
      2 C2          0.4269   -0.0765   -0.0692 C.2       1 <0>         0.0771
      3 C3         -0.5719   -0.6404   -0.8697 C.2       1 <0>        -0.2655
      4 C4         -0.7187   -1.9350   -0.5027 C.2       1 <0>         0.0881
      5 N1          0.1578   -2.1814    0.4964 N.pl3     1 <0>        -0.3201
      6 N2          0.8689   -1.0005    0.7461 N.2       1 <0>        -0.2854
      7 C5          0.3291   -3.4054    1.1620 C.ar      1 <0>         0.0543
      8 C6          0.4553   -4.5800    0.4333 C.ar      1 <0>        -0.0413
      9 C7          0.6238   -5.7840    1.0873 C.ar      1 <0>        -0.1817
     10 C8          0.6678   -5.8212    2.4755 C.ar      1 <0>         0.2528
     11 C9          0.5421   -4.6469    3.2060 C.ar      1 <0>        -0.2275
     12 C10         0.3782   -3.4404    2.5511 C.ar      1 <0>         0.1670
     13 F1          0.2610   -2.2967    3.2607 F         1 <0>        -0.1207
     14 N3          0.8380   -7.0409    3.1368 N.pl3     1 <0>        -0.7281
     15 C11         0.8843   -7.0802    4.6006 C.3       1 <0>         0.1038
     16 C12         1.0740   -8.5032    5.0591 C.2       1 <0>         0.5159
     17 O1          1.1618   -9.3961    4.2439 O.2       1 <0>        -0.4585
     18 N4          1.1461   -8.7830    6.3755 N.am      1 <0>        -0.6887
     19 C13         1.3157  -10.0556    6.7856 C.2       1 <0>         0.6930
     20 O2          1.4038  -10.9509    5.9683 O.2       1 <0>        -0.5261
     21 N5          1.3878  -10.3355    8.1020 N.am      1 <0>        -0.7344
     22 C14         1.5722  -11.7188    8.5478 C.3       1 <0>         0.1370
     23 C15         1.6206  -11.7599   10.0765 C.3       1 <0>        -0.1079
     24 C16         1.6879  -13.2146   10.5457 C.3       1 <0>        -0.1471
     25 C17         2.8590  -11.0077   10.5679 C.3       1 <0>        -0.1507
     26 C18        -1.6864   -2.9239   -1.1000 C.3       1 <0>        -0.0950
     27 H1          1.7383    1.4159   -0.8485 H         1 <0>         0.0780
     28 H2          0.1003    1.9955   -0.4623 H         1 <0>         0.0790
     29 H3          1.2583    1.6620    0.8477 H         1 <0>         0.0731
     30 H4         -1.1280   -0.1325   -1.6438 H         1 <0>         0.1512
     31 H5          0.4212   -4.5520   -0.6458 H         1 <0>         0.1407
     32 H6          0.7212   -6.6976    0.5195 H         1 <0>         0.1413
     33 H7          0.5759   -4.6756    4.2851 H         1 <0>         0.1432
     34 H8          0.9254   -7.8612    2.6266 H         1 <0>         0.4182
     35 H9          1.7158   -6.4706    4.9543 H         1 <0>         0.1032
     36 H10        -0.0499   -6.6899    5.0043 H         1 <0>         0.1032
     37 H11         1.0758   -8.0686    7.0278 H         1 <0>         0.4128
     38 H12         1.3175   -9.6210    8.7543 H         1 <0>         0.3992
     39 H13         0.7408  -12.3284    8.1941 H         1 <0>         0.0716
     40 H14         2.5064  -12.1091    8.1441 H         1 <0>         0.0720
     41 H15         0.7249  -11.2886   10.4811 H         1 <0>         0.0782
     42 H16         2.5835  -13.6858   10.1410 H         1 <0>         0.0601
     43 H17         1.7223  -13.2438   11.6348 H         1 <0>         0.0630
     44 H18         0.8056  -13.7504   10.1956 H         1 <0>         0.0597
     45 H19         2.8935  -11.0370   11.6570 H         1 <0>         0.0606
     46 H20         3.7547  -11.4790   10.1632 H         1 <0>         0.0592
     47 H21         2.8111   -9.9714   10.2336 H         1 <0>         0.0530
     48 H22        -1.1827   -3.5030   -1.8740 H         1 <0>         0.0809
     49 H23        -2.0471   -3.5954   -0.3208 H         1 <0>         0.0736
     50 H24        -2.5293   -2.3887   -1.5373 H         1 <0>         0.0879
@<TRIPOS>BOND
     1    1    2 1
     2    1   27 1
     3    1   28 1
     4    1   29 1
     5    2    6 2
     6    2    3 1
     7    3    4 2
     8    3   30 1
     9    4    5 1
    10    4   26 1
    11    5    6 1
    12    5    7 1
    13    7   12 ar
    14    7    8 ar
    15    8    9 ar
    16    8   31 1
    17    9   10 ar
    18    9   32 1
    19   10   11 ar
    20   10   14 1
    21   11   12 ar
    22   11   33 1
    23   12   13 1
    24   14   15 1
    25   14   34 1
    26   15   16 1
    27   15   35 1
    28   15   36 1
    29   16   17 2
    30   16   18 am
    31   18   19 am
    32   18   37 1
    33   19   20 2
    34   19   21 am
    35   21   22 1
    36   21   38 1
    37   22   23 1
    38   22   39 1
    39   22   40 1
    40   23   24 1
    41   23   25 1
    42   23   41 1
    43   24   42 1
    44   24   43 1
    45   24   44 1
    46   25   45 1
    47   25   46 1
    48   25   47 1
    49   26   48 1
    50   26   49 1
    51   26   50 1
@<TRIPOS>MOLECULE
ZINC64427707
   45    47     0     0     0
SMALL
USER_CHARGES

@<TRIPOS>ATOM
      1 C1         -0.0187    1.5258    0.0104 C.3       1 <0>        -0.1545
      2 C2          0.0021   -0.0041    0.0020 C.3       1 <0>         0.0509
      3 O1          0.6709   -0.4649   -1.1737 O.3       1 <0>        -0.3092
      4 C3          0.7767   -1.8091   -1.3360 C.ar      1 <0>         0.1625
      5 C4          0.2408   -2.6662   -0.3831 C.ar      1 <0>        -0.2100
      6 C5          0.3455   -4.0306   -0.5443 C.ar      1 <0>        -0.0440
      7 C6          0.9916   -4.5516   -1.6677 C.ar      1 <0>        -0.0781
      8 C7          1.5291   -3.6863   -2.6235 C.ar      1 <0>        -0.0179
      9 C8          1.4154   -2.3233   -2.4574 C.ar      1 <0>        -0.1552
     10 C9          1.1066   -6.0132   -1.8442 C.2       1 <0>         0.1381
     11 N1          1.6839   -6.6755   -2.8336 N.2       1 <0>        -0.5234
     12 C10         1.7098   -7.9819   -2.8569 C.2       1 <0>         0.1841
     13 C11         1.1005   -8.6308   -1.7902 C.2       1 <0>        -0.3057
     14 S1          0.5410   -7.2322   -0.8310 S.3       1 <0>         0.1566
     15 C12         0.9603  -10.0648   -1.5236 C.2       1 <0>         0.6219
     16 O2          1.4192  -10.8768   -2.3055 O.2       1 <0>        -0.5087
     17 N2          0.3232  -10.4845   -0.4125 N.am      1 <0>        -0.5277
     18 N3          0.1892  -11.8556   -0.1576 N.am      1 <0>        -0.5249
     19 C13        -0.4479  -12.2753    0.9534 C.2       1 <0>         0.7189
     20 O3         -0.5642  -13.4652    1.1747 O.2       1 <0>        -0.5612
     21 N4         -0.9561  -11.3760    1.8192 N.am      1 <0>        -0.7154
     22 C14        -1.6486  -11.8323    3.0269 C.3       1 <0>         0.0942
     23 C15        -2.9531  -11.1265    3.4025 C.3       1 <0>        -0.1923
     24 C16        -1.6856  -10.8788    4.2229 C.3       1 <0>        -0.1880
     25 C17         2.3648   -8.7434   -3.9804 C.3       1 <0>        -0.0942
     26 H1          1.0039    1.9031    0.0027 H         1 <0>         0.0682
     27 H2         -0.5459    1.8868   -0.8726 H         1 <0>         0.0682
     28 H3         -0.5289    1.8773    0.9072 H         1 <0>         0.0814
     29 H4          0.5293   -0.3651    0.8851 H         1 <0>         0.0663
     30 H5         -1.0205   -0.3814    0.0098 H         1 <0>         0.0663
     31 H6         -0.2584   -2.2625    0.4855 H         1 <0>         0.1393
     32 H7         -0.0711   -4.6962    0.1972 H         1 <0>         0.1312
     33 H8          2.0297   -4.0853   -3.4933 H         1 <0>         0.1461
     34 H9          1.8271   -1.6536   -3.1980 H         1 <0>         0.1427
     35 H10        -0.0425   -9.8373    0.2106 H         1 <0>         0.4166
     36 H11         0.5549  -12.5028   -0.7807 H         1 <0>         0.4475
     37 H12        -0.8633  -10.4268    1.6427 H         1 <0>         0.3914
     38 H13        -1.5751  -12.8995    3.2362 H         1 <0>         0.1441
     39 H14        -3.2960  -10.3227    2.7511 H         1 <0>         0.0975
     40 H15        -3.7382  -11.7294    3.8589 H         1 <0>         0.1064
     41 H16        -1.6368  -11.3187    5.2190 H         1 <0>         0.1078
     42 H17        -1.1947   -9.9120    4.1111 H         1 <0>         0.0977
     43 H18         3.4129   -8.9188   -3.7378 H         1 <0>         0.0868
     44 H19         1.8582   -9.6990   -4.1154 H         1 <0>         0.0977
     45 H20         2.2971   -8.1631   -4.9006 H         1 <0>         0.0804
@<TRIPOS>BOND
     1    1    2 1
     2    1   26 1
     3    1   27 1
     4    1   28 1
     5    2    3 1
     6    2   29 1
     7    2   30 1
     8    3    4 1
     9    4    9 ar
    10    4    5 ar
    11    5    6 ar
    12    5   31 1
    13    6    7 ar
    14    6   32 1
    15    7    8 ar
    16    7   10 1
    17    8    9 ar
    18    8   33 1
    19    9   34 1
    20   10   14 1
    21   10   11 2
    22   11   12 1
    23   12   13 2
    24   12   25 1
    25   13   14 1
    26   13   15 1
    27   15   16 2
    28   15   17 am
    29   17   18 1
    30   17   35 1
    31   18   19 am
    32   18   36 1
    33   19   20 2
    34   19   21 am
    35   21   22 1
    36   21   37 1
    37   22   24 1
    38   22   23 1
    39   22   38 1
    40   23   24 1
    41   23   39 1
    42   23   40 1
    43   24   41 1
    44   24   42 1
    45   25   43 1
    46   25   44 1
    47   25   45 1
@<TRIPOS>MOLECULE
ZINC02008609
   32    33     0     0     0
SMALL
USER_CHARGES
[2-(4-chlorophenyl)-2-methyl-1,3-dioxolan-4-yl]methyl aminoformate
@<TRIPOS>ATOM
      1 C1          0.4871    3.4134   -2.4154 C.3       1 <0>        -0.1666
      2 C2          0.5232    1.9200   -2.0849 C.3       1 <0>         0.2984
      3 O1          1.7538    1.6036   -1.4128 O.3       1 <0>        -0.3594
      4 C3          1.4289    1.6529   -0.0027 C.3       1 <0>         0.0268
      5 C4         -0.0127    1.0858    0.0080 C.3       1 <0>         0.0514
      6 H1          0.0021   -0.0041    0.0020 H         1 <0>         0.1017
      7 O2         -0.5726    1.5946   -1.2195 O.3       1 <0>        -0.3590
      8 C5         -0.7900    1.6075    1.2182 C.3       1 <0>         0.0913
      9 O3         -2.1142    1.0121    1.2362 O.3       1 <0>        -0.3615
     10 C6         -2.9312    1.3692    2.2450 C.2       1 <0>         0.6519
     11 O4         -2.5482    2.1569    3.0873 O.2       1 <0>        -0.5747
     12 N1         -4.1740    0.8531    2.3206 N.am      1 <0>        -0.8243
     13 C7          0.4198    1.1175   -3.3563 C.ar      1 <0>        -0.1007
     14 C8         -0.8189    0.7196   -3.8234 C.ar      1 <0>        -0.0757
     15 C9         -0.9147   -0.0116   -4.9924 C.ar      1 <0>        -0.1146
     16 C10         0.2303   -0.3549   -5.6891 C.ar      1 <0>        -0.0269
     17 C11         1.4701    0.0388   -5.2180 C.ar      1 <0>        -0.1147
     18 C12         1.5642    0.7748   -4.0519 C.ar      1 <0>        -0.0776
     19 Cl1         0.1113   -1.2798   -7.1533 Cl        1 <0>        -0.0670
     20 H2          1.3205    3.6602   -3.0732 H         1 <0>         0.0804
     21 H3         -0.4523    3.6527   -2.9138 H         1 <0>         0.0791
     22 H4          0.5675    3.9914   -1.4947 H         1 <0>         0.0696
     23 H5          1.4475    2.6784    0.3664 H         1 <0>         0.0852
     24 H6          2.1017    1.0194    0.5752 H         1 <0>         0.1203
     25 H7         -0.2597    1.3418    2.1327 H         1 <0>         0.0933
     26 H8         -0.8800    2.6918    1.1524 H         1 <0>         0.0845
     27 H9         -4.4797    0.2243    1.6482 H         1 <0>         0.4100
     28 H10        -4.7626    1.1104    3.0474 H         1 <0>         0.4275
     29 H11        -1.7123    0.9839   -3.2772 H         1 <0>         0.1394
     30 H12        -1.8828   -0.3186   -5.3596 H         1 <0>         0.1368
     31 H13         2.3643   -0.2292   -5.7612 H         1 <0>         0.1368
     32 H14         2.5321    1.0819   -3.6839 H         1 <0>         0.1383
@<TRIPOS>BOND
     1    1    2 1
     2    1   20 1
     3    1   21 1
     4    1   22 1
     5    2    7 1
     6    2    3 1
     7    2   13 1
     8    3    4 1
     9    4    5 1
    10    4   23 1
    11    4   24 1
    12    5    6 1
    13    5    7 1
    14    5    8 1
    15    8    9 1
    16    8   25 1
    17    8   26 1
    18    9   10 1
    19   10   11 2
    20   10   12 am
    21   12   27 1
    22   12   28 1
    23   13   18 ar
    24   13   14 ar
    25   14   15 ar
    26   14   29 1
    27   15   16 ar
    28   15   30 1
    29   16   17 ar
    30   16   19 1
    31   17   18 ar
    32   17   31 1
    33   18   32 1
@<TRIPOS>MOLECULE
ZINC37182729
   35    37     0     0     0
SMALL
USER_CHARGES

@<TRIPOS>ATOM
      1 C1          2.0111   -1.9928    2.0100 C.3       1 <0>        -0.1139
      2 C2          0.9750   -1.6808    0.9612 C.ar      1 <0>        -0.0342
      3 C3          1.0349   -2.2940   -0.2741 C.ar      1 <0>        -0.1235
      4 C4          0.0850   -2.0082   -1.2376 C.ar      1 <0>        -0.0886
      5 C5         -0.9302   -1.1074   -0.9696 C.ar      1 <0>        -0.1270
      6 C6         -0.9997   -0.4886    0.2619 C.ar      1 <0>        -0.0740
      7 C7         -0.0484   -0.7772    1.2385 C.ar      1 <0>        -0.0429
      8 C8         -0.1218   -0.1198    2.5671 C.2       1 <0>         0.3037
      9 N1          0.0059   -0.7364    3.7557 N.2       1 <0>        -0.5075
     10 C9         -0.1098    0.1293    4.7219 C.2       1 <0>         0.3004
     11 O1         -0.3169    1.3389    4.1858 O.3       1 <0>        -0.0915
     12 N2         -0.3162    1.1586    2.7775 N.2       1 <0>        -0.3179
     13 C10        -0.0248   -0.1783    6.1948 C.3       1 <0>        -0.0369
     14 S1          1.6974   -0.0307    6.7449 S.3       1 <0>        -0.0529
     15 C11         1.6305   -0.4153    8.4631 C.ar      1 <0>        -0.1339
     16 C12         0.4232   -0.7424    9.0762 C.ar      1 <0>        -0.1356
     17 C13         0.4123   -1.0374   10.4245 C.ar      1 <0>         0.0597
     18 N3          1.5246   -1.0134   11.1340 N.ar      1 <0>        -0.4438
     19 C14         2.6910   -0.7091   10.5951 C.ar      1 <0>         0.0470
     20 C15         2.7907   -0.4061    9.2477 C.ar      1 <0>         0.1941
     21 N4          4.0311   -0.0902    8.6795 N.pl3     1 <0>        -0.8615
     22 H1          1.6351   -2.7734    2.6714 H         1 <0>         0.0855
     23 H2          2.9258   -2.3359    1.5264 H         1 <0>         0.0705
     24 H3          2.2221   -1.0949    2.5909 H         1 <0>         0.0610
     25 H4          1.8253   -2.9981   -0.4885 H         1 <0>         0.1336
     26 H5          0.1360   -2.4897   -2.2030 H         1 <0>         0.1315
     27 H6         -1.6695   -0.8877   -1.7256 H         1 <0>         0.1332
     28 H7         -1.7924    0.2148    0.4700 H         1 <0>         0.1288
     29 H8         -0.6450    0.5259    6.7494 H         1 <0>         0.1326
     30 H9         -0.3780   -1.1936    6.3749 H         1 <0>         0.1411
     31 H10        -0.4926   -0.7644    8.5041 H         1 <0>         0.1348
     32 H11        -0.5204   -1.2914   10.9060 H         1 <0>         0.1593
     33 H12         3.5779   -0.7006   11.2113 H         1 <0>         0.1601
     34 H13         4.0917    0.1245    7.7355 H         1 <0>         0.4020
     35 H14         4.8298   -0.0860    9.2300 H         1 <0>         0.4068
@<TRIPOS>BOND
     1    1    2 1
     2    1   22 1
     3    1   23 1
     4    1   24 1
     5    2    7 ar
     6    2    3 ar
     7    3    4 ar
     8    3   25 1
     9    4    5 ar
    10    4   26 1
    11    5    6 ar
    12    5   27 1
    13    6    7 ar
    14    6   28 1
    15    7    8 1
    16    8   12 2
    17    8    9 1
    18    9   10 2
    19   10   11 1
    20   10   13 1
    21   11   12 1
    22   13   14 1
    23   13   29 1
    24   13   30 1
    25   14   15 1
    26   15   20 ar
    27   15   16 ar
    28   16   17 ar
    29   16   31 1
    30   17   18 ar
    31   17   32 1
    32   18   19 ar
    33   19   20 ar
    34   19   33 1
    35   20   21 1
    36   21   34 1
    37   21   35 1
@<TRIPOS>MOLECULE
ZINC48597439
   37    38     0     0     0
SMALL
USER_CHARGES

@<TRIPOS>ATOM
      1 C1         -0.0187    1.5258    0.0104 C.3       1 <0>        -0.1442
      2 C2          0.0021   -0.0041    0.0020 C.3       1 <0>        -0.0487
      3 C3         -1.4117   -0.5257    0.0127 C.2       1 <0>         0.0837
      4 C4         -2.0667   -0.7720    1.1738 C.2       1 <0>        -0.2457
      5 S1         -3.6385   -1.3486    0.5534 S.3       1 <0>         0.2133
      6 C5         -3.3021   -1.2176   -1.0904 C.2       1 <0>         0.2426
      7 N1         -2.0695   -0.7578   -1.1082 N.2       1 <0>        -0.5458
      8 N2         -4.1271   -1.5175   -2.1669 N.am      1 <0>        -0.6010
      9 C6         -5.3752   -1.9783   -1.9515 C.2       1 <0>         0.6111
     10 O1         -5.7789   -2.1315   -0.8150 O.2       1 <0>        -0.4901
     11 C7         -6.2522   -2.2971   -3.0959 C.2       1 <0>        -0.0138
     12 C8         -7.5806   -2.7808   -3.0298 C.2       1 <0>        -0.1665
     13 C9         -7.9776   -2.9247   -4.3159 C.2       1 <0>         0.0310
     14 N3         -6.9435   -2.5477   -5.0983 N.pl3     1 <0>        -0.3678
     15 H1         -6.9521   -2.5504   -6.0683 H         1 <0>         0.4477
     16 N4         -5.9488   -2.1798   -4.3734 N.2       1 <0>        -0.2511
     17 C10        -9.3225   -3.4150   -4.7867 C.3       1 <0>        -0.0286
     18 C11        -9.7147   -2.6764   -6.0679 C.3       1 <0>        -0.1563
     19 C12        -9.2483   -4.9174   -5.0664 C.3       1 <0>        -0.1483
     20 C13        -1.5973   -0.6059    2.5962 C.3       1 <0>        -0.0575
     21 H2          1.0039    1.9031    0.0027 H         1 <0>         0.0614
     22 H3         -0.5459    1.8868   -0.8726 H         1 <0>         0.0558
     23 H4         -0.5289    1.8773    0.9072 H         1 <0>         0.0551
     24 H5          0.5123   -0.3556   -0.8948 H         1 <0>         0.0776
     25 H6          0.5293   -0.3651    0.8851 H         1 <0>         0.0802
     26 H7         -3.8050   -1.3952   -3.0736 H         1 <0>         0.4299
     27 H8         -8.1561   -2.9914   -2.1406 H         1 <0>         0.1682
     28 H9        -10.0688   -3.2255   -4.0152 H         1 <0>         0.1026
     29 H10       -10.6875   -3.0311   -6.4085 H         1 <0>         0.0728
     30 H11        -9.7676   -1.6061   -5.8686 H         1 <0>         0.0625
     31 H12        -8.9684   -2.8659   -6.8395 H         1 <0>         0.0530
     32 H13        -8.9690   -5.4436   -4.1537 H         1 <0>         0.0639
     33 H14       -10.2212   -5.2720   -5.4070 H         1 <0>         0.0688
     34 H15        -8.5021   -5.1069   -5.8380 H         1 <0>         0.0549
     35 H16        -1.8389    0.3987    2.9435 H         1 <0>         0.0764
     36 H17        -2.0945   -1.3393    3.2309 H         1 <0>         0.0726
     37 H18        -0.5188   -0.7568    2.6428 H         1 <0>         0.0805
@<TRIPOS>BOND
     1    1    2 1
     2    1   21 1
     3    1   22 1
     4    1   23 1
     5    2    3 1
     6    2   24 1
     7    2   25 1
     8    3    7 1
     9    3    4 2
    10    4    5 1
    11    4   20 1
    12    5    6 1
    13    6    7 2
    14    6    8 1
    15    8    9 am
    16    8   26 1
    17    9   10 2
    18    9   11 1
    19   11   16 2
    20   11   12 1
    21   12   13 2
    22   12   27 1
    23   13   14 1
    24   13   17 1
    25   14   15 1
    26   14   16 1
    27   17   18 1
    28   17   19 1
    29   17   28 1
    30   18   29 1
    31   18   30 1
    32   18   31 1
    33   19   32 1
    34   19   33 1
    35   19   34 1
    36   20   35 1
    37   20   36 1
    38   20   37 1
@<TRIPOS>MOLECULE
ZINC44353577
   41    41     0     0     0
SMALL
USER_CHARGES

@<TRIPOS>ATOM
      1 C1         -0.4678    1.9603    0.0336 C.3       1 <0>        -0.1671
      2 C2         -0.1903    0.4800   -0.2356 C.3       1 <0>         0.1347
      3 H1          0.4213    0.3821   -1.1325 H         1 <0>         0.1113
      4 C3         -1.5149   -0.2585   -0.4384 C.3       1 <0>        -0.0711
      5 C4         -2.1871    0.2421   -1.7184 C.3       1 <0>        -0.1425
      6 C5         -1.2485   -1.7605   -0.5562 C.3       1 <0>        -0.1476
      7 C6         -2.4335    0.0044    0.7565 C.3       1 <0>        -0.1596
      8 N1          0.5216   -0.0989    0.9065 N.pl3     1 <0>        -0.9908
      9 C7         -0.0457    0.0061    2.2531 C.3       1 <0>         0.0871
     10 S1          1.9677   -0.8721    0.6753 S.o2      1 <0>         2.6828
     11 O1          2.1267   -1.7704    1.7648 O.2       1 <0>        -0.9514
     12 O2          1.9848   -1.3053   -0.6780 O.2       1 <0>        -0.9467
     13 C8          3.2372    0.3397    0.8322 C.ar      1 <0>        -0.7005
     14 C9          4.1487    0.2544    1.8650 C.ar      1 <0>         0.0289
     15 C10         5.1464    1.2023    1.9927 C.ar      1 <0>        -0.1917
     16 C11         5.2386    2.2486    1.0819 C.ar      1 <0>         0.2687
     17 C12         4.3282    2.3435    0.0408 C.ar      1 <0>        -0.1670
     18 C13         3.3246    1.3830   -0.0917 C.ar      1 <0>         0.1239
     19 C14         2.3839    1.4706   -1.1678 C.1       1 <0>         0.2145
     20 N2          1.6375    1.5400   -2.0214 N.1       1 <0>        -0.3520
     21 N3          6.2485    3.2046    1.2160 N.pl3     1 <0>        -0.8609
     22 H2          0.4758    2.4864    0.1781 H         1 <0>         0.0533
     23 H3         -0.9975    2.3910   -0.8161 H         1 <0>         0.0733
     24 H4         -1.0794    2.0581    0.9305 H         1 <0>         0.0708
     25 H5         -1.5326    0.0549   -2.5697 H         1 <0>         0.0586
     26 H6         -3.1307   -0.2840   -1.8629 H         1 <0>         0.0593
     27 H7         -2.3769    1.3122   -1.6345 H         1 <0>         0.0582
     28 H8         -0.7696   -2.1172    0.3557 H         1 <0>         0.0503
     29 H9         -2.1921   -2.2867   -0.7007 H         1 <0>         0.0593
     30 H10        -0.5940   -1.9478   -1.4075 H         1 <0>         0.0636
     31 H11        -2.5088    1.0782    0.9276 H         1 <0>         0.0603
     32 H12        -3.4240   -0.4009    0.5494 H         1 <0>         0.0546
     33 H13        -2.0223   -0.4770    1.6438 H         1 <0>         0.0690
     34 H14        -0.6066   -0.8998    2.4827 H         1 <0>         0.0661
     35 H15         0.7591    0.1287    2.9779 H         1 <0>         0.0684
     36 H16        -0.7118    0.8677    2.3005 H         1 <0>         0.0827
     37 H17         4.0818   -0.5556    2.5762 H         1 <0>         0.1535
     38 H18         5.8567    1.1301    2.8031 H         1 <0>         0.1405
     39 H19         4.3979    3.1557   -0.6676 H         1 <0>         0.1413
     40 H20         6.8854    3.1383    1.9447 H         1 <0>         0.4078
     41 H21         6.3128    3.9346    0.5805 H         1 <0>         0.4062
@<TRIPOS>BOND
     1    1    2 1
     2    1   22 1
     3    1   23 1
     4    1   24 1
     5    2    3 1
     6    2    4 1
     7    2    8 1
     8    4    5 1
     9    4    6 1
    10    4    7 1
    11    5   25 1
    12    5   26 1
    13    5   27 1
    14    6   28 1
    15    6   29 1
    16    6   30 1
    17    7   31 1
    18    7   32 1
    19    7   33 1
    20    8    9 1
    21    8   10 1
    22    9   34 1
    23    9   35 1
    24    9   36 1
    25   10   11 2
    26   10   12 2
    27   10   13 1
    28   13   18 ar
    29   13   14 ar
    30   14   15 ar
    31   14   37 1
    32   15   16 ar
    33   15   38 1
    34   16   17 ar
    35   16   21 1
    36   17   18 ar
    37   17   39 1
    38   18   19 1
    39   19   20 3
    40   21   40 1
    41   21   41 1
@<TRIPOS>MOLECULE
ZINC62844130
   49    50     0     0     0
SMALL
USER_CHARGES

@<TRIPOS>ATOM
      1 C1         -0.0187    1.5258    0.0104 C.3       1 <0>        -0.1507
      2 C2          0.0021   -0.0041    0.0020 C.3       1 <0>        -0.0982
      3 H1          0.5123   -0.3556   -0.8948 H         1 <0>         0.0783
      4 C3         -1.4333   -0.5336    0.0129 C.3       1 <0>        -0.1133
      5 C4         -1.4126   -2.0635    0.0045 C.3       1 <0>        -0.1245
      6 C5         -0.6726   -2.5703    1.2440 C.3       1 <0>        -0.1188
      7 C6          0.7628   -2.0407    1.2331 C.3       1 <0>        -0.1294
      8 C7          0.7421   -0.5109    1.2415 C.3       1 <0>         0.1479
      9 H2          0.2319   -0.1594    2.1383 H         1 <0>         0.0966
     10 N1          2.1165   -0.0038    1.2311 N.am      1 <0>        -0.7031
     11 C8          2.7950    0.1277    2.3882 C.2       1 <0>         0.5008
     12 O1          2.2678   -0.1736    3.4380 O.2       1 <0>        -0.5188
     13 C9          4.2088    0.6494    2.3775 C.3       1 <0>        -0.0318
     14 N2          4.7231    0.6982    3.7527 N.4       1 <0>        -0.3663
     15 C10         3.9469    1.6721    4.5295 C.3       1 <0>        -0.0190
     16 C11         4.4251    1.6683    5.9830 C.3       1 <0>        -0.1090
     17 C12         5.9091    2.0440    6.0274 C.3       1 <0>        -0.1458
     18 C13         6.6996    1.0657    5.1537 C.3       1 <0>        -0.1134
     19 C14         6.1370    1.0918    3.7309 C.3       1 <0>        -0.0089
     20 C15         6.0926    3.4672    5.4966 C.3       1 <0>        -0.1307
     21 C16         6.4064    1.9662    7.4478 C.2       1 <0>         0.5025
     22 O2          7.5711    1.6832    7.6713 O.co2     1 <0>        -0.6828
     23 O3          5.6440    2.1862    8.3735 O.co2     1 <0>        -0.6807
     24 H3          1.0039    1.9031    0.0027 H         1 <0>         0.0524
     25 H4         -0.5459    1.8868   -0.8726 H         1 <0>         0.0629
     26 H5         -0.5289    1.8773    0.9072 H         1 <0>         0.0586
     27 H6         -1.9435   -0.1821    0.9097 H         1 <0>         0.0678
     28 H7         -1.9605   -0.1726   -0.8702 H         1 <0>         0.0719
     29 H8         -2.4352   -2.4408    0.0122 H         1 <0>         0.0686
     30 H9         -0.9024   -2.4150   -0.8923 H         1 <0>         0.0641
     31 H10        -1.1828   -2.2188    2.1408 H         1 <0>         0.0668
     32 H11        -0.6578   -3.6602    1.2380 H         1 <0>         0.0693
     33 H12         1.2900   -2.4018    2.1162 H         1 <0>         0.0683
     34 H13         1.2730   -2.3923    0.3363 H         1 <0>         0.0664
     35 H14         2.5382    0.2372    0.3915 H         1 <0>         0.4073
     36 H15         4.8354   -0.0115    1.7785 H         1 <0>         0.1552
     37 H16         4.2232    1.6513    1.9484 H         1 <0>         0.1544
     38 H17         4.0837    2.6667    4.1050 H         1 <0>         0.1194
     39 H18         2.8906    1.4052    4.4943 H         1 <0>         0.1383
     40 H19         3.8488    2.3933    6.5577 H         1 <0>         0.1120
     41 H20         4.2885    0.6741    6.4086 H         1 <0>         0.0802
     42 H21         7.7489    1.3600    5.1357 H         1 <0>         0.1150
     43 H22         6.6101    0.0590    5.5621 H         1 <0>         0.0806
     44 H23         6.6977    0.3965    3.1062 H         1 <0>         0.1234
     45 H24         6.2272    2.0988    3.3235 H         1 <0>         0.1262
     46 H25         5.5239    4.1617    6.1149 H         1 <0>         0.0639
     47 H26         7.1491    3.7335    5.5286 H         1 <0>         0.0639
     48 H27         5.7355    3.5202    4.4681 H         1 <0>         0.0359
     49 H28         4.6353   -0.2134    4.1761 H         1 <0>         0.4265
@<TRIPOS>BOND
     1    1    2 1
     2    1   24 1
     3    1   25 1
     4    1   26 1
     5    2    3 1
     6    2    8 1
     7    2    4 1
     8    4    5 1
     9    4   27 1
    10    4   28 1
    11    5    6 1
    12    5   29 1
    13    5   30 1
    14    6    7 1
    15    6   31 1
    16    6   32 1
    17    7    8 1
    18    7   33 1
    19    7   34 1
    20    8    9 1
    21    8   10 1
    22   10   11 am
    23   10   35 1
    24   11   12 2
    25   11   13 1
    26   13   14 1
    27   13   36 1
    28   13   37 1
    29   14   19 1
    30   14   15 1
    31   14   49 1
    32   15   16 1
    33   15   38 1
    34   15   39 1
    35   16   17 1
    36   16   40 1
    37   16   41 1
    38   17   18 1
    39   17   20 1
    40   17   21 1
    41   18   19 1
    42   18   42 1
    43   18   43 1
    44   19   44 1
    45   19   45 1
    46   20   46 1
    47   20   47 1
    48   20   48 1
    49   21   22 2
    50   21   23 1
@<TRIPOS>MOLECULE
ZINC21513694
   41    43     0     0     0
SMALL
USER_CHARGES
2-methoxy-5-(6,7,8,9-tetrahydro-5H-[1,2,4]triazolo[4,5-a]azepin-3-ylsulfanylmethyl)aniline
@<TRIPOS>ATOM
      1 C1          2.9202   -6.4824    1.2294 C.3       1 <0>         0.0278
      2 O1          2.7935   -5.8416   -0.0416 O.3       1 <0>        -0.3225
      3 C2          2.5506   -4.5034   -0.0369 C.ar      1 <0>         0.0539
      4 C3          2.4373   -3.8226    1.1639 C.ar      1 <0>        -0.1593
      5 C4          2.1960   -2.4610    1.1671 C.ar      1 <0>        -0.1236
      6 C5          2.0567   -1.7770   -0.0262 C.ar      1 <0>        -0.0670
      7 C6          2.1684   -2.4490   -1.2290 C.ar      1 <0>        -0.1566
      8 C7          2.4157   -3.8140   -1.2400 C.ar      1 <0>         0.2096
      9 N1          2.5288   -4.4968   -2.4565 N.pl3     1 <0>        -0.8946
     10 C8          1.7886   -0.2941   -0.0158 C.3       1 <0>        -0.0545
     11 S1          0.0021   -0.0041    0.0020 S.3       1 <0>         0.0041
     12 C9         -0.0218    1.7577    0.0117 C.2       1 <0>         0.1508
     13 N2          1.0231    2.5557    0.0060 N.2       1 <0>        -0.2935
     14 N3          0.6365    3.7833    0.0099 N.2       1 <0>        -0.2843
     15 C10        -0.6625    3.8391    0.0141 C.2       1 <0>         0.1897
     16 N4         -1.1255    2.5541    0.0205 N.pl3     1 <0>        -0.4579
     17 C11        -2.5262    2.1335    0.0469 C.3       1 <0>         0.1016
     18 C12        -3.3898    3.2087   -0.6193 C.3       1 <0>        -0.1404
     19 C13        -3.8354    4.2322    0.4235 C.3       1 <0>        -0.1263
     20 C14        -2.6288    4.9323    1.0404 C.3       1 <0>        -0.1259
     21 C15        -1.5234    5.0758   -0.0031 C.3       1 <0>        -0.0382
     22 H1          3.1137   -7.5551    1.0815 H         1 <0>         0.1001
     23 H2          1.9885   -6.3531    1.7997 H         1 <0>         0.0549
     24 H3          3.7559   -6.0322    1.7853 H         1 <0>         0.0551
     25 H4          2.5418   -4.3546    2.0980 H         1 <0>         0.1295
     26 H5          2.1120   -1.9312    2.1045 H         1 <0>         0.1246
     27 H6          2.0636   -1.9115   -2.1598 H         1 <0>         0.1291
     28 H7          2.4220   -3.9510   -3.4056 H         1 <0>         0.4166
     29 H8          2.7245   -5.5792   -2.4635 H         1 <0>         0.4233
     30 H9          2.2418    0.1541    0.8807 H         1 <0>         0.1069
     31 H10         2.2255    0.1638   -0.9155 H         1 <0>         0.1057
     32 H11        -2.6343    1.1842   -0.4982 H         1 <0>         0.0987
     33 H12        -2.8483    1.9962    1.0897 H         1 <0>         0.0934
     34 H13        -2.8054    3.7161   -1.4010 H         1 <0>         0.0823
     35 H14        -4.2762    2.7393   -1.0708 H         1 <0>         0.0921
     36 H15        -4.4784    4.9861   -0.0541 H         1 <0>         0.0761
     37 H16        -4.3972    3.7230    1.2204 H         1 <0>         0.0716
     38 H17        -2.9257    5.9304    1.3948 H         1 <0>         0.0835
     39 H18        -2.2540    4.3389    1.8874 H         1 <0>         0.0652
     40 H19        -0.9061    5.9555    0.2315 H         1 <0>         0.1034
     41 H20        -1.9708    5.1973   -1.0006 H         1 <0>         0.0949
@<TRIPOS>BOND
     1    1    2 1
     2    1   22 1
     3    1   23 1
     4    1   24 1
     5    2    3 1
     6    3    8 ar
     7    3    4 ar
     8    4    5 ar
     9    4   25 1
    10    5    6 ar
    11    5   26 1
    12    6    7 ar
    13    6   10 1
    14    7    8 ar
    15    7   27 1
    16    8    9 1
    17    9   28 1
    18    9   29 1
    19   10   11 1
    20   10   30 1
    21   10   31 1
    22   11   12 1
    23   12   16 1
    24   12   13 2
    25   13   14 1
    26   14   15 2
    27   15   21 1
    28   15   16 1
    29   16   17 1
    30   17   18 1
    31   17   32 1
    32   17   33 1
    33   18   19 1
    34   18   34 1
    35   18   35 1
    36   19   20 1
    37   19   36 1
    38   19   37 1
    39   20   21 1
    40   20   38 1
    41   20   39 1
    42   21   40 1
    43   21   41 1
@<TRIPOS>MOLECULE
ZINC02642968
   35    37     0     0     0
SMALL
USER_CHARGES

@<TRIPOS>ATOM
      1 C1         -0.0166    1.3735    0.0096 C.ar      1 <0>        -0.0433
      2 C2          1.1690    2.0971    0.0022 C.ar      1 <0>        -0.1002
      3 C3          2.3829    1.4333   -0.0129 C.ar      1 <0>        -0.0869
      4 C4          2.4124    0.0219   -0.0208 C.ar      1 <0>        -0.2515
      5 C5          1.2168   -0.6939   -0.0128 C.ar      1 <0>         0.2981
      6 C6          0.0021   -0.0041    0.0020 C.ar      1 <0>        -0.1737
      7 N1          1.2326   -2.0809   -0.0209 N.pl3     1 <0>        -0.8531
      8 C7          3.8364   -0.3526   -0.0363 C.2       1 <0>         0.5862
      9 O1          4.2703   -1.4876   -0.0469 O.2       1 <0>        -0.4854
     10 N2          4.5771    0.7702   -0.0374 N.am      1 <0>        -0.5761
     11 C8          3.7960    1.8655   -0.0241 C.2       1 <0>         0.5756
     12 O2          4.1864    3.0157   -0.0213 O.2       1 <0>        -0.4475
     13 C9          6.0418    0.7969   -0.0512 C.3       1 <0>         0.1154
     14 C10         6.5380    0.8139   -1.4984 C.3       1 <0>         0.0377
     15 O3          6.1318    2.0312   -2.1270 O.3       1 <0>        -0.3018
     16 C11         6.4947    2.2064   -3.4253 C.ar      1 <0>         0.1213
     17 C12         7.2216    1.2241   -4.0815 C.ar      1 <0>        -0.1823
     18 C13         7.5898    1.4035   -5.4009 C.ar      1 <0>        -0.1122
     19 C14         7.2339    2.5633   -6.0681 C.ar      1 <0>         0.0597
     20 C15         6.5087    3.5448   -5.4142 C.ar      1 <0>        -0.1119
     21 C16         6.1335    3.3652   -4.0968 C.ar      1 <0>        -0.1201
     22 F1          7.5950    2.7376   -7.3582 F         1 <0>        -0.1400
     23 H1         -0.9619    1.8957    0.0259 H         1 <0>         0.1434
     24 H2          1.1434    3.1768    0.0078 H         1 <0>         0.1401
     25 H3         -0.9276   -0.5537    0.0079 H         1 <0>         0.1406
     26 H4          2.0781   -2.5562   -0.0321 H         1 <0>         0.4126
     27 H5          0.3982   -2.5755   -0.0153 H         1 <0>         0.4056
     28 H6          6.3938    1.6906    0.4641 H         1 <0>         0.1101
     29 H7          6.4261   -0.0891    0.4543 H         1 <0>         0.1201
     30 H8          7.6257    0.7441   -1.5105 H         1 <0>         0.0863
     31 H9          6.1136   -0.0328   -2.0380 H         1 <0>         0.0713
     32 H10         7.4999    0.3196   -3.5612 H         1 <0>         0.1369
     33 H11         8.1558    0.6388   -5.9121 H         1 <0>         0.1387
     34 H12         6.2321    4.4492   -5.9356 H         1 <0>         0.1437
     35 H13         5.5637    4.1288   -3.5884 H         1 <0>         0.1427
@<TRIPOS>BOND
     1    1    6 ar
     2    1    2 ar
     3    1   23 1
     4    2    3 ar
     5    2   24 1
     6    3   11 1
     7    3    4 ar
     8    4    5 ar
     9    4    8 1
    10    5    6 ar
    11    5    7 1
    12    6   25 1
    13    7   26 1
    14    7   27 1
    15    8    9 2
    16    8   10 am
    17   10   11 am
    18   10   13 1
    19   11   12 2
    20   13   14 1
    21   13   28 1
    22   13   29 1
    23   14   15 1
    24   14   30 1
    25   14   31 1
    26   15   16 1
    27   16   21 ar
    28   16   17 ar
    29   17   18 ar
    30   17   32 1
    31   18   19 ar
    32   18   33 1
    33   19   20 ar
    34   19   22 1
    35   20   21 ar
    36   20   34 1
    37   21   35 1
@<TRIPOS>MOLECULE
ZINC48889688
   37    37     0     0     0
SMALL
USER_CHARGES

@<TRIPOS>ATOM
      1 C1         -0.0257    1.5193   -0.1333 C.3       1 <0>        -0.1488
      2 C2         -0.0041   -0.0070   -0.0295 C.3       1 <0>         0.1835
      3 C3          0.6315   -0.4189    1.2999 C.3       1 <0>        -0.1713
      4 C4         -1.4140   -0.5351   -0.0971 C.2       1 <0>         0.5187
      5 O1         -2.3523    0.2286   -0.0120 O.2       1 <0>        -0.5106
      6 N1         -1.6321   -1.8560   -0.2521 N.am      1 <0>        -0.6108
      7 C5         -0.5064   -2.7930   -0.2205 C.3       1 <0>         0.0501
      8 C6         -2.9950   -2.3549   -0.4523 C.3       1 <0>         0.1950
      9 C7         -3.3068   -2.3866   -1.9263 C.2       1 <0>        -0.1649
     10 C8         -3.1198   -3.3910   -2.8164 C.2       1 <0>        -0.1366
     11 C9         -3.4845   -3.1948   -4.1357 C.2       1 <0>        -0.1436
     12 C10        -4.0188   -2.0021   -4.4991 C.2       1 <0>        -0.1234
     13 S1         -4.0257   -1.1135   -2.9507 S.3       1 <0>         0.1213
     14 Cl1        -4.5615   -1.4782   -6.0627 Cl        1 <0>         0.0176
     15 N2          0.7784   -0.5608   -1.1372 N.am      1 <0>        -0.7388
     16 C11         2.0927   -0.2806   -1.2401 C.2       1 <0>         0.7063
     17 O2          2.6289    0.4318   -0.4135 O.2       1 <0>        -0.5749
     18 N3          2.8126   -0.7901   -2.2592 N.am      1 <0>        -0.7494
     19 C12         4.2412   -0.4855   -2.3710 C.3       1 <0>         0.1056
     20 H1          0.9940    1.9012   -0.0844 H         1 <0>         0.0850
     21 H2         -0.4786    1.8127   -1.0803 H         1 <0>         0.0598
     22 H3         -0.6079    1.9313    0.6909 H         1 <0>         0.0746
     23 H4          0.0493   -0.0068    2.1241 H         1 <0>         0.0701
     24 H5          0.6469   -1.5063    1.3739 H         1 <0>         0.0638
     25 H6          1.6512   -0.0369    1.3488 H         1 <0>         0.1000
     26 H7         -0.2843   -3.0593    0.8129 H         1 <0>         0.0654
     27 H8         -0.7661   -3.6920   -0.7796 H         1 <0>         0.0758
     28 H9          0.3687   -2.3249   -0.6712 H         1 <0>         0.0918
     29 H10        -3.0775   -3.3612   -0.0416 H         1 <0>         0.1081
     30 H11        -3.7008   -1.6967    0.0544 H         1 <0>         0.1051
     31 H12        -2.6918   -4.3308   -2.5002 H         1 <0>         0.1408
     32 H13        -3.3458   -3.9788   -4.8655 H         1 <0>         0.1419
     33 H14         0.3506   -1.1292   -1.7967 H         1 <0>         0.3986
     34 H15         2.3848   -1.3585   -2.9187 H         1 <0>         0.3972
     35 H16         4.3767    0.5919   -2.4657 H         1 <0>         0.0600
     36 H17         4.7591   -0.8399   -1.4798 H         1 <0>         0.0604
     37 H18         4.6508   -0.9819   -3.2508 H         1 <0>         0.0764
@<TRIPOS>BOND
     1    1    2 1
     2    1   20 1
     3    1   21 1
     4    1   22 1
     5    2    3 1
     6    2    4 1
     7    2   15 1
     8    3   23 1
     9    3   24 1
    10    3   25 1
    11    4    5 2
    12    4    6 am
    13    6    7 1
    14    6    8 1
    15    7   26 1
    16    7   27 1
    17    7   28 1
    18    8    9 1
    19    8   29 1
    20    8   30 1
    21    9   13 1
    22    9   10 2
    23   10   11 1
    24   10   31 1
    25   11   12 2
    26   11   32 1
    27   12   13 1
    28   12   14 1
    29   15   16 am
    30   15   33 1
    31   16   17 2
    32   16   18 am
    33   18   19 1
    34   18   34 1
    35   19   35 1
    36   19   36 1
    37   19   37 1
@<TRIPOS>MOLECULE
ZINC56879024
   36    38     0     0     0
SMALL
USER_CHARGES

@<TRIPOS>ATOM
      1 C1          0.4636    1.3826    1.7525 C.ar      1 <0>        -0.0758
      2 C2          1.4983    2.0606    1.1242 C.ar      1 <0>        -0.1635
      3 C3          2.5197    1.3406    0.5271 C.ar      1 <0>         0.1034
      4 N1          2.5214    0.0251    0.5476 N.ar      1 <0>        -0.4734
      5 C4          1.5499   -0.6637    1.1384 C.ar      1 <0>         0.1331
      6 C5          0.4890   -0.0014    1.7605 C.ar      1 <0>        -0.1452
      7 C6          1.5925   -2.1368    1.1369 C.2       1 <0>        -0.0205
      8 C7          2.6131   -2.7803    0.5386 C.2       1 <0>        -0.1758
      9 C8          2.6555   -4.2459    0.5372 C.2       1 <0>         0.5479
     10 O1          1.7686   -4.8807    1.0766 O.2       1 <0>        -0.5204
     11 N2          3.6768   -4.8899   -0.0616 N.am      1 <0>        -0.6689
     12 C9          3.7689   -6.2827    0.0198 C.ar      1 <0>         0.1505
     13 C10         2.6144   -7.0572    0.0148 C.ar      1 <0>        -0.1100
     14 C11         2.7005   -8.4341    0.0951 C.ar      1 <0>        -0.0954
     15 C12         3.9334   -9.0493    0.1803 C.ar      1 <0>        -0.1025
     16 C13         5.0979   -8.2807    0.1855 C.ar      1 <0>        -0.0156
     17 C14         5.0116   -6.8920    0.0997 C.ar      1 <0>        -0.1362
     18 C15         6.4206   -8.9380    0.2772 C.2       1 <0>         0.1271
     19 C16         6.6530  -10.2820    0.3566 C.2       1 <0>        -0.2501
     20 C17         8.0329  -10.4740    0.4259 C.2       1 <0>         0.0502
     21 N3          8.6194   -9.3043    0.3908 N.2       1 <0>        -0.2848
     22 N4          7.6327   -8.3150    0.2921 N.pl3     1 <0>        -0.4746
     23 H1          7.7847   -7.3581    0.2449 H         1 <0>         0.4370
     24 H2         -0.3413    1.9227    2.2287 H         1 <0>         0.1402
     25 H3          1.5069    3.1403    1.1006 H         1 <0>         0.1394
     26 H4          3.3260    1.8664    0.0375 H         1 <0>         0.1612
     27 H5         -0.3000   -0.5611    2.2407 H         1 <0>         0.1416
     28 H6          0.8053   -2.7003    1.6157 H         1 <0>         0.1467
     29 H7          3.4003   -2.2168    0.0598 H         1 <0>         0.1449
     30 H8          4.3481   -4.3871   -0.5491 H         1 <0>         0.4146
     31 H9          1.6472   -6.5813   -0.0516 H         1 <0>         0.1437
     32 H10         1.8003   -9.0308    0.0916 H         1 <0>         0.1350
     33 H11         3.9966  -10.1256    0.2432 H         1 <0>         0.1336
     34 H12         5.9099   -6.2924    0.0992 H         1 <0>         0.1224
     35 H13         5.9017  -11.0579    0.3643 H         1 <0>         0.1527
     36 H14         8.5337  -11.4282    0.4968 H         1 <0>         0.1875
@<TRIPOS>BOND
     1    1    6 ar
     2    1    2 ar
     3    1   24 1
     4    2    3 ar
     5    2   25 1
     6    3    4 ar
     7    3   26 1
     8    4    5 ar
     9    5    6 ar
    10    5    7 1
    11    6   27 1
    12    7    8 2
    13    7   28 1
    14    8    9 1
    15    8   29 1
    16    9   10 2
    17    9   11 am
    18   11   12 1
    19   11   30 1
    20   12   17 ar
    21   12   13 ar
    22   13   14 ar
    23   13   31 1
    24   14   15 ar
    25   14   32 1
    26   15   16 ar
    27   15   33 1
    28   16   17 ar
    29   16   18 1
    30   17   34 1
    31   18   22 1
    32   18   19 2
    33   19   20 1
    34   19   35 1
    35   20   21 2
    36   20   36 1
    37   21   22 1
    38   22   23 1
@<TRIPOS>MOLECULE
ZINC64034378
   38    39     0     0     0
SMALL
USER_CHARGES

@<TRIPOS>ATOM
      1 C1          1.9679    1.2533   -0.0698 C.3       1 <0>        -0.1207
      2 C2          1.6879   -0.2269   -0.1090 C.ar      1 <0>        -0.0587
      3 C3          0.8037   -0.7850    0.7973 C.ar      1 <0>        -0.1260
      4 C4          0.5431   -2.1393    0.7667 C.ar      1 <0>        -0.0790
      5 C5          1.1730   -2.9467   -0.1813 C.ar      1 <0>        -0.0279
      6 C6          2.0630   -2.3779   -1.0925 C.ar      1 <0>        -0.0316
      7 C7          2.3115   -1.0210   -1.0545 C.ar      1 <0>        -0.1237
      8 C8          2.7476   -3.2424   -2.1196 C.3       1 <0>        -0.1155
      9 C9          0.8985   -4.3997   -0.2194 C.2       1 <0>         0.1113
     10 N1          0.6119   -5.1664   -1.2557 N.2       1 <0>        -0.4424
     11 C10         0.4017   -6.4586   -1.0469 C.2       1 <0>        -0.0139
     12 C11         0.4887   -6.9497    0.2289 C.2       1 <0>        -0.1955
     13 S1          0.8757   -5.5763    1.1216 S.3       1 <0>         0.1680
     14 C12         0.0784   -7.3539   -2.1713 C.2       1 <0>         0.5970
     15 O1          0.0030   -8.5543   -1.9905 O.2       1 <0>        -0.5341
     16 N2         -0.1337   -6.8427   -3.4002 N.am      1 <0>        -0.5857
     17 C13        -0.1655   -5.3910   -3.5942 C.3       1 <0>         0.0936
     18 C14        -0.3323   -7.7389   -4.5420 C.3       1 <0>         0.0958
     19 C15        -1.8004   -8.0446   -4.6912 C.2       1 <0>         0.4995
     20 O2         -2.6019   -7.5614   -3.9197 O.2       1 <0>        -0.5310
     21 N3         -2.2228   -8.8549   -5.6819 N.am      1 <0>        -0.8550
     22 H1          1.2575    1.7746   -0.7115 H         1 <0>         0.0755
     23 H2          1.8667    1.6153    0.9534 H         1 <0>         0.0702
     24 H3          2.9819    1.4407   -0.4229 H         1 <0>         0.0698
     25 H4          0.3168   -0.1590    1.5305 H         1 <0>         0.1308
     26 H5         -0.1467   -2.5739    1.4750 H         1 <0>         0.1288
     27 H6          2.9975   -0.5787   -1.7618 H         1 <0>         0.1303
     28 H7          2.1672   -3.2394   -3.0421 H         1 <0>         0.0793
     29 H8          3.7456   -2.8510   -2.3169 H         1 <0>         0.0683
     30 H9          2.8253   -4.2622   -1.7425 H         1 <0>         0.0667
     31 H10         0.3490   -7.9634    0.5742 H         1 <0>         0.2084
     32 H11         0.8499   -5.0210   -3.7359 H         1 <0>         0.0615
     33 H12        -0.7643   -5.1551   -4.4740 H         1 <0>         0.0582
     34 H13        -0.6060   -4.9168   -2.7172 H         1 <0>         0.0948
     35 H14         0.0327   -7.2577   -5.4493 H         1 <0>         0.1125
     36 H15         0.2168   -8.6658   -4.3762 H         1 <0>         0.1151
     37 H16        -1.5818   -9.2413   -6.2989 H         1 <0>         0.4021
     38 H17        -3.1677   -9.0516   -5.7779 H         1 <0>         0.4031
@<TRIPOS>BOND
     1    1    2 1
     2    1   22 1
     3    1   23 1
     4    1   24 1
     5    2    7 ar
     6    2    3 ar
     7    3    4 ar
     8    3   25 1
     9    4    5 ar
    10    4   26 1
    11    5    6 ar
    12    5    9 1
    13    6    7 ar
    14    6    8 1
    15    7   27 1
    16    8   28 1
    17    8   29 1
    18    8   30 1
    19    9   13 1
    20    9   10 2
    21   10   11 1
    22   11   12 2
    23   11   14 1
    24   12   13 1
    25   12   31 1
    26   14   15 2
    27   14   16 am
    28   16   17 1
    29   16   18 1
    30   17   32 1
    31   17   33 1
    32   17   34 1
    33   18   19 1
    34   18   35 1
    35   18   36 1
    36   19   20 2
    37   19   21 am
    38   21   37 1
    39   21   38 1
@<TRIPOS>MOLECULE
ZINC08231179
   32    33     0     0     0
SMALL
USER_CHARGES
ethyl 4-(chloromethyl)-2-oxo-6-(2-thienyl)-3,6-dihydro-1H-pyrimidine-5-carboxylate
@<TRIPOS>ATOM
      1 C1         -1.7092   -0.7947   -2.7864 C.3       1 <0>        -0.1517
      2 C2         -1.5340   -0.1560   -1.4072 C.3       1 <0>         0.0588
      3 O1         -0.3034    0.5695   -1.3711 O.3       1 <0>        -0.3325
      4 C3          0.0042    1.1971   -0.2168 C.2       1 <0>         0.5414
      5 O2         -0.7533    1.1294    0.7331 O.2       1 <0>        -0.4885
      6 C4          1.2099    1.9289   -0.1091 C.2       1 <0>        -0.2310
      7 C5          2.3909    1.3039    0.0870 C.2       1 <0>         0.1963
      8 N1          3.5542    2.0115    0.1903 N.am      1 <0>        -0.6438
      9 C6          3.6212    3.3463    0.1084 C.2       1 <0>         0.7114
     10 O3          4.7043    3.8882    0.2129 O.2       1 <0>        -0.5533
     11 N2          2.5270    4.1087   -0.0858 N.am      1 <0>        -0.7095
     12 C7          1.2212    3.4404   -0.2162 C.3       1 <0>         0.2918
     13 H1          0.5654    3.8370    0.5588 H         1 <0>         0.1101
     14 C8          0.6335    3.8158   -1.5521 C.2       1 <0>        -0.1873
     15 C9         -0.6211    4.2374   -1.8446 C.2       1 <0>        -0.1327
     16 C10        -0.9403    4.5324   -3.1567 C.2       1 <0>        -0.1602
     17 C11         0.0077    4.3812   -4.1138 C.2       1 <0>        -0.1657
     18 S1          1.4067    3.8133   -3.1612 S.3       1 <0>         0.0734
     19 C12         2.4255   -0.1990    0.1930 C.3       1 <0>        -0.0223
     20 Cl1         2.7930   -0.9073   -1.4238 Cl        1 <0>        -0.1277
     21 H2         -1.7243   -0.0155   -3.5484 H         1 <0>         0.0668
     22 H3         -0.8802   -1.4757   -2.9794 H         1 <0>         0.0682
     23 H4         -2.6479   -1.3481   -2.8139 H         1 <0>         0.0802
     24 H5         -1.5189   -0.9352   -0.6451 H         1 <0>         0.0690
     25 H6         -2.3630    0.5250   -1.2142 H         1 <0>         0.0689
     26 H7          4.3784    1.5196    0.3306 H         1 <0>         0.4313
     27 H8          2.5983    5.0744   -0.1421 H         1 <0>         0.4379
     28 H9         -1.3595    4.3440   -1.0636 H         1 <0>         0.1331
     29 H10        -1.9313    4.8746   -3.4161 H         1 <0>         0.1358
     30 H11        -0.0646    4.5587   -5.1766 H         1 <0>         0.1871
     31 H12         3.1972   -0.4954    0.9034 H         1 <0>         0.1246
     32 H13         1.4567   -0.5614    0.5368 H         1 <0>         0.1203
@<TRIPOS>BOND
     1    1    2 1
     2    1   21 1
     3    1   22 1
     4    1   23 1
     5    2    3 1
     6    2   24 1
     7    2   25 1
     8    3    4 1
     9    4    5 2
    10    4    6 1
    11    6   12 1
    12    6    7 2
    13    7    8 1
    14    7   19 1
    15    8    9 am
    16    8   26 1
    17    9   10 2
    18    9   11 am
    19   11   12 1
    20   11   27 1
    21   12   13 1
    22   12   14 1
    23   14   18 1
    24   14   15 2
    25   15   16 1
    26   15   28 1
    27   16   17 2
    28   16   29 1
    29   17   18 1
    30   17   30 1
    31   19   20 1
    32   19   31 1
    33   19   32 1
@<TRIPOS>MOLECULE
ZINC32228527
   45    46     0     0     0
SMALL
USER_CHARGES
O-[[1-(4-isopropylphenyl)sulfonyl-4-piperidyl]methyl]hydroxylamine
@<TRIPOS>ATOM
      1 C1          1.9445   -2.6800   -1.2792 C.3       1 <0>        -0.1481
      2 C2          1.2289   -2.1857   -0.0205 C.3       1 <0>        -0.0666
      3 C3          1.9694   -2.6917    1.2191 C.3       1 <0>        -0.1469
      4 C4          1.2084   -0.6789   -0.0132 C.ar      1 <0>        -0.0193
      5 C5          0.0021   -0.0041    0.0020 C.ar      1 <0>        -0.1392
      6 C6         -0.0167    1.3781    0.0096 C.ar      1 <0>        -0.0167
      7 C7          1.1709    2.0855    0.0021 C.ar      1 <0>        -0.6823
      8 C8          2.3773    1.4107   -0.0145 C.ar      1 <0>        -0.0180
      9 C9          2.3961    0.0285   -0.0212 C.ar      1 <0>        -0.1364
     10 S1          1.1470    3.8473    0.0112 S.o2      1 <0>         2.6899
     11 O1          2.3816    4.2732   -0.5490 O.2       1 <0>        -0.9547
     12 O2         -0.1088    4.2393   -0.5259 O.2       1 <0>        -0.9538
     13 N1          1.1552    4.3289    1.5957 N.pl3     1 <0>        -0.9971
     14 C10        -0.1052    4.5353    2.3219 C.3       1 <0>         0.1152
     15 C11        -0.1042    5.9356    2.9323 C.3       1 <0>        -0.1248
     16 C12         1.1515    6.1156    3.7884 C.3       1 <0>        -0.0813
     17 C13         2.3956    5.9691    2.9092 C.3       1 <0>        -0.1258
     18 C14         2.4230    4.5638    2.3001 C.3       1 <0>         0.1176
     19 C15         1.1388    7.5064    4.4259 C.3       1 <0>         0.0661
     20 O3          0.0416    7.6029    5.3365 O.3       1 <0>        -0.2542
     21 N2         -0.0643    8.8998    6.0052 N.3       1 <0>        -0.6547
     22 H1          1.4121   -2.3162   -2.1704 H         1 <0>         0.0586
     23 H2          1.9594   -3.7799   -1.2845 H         1 <0>         0.0642
     24 H3          2.9765   -2.2993   -1.2877 H         1 <0>         0.0599
     25 H4          0.1916   -2.5517   -0.0120 H         1 <0>         0.0838
     26 H5          1.4549   -2.3363    2.1241 H         1 <0>         0.0578
     27 H6          3.0014   -2.3110    1.2106 H         1 <0>         0.0596
     28 H7          1.9843   -3.7916    1.2138 H         1 <0>         0.0640
     29 H8         -0.9258   -0.5567    0.0083 H         1 <0>         0.1326
     30 H9         -0.9592    1.9054    0.0170 H         1 <0>         0.1394
     31 H10         3.3052    1.9634   -0.0205 H         1 <0>         0.1389
     32 H11         3.3386   -0.4987   -0.0324 H         1 <0>         0.1322
     33 H12        -0.9505    4.4351    1.6251 H         1 <0>         0.0961
     34 H13        -0.1963    3.7832    3.1194 H         1 <0>         0.0713
     35 H14        -0.1114    6.6861    2.1281 H         1 <0>         0.0711
     36 H15        -0.9984    6.0625    3.5603 H         1 <0>         0.0856
     37 H16         1.1690    5.3500    4.5781 H         1 <0>         0.0812
     38 H17         2.3662    6.7185    2.1045 H         1 <0>         0.0749
     39 H18         3.2969    6.1229    3.5207 H         1 <0>         0.0809
     40 H19         2.5444    3.8145    3.0963 H         1 <0>         0.0726
     41 H20         3.2582    4.4818    1.5890 H         1 <0>         0.0976
     42 H21         2.0814    7.6695    4.9689 H         1 <0>         0.0495
     43 H22         1.0316    8.2689    3.6403 H         1 <0>         0.0584
     44 H23        -0.9290    8.8922    6.6851 H         1 <0>         0.3670
     45 H24         0.8532    9.0915    6.5809 H         1 <0>         0.3339
@<TRIPOS>BOND
     1    1    2 1
     2    1   22 1
     3    1   23 1
     4    1   24 1
     5    2    3 1
     6    2    4 1
     7    2   25 1
     8    3   26 1
     9    3   27 1
    10    3   28 1
    11    4    9 ar
    12    4    5 ar
    13    5    6 ar
    14    5   29 1
    15    6    7 ar
    16    6   30 1
    17    7    8 ar
    18    7   10 1
    19    8    9 ar
    20    8   31 1
    21    9   32 1
    22   10   11 2
    23   10   12 2
    24   10   13 1
    25   13   18 1
    26   13   14 1
    27   14   15 1
    28   14   33 1
    29   14   34 1
    30   15   16 1
    31   15   35 1
    32   15   36 1
    33   16   17 1
    34   16   19 1
    35   16   37 1
    36   17   18 1
    37   17   38 1
    38   17   39 1
    39   18   40 1
    40   18   41 1
    41   19   20 1
    42   19   42 1
    43   19   43 1
    44   20   21 1
    45   21   44 1
    46   21   45 1
@<TRIPOS>MOLECULE
ZINC42757500
   31    32     0     0     0
SMALL
USER_CHARGES

@<TRIPOS>ATOM
      1 C1         -0.0167    1.3782    0.0096 C.ar      1 <0>        -0.1438
      2 C2          1.1700    2.0882    0.0021 C.ar      1 <0>        -0.0705
      3 C3          2.3773    1.4175   -0.0134 C.ar      1 <0>        -0.1929
      4 C4          2.3989    0.0301   -0.0210 C.ar      1 <0>         0.1237
      5 C5          1.2072   -0.6797   -0.0130 C.ar      1 <0>        -0.1294
      6 C6          0.0021   -0.0041    0.0020 C.ar      1 <0>        -0.0647
      7 C7          1.2269   -2.1866   -0.0218 C.3       1 <0>         0.1897
      8 N1          1.4868   -2.6794    1.3332 N.am      1 <0>        -0.7313
      9 C8          1.5494   -4.0051    1.5676 C.2       1 <0>         0.6998
     10 O1          1.3901   -4.7921    0.6546 O.2       1 <0>        -0.5249
     11 N2          1.7885   -4.4585    2.8140 N.am      1 <0>        -0.6312
     12 C9          1.8530   -5.8259    3.0558 C.2       1 <0>         0.2922
     13 N3          1.7131   -6.8148    2.1998 N.2       1 <0>        -0.5221
     14 C10         1.8028   -8.0731    2.5903 C.2       1 <0>         0.0650
     15 C11         2.0442   -8.2942    3.9056 C.2       1 <0>        -0.2473
     16 S1          2.1364   -6.6180    4.5135 S.3       1 <0>         0.1050
     17 O2          3.5855   -0.6321   -0.0368 O.3       1 <0>        -0.3150
     18 C12         4.7724    0.1636   -0.0448 C.3       1 <0>         0.4114
     19 F1          4.7809    0.9771   -1.1829 F         1 <0>        -0.1962
     20 F2          4.8044    0.9650    1.1015 F         1 <0>        -0.1974
     21 H1         -0.9596    1.9045    0.0259 H         1 <0>         0.1317
     22 H2          1.1527    3.1681    0.0080 H         1 <0>         0.1320
     23 H3          3.3038    1.9724   -0.0200 H         1 <0>         0.1360
     24 H4         -0.9260   -0.5563    0.0079 H         1 <0>         0.1371
     25 H5          0.2625   -2.5605   -0.3656 H         1 <0>         0.0816
     26 H6          2.0121   -2.5358   -0.6923 H         1 <0>         0.0826
     27 H7          1.6139   -2.0515    2.0615 H         1 <0>         0.3982
     28 H8          1.9156   -3.8307    3.5424 H         1 <0>         0.4218
     29 H9          1.6886   -8.8896    1.8927 H         1 <0>         0.1761
     30 H10         2.1548   -9.2272    4.4382 H         1 <0>         0.1994
     31 H11         5.6464   -0.4877   -0.0572 H         1 <0>         0.1832
@<TRIPOS>BOND
     1    1    6 ar
     2    1    2 ar
     3    1   21 1
     4    2    3 ar
     5    2   22 1
     6    3    4 ar
     7    3   23 1
     8    4    5 ar
     9    4   17 1
    10    5    6 ar
    11    5    7 1
    12    6   24 1
    13    7    8 1
    14    7   25 1
    15    7   26 1
    16    8    9 am
    17    8   27 1
    18    9   10 2
    19    9   11 am
    20   11   12 1
    21   11   28 1
    22   12   16 1
    23   12   13 2
    24   13   14 1
    25   14   15 2
    26   14   29 1
    27   15   16 1
    28   15   30 1
    29   17   18 1
    30   18   19 1
    31   18   20 1
    32   18   31 1
@<TRIPOS>MOLECULE
ZINC50425847
   38    39     0     0     0
SMALL
USER_CHARGES

@<TRIPOS>ATOM
      1 C1         -0.0187    1.5258    0.0104 C.3       1 <0>        -0.1538
      2 C2          0.0021   -0.0041    0.0020 C.3       1 <0>        -0.1180
      3 C3          0.7421   -0.5109    1.2415 C.3       1 <0>        -0.0895
      4 H1          0.2852   -0.0874    2.1360 H         1 <0>         0.0847
      5 C4          2.2100   -0.0858    1.1685 C.3       1 <0>        -0.1503
      6 C5          0.6554   -2.0374    1.2986 C.3       1 <0>         0.0512
      7 O1          1.2447   -2.5028    2.5144 O.3       1 <0>        -0.2785
      8 C6          1.2498   -3.8451    2.7229 C.ar      1 <0>         0.2338
      9 C7          0.7133   -4.6870    1.7906 C.ar      1 <0>        -0.2516
     10 C8          0.7099   -6.0651    1.9864 C.ar      1 <0>         0.0643
     11 C9          1.2414   -6.6135    3.1143 C.ar      1 <0>        -0.7094
     12 C10         1.8022   -5.7806    4.0958 C.ar      1 <0>         0.0094
     13 C11         1.8145   -4.3776    3.9007 C.ar      1 <0>         0.0893
     14 N1          2.3511   -3.5812    4.8295 N.ar      1 <0>        -0.4372
     15 C12         2.8768   -4.0709    5.9259 C.ar      1 <0>         0.1131
     16 C13         2.9026   -5.4410    6.1779 C.ar      1 <0>        -0.1283
     17 C14         2.3605   -6.3103    5.2747 C.ar      1 <0>        -0.1040
     18 S1          1.2247   -8.3608    3.3409 S.o2      1 <0>         2.7057
     19 O2          0.7178   -8.5960    4.6474 O.2       1 <0>        -0.9590
     20 O3          0.6232   -8.9153    2.1790 O.2       1 <0>        -0.9633
     21 N2          2.8008   -8.8689    3.3462 N.pl3     1 <0>        -1.2507
     22 H2          1.0039    1.9031    0.0027 H         1 <0>         0.0595
     23 H3         -0.5459    1.8868   -0.8726 H         1 <0>         0.0578
     24 H4         -0.5289    1.8773    0.9072 H         1 <0>         0.0562
     25 H5         -1.0205   -0.3814    0.0098 H         1 <0>         0.0654
     26 H6          0.5123   -0.3556   -0.8948 H         1 <0>         0.0664
     27 H7          2.6669   -0.5093    0.2741 H         1 <0>         0.0540
     28 H8          2.2717    1.0017    1.1279 H         1 <0>         0.0624
     29 H9          2.7372   -0.4469    2.0516 H         1 <0>         0.0636
     30 H10        -0.3900   -2.3436    1.2611 H         1 <0>         0.0708
     31 H11         1.1896   -2.4636    0.4495 H         1 <0>         0.0712
     32 H12         0.2849   -4.2771    0.8879 H         1 <0>         0.1481
     33 H13         0.2793   -6.7087    1.2336 H         1 <0>         0.1551
     34 H14         3.3013   -3.3945    6.6530 H         1 <0>         0.1683
     35 H15         3.3428   -5.8146    7.0907 H         1 <0>         0.1492
     36 H16         2.3712   -7.3753    5.4540 H         1 <0>         0.1540
     37 H17         3.5182   -8.2254    3.2355 H         1 <0>         0.4172
     38 H18         3.0067   -9.8099    3.4601 H         1 <0>         0.4229
@<TRIPOS>BOND
     1    1    2 1
     2    1   22 1
     3    1   23 1
     4    1   24 1
     5    2    3 1
     6    2   25 1
     7    2   26 1
     8    3    4 1
     9    3    5 1
    10    3    6 1
    11    5   27 1
    12    5   28 1
    13    5   29 1
    14    6    7 1
    15    6   30 1
    16    6   31 1
    17    7    8 1
    18    8   13 ar
    19    8    9 ar
    20    9   10 ar
    21    9   32 1
    22   10   11 ar
    23   10   33 1
    24   11   12 ar
    25   11   18 1
    26   12   17 ar
    27   12   13 ar
    28   13   14 ar
    29   14   15 ar
    30   15   16 ar
    31   15   34 1
    32   16   17 ar
    33   16   35 1
    34   17   36 1
    35   18   19 2
    36   18   20 2
    37   18   21 1
    38   21   37 1
    39   21   38 1
@<TRIPOS>MOLECULE
ZINC61310827
   37    38     0     0     0
SMALL
USER_CHARGES

@<TRIPOS>ATOM
      1 C1         -0.0230    1.5342    0.0174 C.3       1 <0>        -0.1660
      2 C2         -0.0010    0.0045    0.0016 C.3       1 <0>         0.1647
      3 C3          0.7133   -0.4822   -1.2609 C.3       1 <0>        -0.0455
      4 C4          0.8438   -1.9829   -1.2173 C.2       1 <0>        -0.1410
      5 C5         -0.0077   -2.9277   -1.6860 C.2       1 <0>        -0.1561
      6 C6          0.3219   -4.2616   -1.5346 C.2       1 <0>        -0.1571
      7 C7          1.4868   -4.5854   -0.9219 C.2       1 <0>        -0.1737
      8 S1          2.1635   -2.9776   -0.5419 S.3       1 <0>         0.0395
      9 N1         -1.3749   -0.5038    0.0120 N.am      1 <0>        -0.7317
     10 C8         -2.0291   -0.6541    1.1807 C.2       1 <0>         0.7073
     11 O1         -1.4788   -0.3678    2.2266 O.2       1 <0>        -0.5724
     12 N2         -3.2931   -1.1217    1.1903 N.am      1 <0>        -0.6796
     13 C9         -3.9390   -1.3708    2.4093 C.ar      1 <0>         0.0768
     14 C10        -3.7027   -0.5537    3.5131 C.ar      1 <0>        -0.0397
     15 C11        -4.3626   -0.8368    4.6954 C.ar      1 <0>        -0.1695
     16 C12        -5.2328   -1.9185    4.7431 C.ar      1 <0>         0.3043
     17 N3         -5.4330   -2.6732    3.6763 N.ar      1 <0>        -0.5216
     18 C13        -4.8256   -2.4299    2.5304 C.ar      1 <0>         0.1167
     19 O2         -5.8850   -2.2042    5.8989 O.3       1 <0>        -0.3078
     20 C14        -6.7665   -3.3289    5.8854 C.3       1 <0>         0.0399
     21 H1          0.9992    1.9124    0.0097 H         1 <0>         0.0704
     22 H2         -0.5521    1.8991   -0.8629 H         1 <0>         0.0597
     23 H3         -0.5319    1.8810    0.9168 H         1 <0>         0.0665
     24 H4          0.5281   -0.3604    0.8819 H         1 <0>         0.0947
     25 H5          0.1363   -0.1930   -2.1392 H         1 <0>         0.0938
     26 H6          1.7049   -0.0327   -1.3134 H         1 <0>         0.0997
     27 H7         -0.9300   -2.6426   -2.1702 H         1 <0>         0.1282
     28 H8         -0.3391   -5.0342   -1.8987 H         1 <0>         0.1323
     29 H9          1.9002   -5.5624   -0.7196 H         1 <0>         0.1847
     30 H10        -1.8139   -0.7322   -0.8223 H         1 <0>         0.3965
     31 H11        -3.7558   -1.2859    0.3537 H         1 <0>         0.4080
     32 H12        -3.0202    0.2807    3.4472 H         1 <0>         0.1582
     33 H13        -4.2030   -0.2247    5.5707 H         1 <0>         0.1460
     34 H14        -5.0179   -3.0654    1.6786 H         1 <0>         0.1599
     35 H15        -7.2217   -3.4455    6.8689 H         1 <0>         0.0966
     36 H16        -7.5463   -3.1704    5.1406 H         1 <0>         0.0587
     37 H17        -6.2038   -4.2286    5.6365 H         1 <0>         0.0585
@<TRIPOS>BOND
     1    1    2 1
     2    1   21 1
     3    1   22 1
     4    1   23 1
     5    2    3 1
     6    2    9 1
     7    2   24 1
     8    3    4 1
     9    3   25 1
    10    3   26 1
    11    4    8 1
    12    4    5 2
    13    5    6 1
    14    5   27 1
    15    6    7 2
    16    6   28 1
    17    7    8 1
    18    7   29 1
    19    9   10 am
    20    9   30 1
    21   10   11 2
    22   10   12 am
    23   12   13 1
    24   12   31 1
    25   13   18 ar
    26   13   14 ar
    27   14   15 ar
    28   14   32 1
    29   15   16 ar
    30   15   33 1
    31   16   17 ar
    32   16   19 1
    33   17   18 ar
    34   18   34 1
    35   19   20 1
    36   20   35 1
    37   20   36 1
    38   20   37 1
@<TRIPOS>MOLECULE
ZINC08394537
   42    44     0     0     0
SMALL
USER_CHARGES
2-(3,5-dimethyl-4-nitro-pyrazol-1-yl)-1-(7-ethyl-1H-indol-3-yl)-ethanone
@<TRIPOS>ATOM
      1 C1         -0.0127    1.0858    0.0080 C.3       1 <0>        -0.1486
      2 C2         -0.7288    1.5792    1.2668 C.3       1 <0>        -0.0859
      3 C3          0.0000    1.0800    2.4877 C.ar      1 <0>        -0.0806
      4 C4         -0.4124   -0.0774    3.1119 C.ar      1 <0>        -0.1001
      5 C5          0.2521   -0.5509    4.2334 C.ar      1 <0>        -0.1234
      6 C6          1.3303    0.1388    4.7449 C.ar      1 <0>        -0.0778
      7 C7          1.7537    1.3117    4.1273 C.ar      1 <0>        -0.0514
      8 C8          1.0860    1.7901    2.9889 C.ar      1 <0>         0.0791
      9 N1          1.7135    2.9545    2.5944 N.pl3     1 <0>        -0.5602
     10 H1          1.4504    3.4911    1.8304 H         1 <0>         0.4234
     11 C9          2.7409    3.2437    3.4156 C.2       1 <0>         0.1411
     12 C10         2.8376    2.2776    4.3943 C.2       1 <0>        -0.2774
     13 C11         3.7865    2.2229    5.4455 C.2       1 <0>         0.4058
     14 O1          3.7562    1.3087    6.2437 O.2       1 <0>        -0.4414
     15 C12         4.8332    3.2996    5.5725 C.3       1 <0>         0.0983
     16 N2          5.6864    3.0173    6.7295 N.pl3     1 <0>        -0.3423
     17 C13         6.8207    2.2862    6.7200 C.2       1 <0>         0.1715
     18 C14         7.3077    2.2639    7.9822 C.2       1 <0>        -0.1854
     19 C15         6.4414    3.0068    8.7909 C.2       1 <0>         0.1341
     20 N3          5.4722    3.4635    8.0400 N.2       1 <0>        -0.2580
     21 C16         6.6001    3.2450   10.2705 C.3       1 <0>        -0.0876
     22 N4          8.5397    1.5754    8.4283 N.pl3     1 <0>         0.0505
     23 O2          9.6062    2.1636    8.4113 O.2       1 <0>        -0.1363
     24 O3          8.4871    0.4207    8.8124 O.3       1 <0>        -0.1369
     25 C17         7.4347    1.6144    5.5188 C.3       1 <0>        -0.1128
     26 H2          0.0021   -0.0041    0.0020 H         1 <0>         0.0609
     27 H3          1.0099    1.4631    0.0003 H         1 <0>         0.0502
     28 H4         -0.5399    1.4469   -0.8751 H         1 <0>         0.0612
     29 H5         -0.7436    2.6691    1.2728 H         1 <0>         0.0646
     30 H6         -1.7514    1.2020    1.2746 H         1 <0>         0.0799
     31 H7         -1.2587   -0.6232    2.7215 H         1 <0>         0.1301
     32 H8         -0.0794   -1.4613    4.7104 H         1 <0>         0.1292
     33 H9          1.8442   -0.2294    5.6205 H         1 <0>         0.1319
     34 H10         3.3904    4.1014    3.3215 H         1 <0>         0.1870
     35 H11         5.3920    3.3207    4.7435 H         1 <0>         0.1160
     36 H12         4.3464    4.2655    5.7072 H         1 <0>         0.1383
     37 H13         7.1840    4.1512   10.4320 H         1 <0>         0.0931
     38 H14         5.6172    3.3599   10.7275 H         1 <0>         0.0924
     39 H15         7.1139    2.3964   10.7221 H         1 <0>         0.0816
     40 H16         8.1281    2.3012    5.0333 H         1 <0>         0.1018
     41 H17         7.9714    0.7208    5.8371 H         1 <0>         0.0944
     42 H18         6.6486    1.3355    4.8171 H         1 <0>         0.0895
@<TRIPOS>BOND
     1    1    2 1
     2    1   26 1
     3    1   27 1
     4    1   28 1
     5    2    3 1
     6    2   29 1
     7    2   30 1
     8    3    8 ar
     9    3    4 ar
    10    4    5 ar
    11    4   31 1
    12    5    6 ar
    13    5   32 1
    14    6    7 ar
    15    6   33 1
    16    7   12 1
    17    7    8 ar
    18    8    9 1
    19    9   10 1
    20    9   11 1
    21   11   12 2
    22   11   34 1
    23   12   13 1
    24   13   14 2
    25   13   15 1
    26   15   16 1
    27   15   35 1
    28   15   36 1
    29   16   20 1
    30   16   17 1
    31   17   18 2
    32   17   25 1
    33   18   19 1
    34   18   22 1
    35   19   20 2
    36   19   21 1
    37   21   37 1
    38   21   38 1
    39   21   39 1
    40   22   23 2
    41   22   24 1
    42   25   40 1
    43   25   41 1
    44   25   42 1
@<TRIPOS>MOLECULE
ZINC21920814
   41    43     0     0     0
SMALL
USER_CHARGES
N-[(1R)-1-(4-imidazol-1-ylphenyl)ethyl]-2-nitro-benzamide
@<TRIPOS>ATOM
      1 C1         -4.9776    5.0897    1.4195 C.3       1 <0>        -0.1623
      2 C2         -4.7187    4.6118   -0.0107 C.3       1 <0>         0.1904
      3 H1         -5.5911    4.0753   -0.4120 H         1 <0>         0.1021
      4 C3         -3.5118    3.7094   -0.0280 C.ar      1 <0>        -0.0959
      5 C4         -3.6769    2.3368   -0.0552 C.ar      1 <0>        -0.0763
      6 C5         -2.5726    1.5073   -0.0720 C.ar      1 <0>        -0.1272
      7 C6         -1.2961    2.0528   -0.0612 C.ar      1 <0>         0.1371
      8 C7         -1.1336    3.4310   -0.0277 C.ar      1 <0>        -0.1268
      9 C8         -2.2416    4.2557   -0.0172 C.ar      1 <0>        -0.0876
     10 N1         -0.1731    1.2131   -0.0783 N.pl3     1 <0>        -0.4137
     11 C9          1.1398    1.6079   -0.0761 C.2       1 <0>        -0.0553
     12 C10         1.8844    0.4863   -0.1025 C.2       1 <0>        -0.0190
     13 N2          1.0543   -0.5671   -0.1204 N.2       1 <0>        -0.4830
     14 C11        -0.1806   -0.1449   -0.1062 C.2       1 <0>         0.1901
     15 N3         -4.4757    5.7688   -0.8757 N.am      1 <0>        -0.7280
     16 C12        -5.5143    6.4311   -1.4228 C.2       1 <0>         0.5602
     17 O1         -6.6525    6.0684   -1.1984 O.2       1 <0>        -0.4955
     18 C13        -5.2691    7.5988   -2.2958 C.ar      1 <0>        -0.0659
     19 C14        -4.4385    7.4781   -3.4113 C.ar      1 <0>        -0.0912
     20 C15        -4.2178    8.5702   -4.2244 C.ar      1 <0>        -0.0701
     21 C16        -4.8091    9.7863   -3.9305 C.ar      1 <0>        -0.0990
     22 C17        -5.6290    9.9141   -2.8236 C.ar      1 <0>        -0.0563
     23 C18        -5.8624    8.8281   -2.0050 C.ar      1 <0>        -0.0084
     24 N4         -6.7395    8.9667   -0.8209 N.pl3     1 <0>         0.0194
     25 O2         -7.3502   10.0038   -0.6334 O.2       1 <0>        -0.1645
     26 O3         -6.8507    8.0437   -0.0340 O.3       1 <0>        -0.1192
     27 H2         -5.8585    5.7484    1.4322 H         1 <0>         0.0782
     28 H3         -4.1004    5.6434    1.7855 H         1 <0>         0.0594
     29 H4         -5.1600    4.2209    2.0690 H         1 <0>         0.0701
     30 H5         -4.6702    1.9129   -0.0636 H         1 <0>         0.1387
     31 H6         -2.7021    0.4353   -0.0932 H         1 <0>         0.1359
     32 H7         -0.1417    3.8581   -0.0147 H         1 <0>         0.1334
     33 H8         -2.1157    5.3281    0.0037 H         1 <0>         0.1313
     34 H9          1.5065    2.6236   -0.0572 H         1 <0>         0.1784
     35 H10         2.9635    0.4424   -0.1076 H         1 <0>         0.1763
     36 H11        -1.0609   -0.7705   -0.1154 H         1 <0>         0.2095
     37 H12        -3.4456    6.0970   -1.0787 H         1 <0>         0.4173
     38 H13        -3.9732    6.5306   -3.6395 H         1 <0>         0.1522
     39 H14        -3.5787    8.4771   -5.0900 H         1 <0>         0.1510
     40 H15        -4.6294   10.6395   -4.5678 H         1 <0>         0.1537
     41 H16        -6.0872   10.8660   -2.5995 H         1 <0>         0.1604
@<TRIPOS>BOND
     1    1    2 1
     2    1   27 1
     3    1   28 1
     4    1   29 1
     5    2    3 1
     6    2    4 1
     7    2   15 1
     8    4    9 ar
     9    4    5 ar
    10    5    6 ar
    11    5   30 1
    12    6    7 ar
    13    6   31 1
    14    7    8 ar
    15    7   10 1
    16    8    9 ar
    17    8   32 1
    18    9   33 1
    19   10   14 1
    20   10   11 1
    21   11   12 2
    22   11   34 1
    23   12   13 1
    24   12   35 1
    25   13   14 2
    26   14   36 1
    27   15   16 am
    28   15   37 1
    29   16   17 2
    30   16   18 1
    31   18   23 ar
    32   18   19 ar
    33   19   20 ar
    34   19   38 1
    35   20   21 ar
    36   20   39 1
    37   21   22 ar
    38   21   40 1
    39   22   23 ar
    40   22   41 1
    41   23   24 1
    42   24   25 2
    43   24   26 1
@<TRIPOS>MOLECULE
ZINC40061484
   52    55     0     0     0
SMALL
USER_CHARGES

@<TRIPOS>ATOM
      1 C1         -0.3189    1.6235    0.2935 C.3       1 <0>        -0.1385
      2 C2         -0.1540    0.1103    0.1389 C.3       1 <0>         0.1432
      3 H1          0.2894   -0.1117   -0.8318 H         1 <0>         0.0741
      4 C3         -1.5229   -0.5691    0.2458 C.3       1 <0>        -0.1325
      5 C4         -1.3367   -2.0881    0.2301 C.3       1 <0>        -0.1235
      6 C5         -0.4916   -2.5125    1.4333 C.3       1 <0>        -0.1307
      7 C6          0.8890   -1.8552    1.3399 C.3       1 <0>         0.1294
      8 H2          1.4597   -2.0740    2.2425 H         1 <0>         0.0929
      9 N1          0.7159   -0.4020    1.2065 N.am      1 <0>        -0.5989
     10 C7          1.3401    0.4447    2.0491 C.2       1 <0>         0.5125
     11 O1          1.1154    1.6350    1.9896 O.2       1 <0>        -0.5258
     12 C8          2.3173   -0.0878    3.0654 C.3       1 <0>         0.0986
     13 N2          2.8555    1.0233    3.8541 N.pl3     1 <0>        -0.7258
     14 C9          3.7851    0.7758    4.8633 C.ar      1 <0>         0.2481
     15 C10         4.2050   -0.5258    5.1162 C.ar      1 <0>        -0.2029
     16 C11         5.1236   -0.7732    6.1128 C.ar      1 <0>        -0.0075
     17 C12         5.6332    0.2839    6.8686 C.ar      1 <0>        -0.1068
     18 C13         5.2104    1.5892    6.6123 C.ar      1 <0>        -0.0459
     19 C14         4.2952    1.8315    5.6113 C.ar      1 <0>        -0.1920
     20 C15         6.6190    0.0213    7.9394 C.2       1 <0>         0.3095
     21 N3          6.8635   -1.1396    8.5112 N.2       1 <0>        -0.3328
     22 N4          7.7796   -1.0173    9.4027 N.2       1 <0>        -0.0375
     23 N5          8.1829    0.2051    9.4682 N.2       1 <0>        -0.0889
     24 N6          7.4467    0.9293    8.5142 N.pl3     1 <0>        -0.3535
     25 C16         7.5498    2.3582    8.2080 C.3       1 <0>         0.0518
     26 C17         8.5894    3.1729    8.9803 C.3       1 <0>        -0.1538
     27 C18         7.1004    3.3460    9.2865 C.3       1 <0>        -0.1688
     28 C19         1.6336   -2.3974    0.1183 C.3       1 <0>        -0.1673
     29 H3          0.6464    2.1102    0.1545 H         1 <0>         0.0711
     30 H4         -1.0219    1.9906   -0.4543 H         1 <0>         0.0459
     31 H5         -0.6987    1.8476    1.2902 H         1 <0>         0.0713
     32 H6         -2.0051   -0.2713    1.1768 H         1 <0>         0.0679
     33 H7         -2.1443   -0.2700   -0.5983 H         1 <0>         0.0768
     34 H8         -2.3111   -2.5739    0.2812 H         1 <0>         0.0686
     35 H9         -0.8321   -2.3826   -0.6901 H         1 <0>         0.0685
     36 H10        -0.9836   -2.1964    2.3531 H         1 <0>         0.0689
     37 H11        -0.3790   -3.5967    1.4345 H         1 <0>         0.0802
     38 H12         1.8081   -0.7893    3.7262 H         1 <0>         0.0933
     39 H13         3.1328   -0.5979    2.5528 H         1 <0>         0.0942
     40 H14         2.5650    1.9312    3.6743 H         1 <0>         0.4143
     41 H15         3.8104   -1.3433    4.5311 H         1 <0>         0.1310
     42 H16         5.4488   -1.7842    6.3092 H         1 <0>         0.1397
     43 H17         5.6031    2.4089    7.1956 H         1 <0>         0.1321
     44 H18         3.9708    2.8417    5.4098 H         1 <0>         0.1323
     45 H19         7.3674    2.6307    7.1685 H         1 <0>         0.1581
     46 H20         9.1966    2.6458    9.7162 H         1 <0>         0.1159
     47 H21         9.0913    3.9815    8.4488 H         1 <0>         0.1186
     48 H22         6.6226    4.2685    8.9565 H         1 <0>         0.1198
     49 H23         6.7280    2.9327   10.2238 H         1 <0>         0.1065
     50 H24         1.0639   -2.1732   -0.7835 H         1 <0>         0.0652
     51 H25         2.6155   -1.9285    0.0536 H         1 <0>         0.0603
     52 H26         1.7520   -3.4767    0.2143 H         1 <0>         0.0732
@<TRIPOS>BOND
     1    1    2 1
     2    1   29 1
     3    1   30 1
     4    1   31 1
     5    2    3 1
     6    2    9 1
     7    2    4 1
     8    4    5 1
     9    4   32 1
    10    4   33 1
    11    5    6 1
    12    5   34 1
    13    5   35 1
    14    6    7 1
    15    6   36 1
    16    6   37 1
    17    7    8 1
    18    7    9 1
    19    7   28 1
    20    9   10 am
    21   10   11 2
    22   10   12 1
    23   12   13 1
    24   12   38 1
    25   12   39 1
    26   13   14 1
    27   13   40 1
    28   14   19 ar
    29   14   15 ar
    30   15   16 ar
    31   15   41 1
    32   16   17 ar
    33   16   42 1
    34   17   18 ar
    35   17   20 1
    36   18   19 ar
    37   18   43 1
    38   19   44 1
    39   20   24 1
    40   20   21 2
    41   21   22 1
    42   22   23 2
    43   23   24 1
    44   24   25 1
    45   25   27 1
    46   25   26 1
    47   25   45 1
    48   26   27 1
    49   26   46 1
    50   26   47 1
    51   27   48 1
    52   27   49 1
    53   28   50 1
    54   28   51 1
    55   28   52 1
@<TRIPOS>MOLECULE
ZINC50373812
   36    37     0     0     0
SMALL
USER_CHARGES

@<TRIPOS>ATOM
      1 C1          0.4793    1.5853    0.1584 C.3       1 <0>         0.0299
      2 O1          0.3687    0.1658    0.0363 O.3       1 <0>        -0.3785
      3 C2          1.0652   -0.3769   -1.0872 C.3       1 <0>         0.0826
      4 H1          1.9272    0.2452   -1.3279 H         1 <0>         0.0779
      5 C3          0.1201   -0.4636   -2.3034 C.3       1 <0>        -0.1472
      6 C4          0.5301   -1.7796   -3.0100 C.3       1 <0>        -0.1205
      7 C5          0.8361   -2.7247   -1.8217 C.3       1 <0>        -0.1474
      8 C6          1.5215   -1.8141   -0.7805 C.3       1 <0>         0.1457
      9 H2          2.6050   -1.8896   -0.8731 H         1 <0>         0.1030
     10 N1          1.1051   -2.1951    0.5714 N.pl3     1 <0>        -1.0870
     11 S1          2.0843   -3.1552    1.4997 S.o2      1 <0>         2.6907
     12 O2          3.3821   -2.5786    1.4516 O.2       1 <0>        -0.9401
     13 O3          1.3943   -3.3777    2.7219 O.2       1 <0>        -0.9300
     14 C7          2.1974   -4.7179    0.6935 C.ar      1 <0>        -0.6794
     15 C8          3.4139   -5.1582    0.2066 C.ar      1 <0>         0.0541
     16 C9          3.5027   -6.3838   -0.4262 C.ar      1 <0>        -0.0661
     17 C10         2.3749   -7.1701   -0.5727 C.ar      1 <0>         0.0097
     18 C11         1.1582   -6.7312   -0.0860 C.ar      1 <0>        -0.1239
     19 C12         1.0699   -5.5068    0.5527 C.ar      1 <0>         0.0955
     20 Cl1        -0.4567   -4.9580    1.1708 Cl        1 <0>        -0.0042
     21 N2          4.8054   -6.8544   -0.9477 N.pl3     1 <0>         0.0306
     22 O4          5.7916   -6.1668   -0.8201 O.2       1 <0>        -0.1418
     23 O5          4.8833   -7.9263   -1.5013 O.3       1 <0>        -0.1440
     24 H3          1.5285    1.8599    0.2672 H         1 <0>         0.0448
     25 H4          0.0701    2.0597   -0.7335 H         1 <0>         0.0435
     26 H5         -0.0763    1.9189    1.0348 H         1 <0>         0.0888
     27 H6         -0.9186   -0.5137   -1.9766 H         1 <0>         0.0818
     28 H7          0.2718    0.3885   -2.9660 H         1 <0>         0.0732
     29 H8         -0.2924   -2.1680   -3.6107 H         1 <0>         0.0761
     30 H9          1.4192   -1.6284   -3.6223 H         1 <0>         0.0737
     31 H10        -0.0869   -3.1399   -1.4171 H         1 <0>         0.0827
     32 H11         1.5103   -3.5226   -2.1327 H         1 <0>         0.0700
     33 H12         0.2559   -1.8849    0.9228 H         1 <0>         0.4313
     34 H13         4.2951   -4.5443    0.3205 H         1 <0>         0.1816
     35 H14         2.4447   -8.1273   -1.0680 H         1 <0>         0.1731
     36 H15         0.2773   -7.3454   -0.2008 H         1 <0>         0.1697
@<TRIPOS>BOND
     1    1    2 1
     2    1   24 1
     3    1   25 1
     4    1   26 1
     5    2    3 1
     6    3    4 1
     7    3    8 1
     8    3    5 1
     9    5    6 1
    10    5   27 1
    11    5   28 1
    12    6    7 1
    13    6   29 1
    14    6   30 1
    15    7    8 1
    16    7   31 1
    17    7   32 1
    18    8    9 1
    19    8   10 1
    20   10   11 1
    21   10   33 1
    22   11   12 2
    23   11   13 2
    24   11   14 1
    25   14   19 ar
    26   14   15 ar
    27   15   16 ar
    28   15   34 1
    29   16   17 ar
    30   16   21 1
    31   17   18 ar
    32   17   35 1
    33   18   19 ar
    34   18   36 1
    35   19   20 1
    36   21   22 2
    37   21   23 1
@<TRIPOS>MOLECULE
ZINC66352218
   46    48     0     0     0
SMALL
USER_CHARGES

@<TRIPOS>ATOM
      1 C1         -0.0548    1.5753   -0.1383 C.3       1 <0>        -0.1528
      2 C2         -0.0367    0.0455   -0.1215 C.3       1 <0>         0.0600
      3 O1          0.6511   -0.4355   -1.2781 O.3       1 <0>        -0.3356
      4 C3          0.7563   -1.7716   -1.4157 C.2       1 <0>         0.5581
      5 O2          0.2773   -2.5082   -0.5767 O.2       1 <0>        -0.5007
      6 C4          1.4534   -2.3403   -2.5855 C.2       1 <0>         0.0087
      7 C5          1.6395   -3.7027   -2.8713 C.2       1 <0>        -0.1703
      8 C6          2.3253   -3.7513   -4.0397 C.2       1 <0>         0.0301
      9 N1          2.5393   -2.4813   -4.4250 N.pl3     1 <0>        -0.2563
     10 N2          2.0200   -1.6666   -3.5728 N.2       1 <0>        -0.2212
     11 C7          3.2535   -2.0820   -5.6402 C.3       1 <0>         0.1394
     12 C8          2.3212   -1.2607   -6.5330 C.3       1 <0>        -0.1654
     13 C9          4.4718   -1.2375   -5.2615 C.3       1 <0>        -0.1651
     14 C10         2.7364   -5.0262   -4.7297 C.3       1 <0>        -0.0711
     15 C11         2.6708   -6.1781   -3.7185 C.3       1 <0>         0.1346
     16 N3          1.4145   -6.0884   -2.9598 N.pl3     1 <0>        -0.6263
     17 C12         1.2027   -4.9143   -2.0919 C.3       1 <0>         0.1980
     18 C13         0.4489   -7.0870   -3.0576 C.ar      1 <0>         0.3228
     19 C14         0.6159   -8.1180   -3.9761 C.ar      1 <0>        -0.1482
     20 C15        -0.3494   -9.1044   -4.0647 C.ar      1 <0>        -0.0966
     21 C16        -1.4576   -9.0258   -3.2251 C.ar      1 <0>         0.2356
     22 C17        -1.5574   -7.9702   -2.3345 C.ar      1 <0>        -0.0728
     23 N4         -0.6152   -7.0479   -2.2718 N.ar      1 <0>        -0.4334
     24 O3         -2.4307   -9.9745   -3.2794 O.3       1 <0>        -0.6567
     25 H1          0.9684    1.9508   -0.1349 H         1 <0>         0.0678
     26 H2         -0.5664    1.9227   -1.0358 H         1 <0>         0.0677
     27 H3         -0.5794    1.9421    0.7440 H         1 <0>         0.0824
     28 H4          0.4750   -0.3020    0.7761 H         1 <0>         0.0709
     29 H5         -1.0599   -0.3301   -0.1248 H         1 <0>         0.0705
     30 H6          3.5810   -2.9717   -6.1780 H         1 <0>         0.1129
     31 H7          1.9936   -0.3710   -5.9951 H         1 <0>         0.0765
     32 H8          2.8525   -0.9636   -7.4372 H         1 <0>         0.0853
     33 H9          1.4532   -1.8623   -6.8027 H         1 <0>         0.0642
     34 H10         5.1360   -1.8227   -4.6255 H         1 <0>         0.0647
     35 H11         5.0031   -0.9404   -6.1657 H         1 <0>         0.0851
     36 H12         4.1442   -0.3478   -4.7237 H         1 <0>         0.0764
     37 H13         2.0580   -5.2284   -5.5585 H         1 <0>         0.0948
     38 H14         3.7551   -4.9267   -5.1045 H         1 <0>         0.0982
     39 H15         2.7086   -7.1299   -4.2484 H         1 <0>         0.1053
     40 H16         3.5155   -6.1090   -3.0331 H         1 <0>         0.0852
     41 H17         1.8015   -5.0090   -1.1860 H         1 <0>         0.0930
     42 H18         0.1472   -4.8290   -1.8333 H         1 <0>         0.0870
     43 H19         1.4881   -8.1476   -4.6124 H         1 <0>         0.1545
     44 H20        -0.2463   -9.9167   -4.7689 H         1 <0>         0.1472
     45 H21        -2.4142   -7.9030   -1.6804 H         1 <0>         0.1757
     46 H22        -0.7069   -6.3209   -1.6362 H         1 <0>         0.4201
@<TRIPOS>BOND
     1    1    2 1
     2    1   25 1
     3    1   26 1
     4    1   27 1
     5    2    3 1
     6    2   28 1
     7    2   29 1
     8    3    4 1
     9    4    5 2
    10    4    6 1
    11    6   10 2
    12    6    7 1
    13    7   17 1
    14    7    8 2
    15    8    9 1
    16    8   14 1
    17    9   10 1
    18    9   11 1
    19   11   12 1
    20   11   13 1
    21   11   30 1
    22   12   31 1
    23   12   32 1
    24   12   33 1
    25   13   34 1
    26   13   35 1
    27   13   36 1
    28   14   15 1
    29   14   37 1
    30   14   38 1
    31   15   16 1
    32   15   39 1
    33   15   40 1
    34   16   17 1
    35   16   18 1
    36   17   41 1
    37   17   42 1
    38   18   23 ar
    39   18   19 ar
    40   19   20 ar
    41   19   43 1
    42   20   21 ar
    43   20   44 1
    44   21   22 ar
    45   21   24 1
    46   22   23 ar
    47   22   45 1
    48   23   46 1
@<TRIPOS>MOLECULE
ZINC11512537
   39    40     0     0     0
SMALL
USER_CHARGES
1-[3-(5-methyl-2-furyl)prop-2-enoylamino]-3-[2-(2-thienyl)ethyl]thiourea
@<TRIPOS>ATOM
      1 C1         11.1182   -1.8000    4.5913 C.3       1 <0>        -0.0829
      2 C2         11.2984   -1.8608    3.0963 C.2       1 <0>         0.0243
      3 C3         12.4199   -2.2609    2.4570 C.2       1 <0>        -0.2211
      4 C4         12.1662   -2.1731    1.0797 C.2       1 <0>        -0.1352
      5 C5         10.8753   -1.7048    0.9475 C.2       1 <0>        -0.0367
      6 O1         10.3721   -1.5274    2.1870 O.3       1 <0>        -0.1638
      7 C6         10.1972   -1.4600   -0.2713 C.2       1 <0>         0.0530
      8 C7          8.9204   -1.0030   -0.2570 C.2       1 <0>        -0.2338
      9 C8          8.2426   -0.7582   -1.4753 C.2       1 <0>         0.5645
     10 O2          8.8059   -0.9580   -2.5363 O.2       1 <0>        -0.5287
     11 N1          6.9737   -0.3041   -1.4611 N.am      1 <0>        -0.5482
     12 N2          6.3028   -0.0618   -2.6669 N.pl3     1 <0>        -0.4681
     13 C9          5.0340    0.3924   -2.6527 C.2       1 <0>         0.5601
     14 S1          4.2142    0.6884   -4.1262 S.2       1 <0>        -0.5858
     15 N3          4.4105    0.6135   -1.4785 N.pl3     1 <0>        -0.6861
     16 C10         3.0313    1.1072   -1.4630 C.3       1 <0>         0.1263
     17 C11         2.5647    1.2717   -0.0152 C.3       1 <0>        -0.0471
     18 C12         1.1459    1.7795    0.0007 C.2       1 <0>        -0.1501
     19 C13        -0.0126    1.0758    0.0080 C.2       1 <0>        -0.1451
     20 C14        -1.2130    1.7610    0.0173 C.2       1 <0>        -0.1592
     21 C15        -1.1962    3.1163    0.0303 C.2       1 <0>        -0.1667
     22 S2          0.5548    3.4640    0.0154 S.3       1 <0>         0.0441
     23 H1         10.1151   -1.4413    4.8221 H         1 <0>         0.0794
     24 H2         11.2545   -2.7952    5.0145 H         1 <0>         0.0926
     25 H3         11.8547   -1.1195    5.0186 H         1 <0>         0.0926
     26 H4         13.3382   -2.5911    2.9197 H         1 <0>         0.1574
     27 H5         12.8484   -2.4212    0.2801 H         1 <0>         0.1610
     28 H6         10.6969   -1.6372   -1.2122 H         1 <0>         0.1647
     29 H7          8.4208   -0.8258    0.6840 H         1 <0>         0.1359
     30 H8          6.5250   -0.1449   -0.6160 H         1 <0>         0.4206
     31 H9          6.7516   -0.2210   -3.5120 H         1 <0>         0.4600
     32 H10         4.8750    0.4458   -0.6436 H         1 <0>         0.3918
     33 H11         2.3845    0.3943   -1.9744 H         1 <0>         0.0969
     34 H12         2.9843    2.0701   -1.9715 H         1 <0>         0.0959
     35 H13         3.2115    1.9845    0.4962 H         1 <0>         0.0871
     36 H14         2.6116    0.3087    0.4933 H         1 <0>         0.0939
     37 H15         0.0021   -0.0041    0.0020 H         1 <0>         0.1339
     38 H16        -2.1503    1.2245    0.0184 H         1 <0>         0.1357
     39 H17        -2.0266    3.8068    0.0414 H         1 <0>         0.1871
@<TRIPOS>BOND
     1    1    2 1
     2    1   23 1
     3    1   24 1
     4    1   25 1
     5    2    6 1
     6    2    3 2
     7    3    4 1
     8    3   26 1
     9    4    5 2
    10    4   27 1
    11    5    6 1
    12    5    7 1
    13    7    8 2
    14    7   28 1
    15    8    9 1
    16    8   29 1
    17    9   10 2
    18    9   11 am
    19   11   12 1
    20   11   30 1
    21   12   13 1
    22   12   31 1
    23   13   14 2
    24   13   15 1
    25   15   16 1
    26   15   32 1
    27   16   17 1
    28   16   33 1
    29   16   34 1
    30   17   18 1
    31   17   35 1
    32   17   36 1
    33   18   22 1
    34   18   19 2
    35   19   20 1
    36   19   37 1
    37   20   21 2
    38   20   38 1
    39   21   22 1
    40   21   39 1
@<TRIPOS>MOLECULE
ZINC27025898
   49    51     0     0     0
SMALL
USER_CHARGES
5-[(3aS,4S,6aR)-2-oxo-1,3,3a,4,6,6a-hexahydrothieno[4,3-d]imidazol-4-yl]-N-(2,5-dimethylphenyl)pentanamide
@<TRIPOS>ATOM
      1 C1          2.9009    4.6302   -1.4975 C.3       1 <0>        -0.1168
      2 C2          2.6922    3.3429   -0.7423 C.ar      1 <0>        -0.0731
      3 C3          3.7509    2.7539   -0.0752 C.ar      1 <0>        -0.1328
      4 C4          3.5636    1.5729    0.6188 C.ar      1 <0>        -0.1005
      5 C5          2.3174    0.9776    0.6482 C.ar      1 <0>        -0.1208
      6 C6          1.2525    1.5663   -0.0205 C.ar      1 <0>         0.1509
      7 C7          1.4454    2.7495   -0.7219 C.ar      1 <0>        -0.1213
      8 N1         -0.0111    0.9658    0.0074 N.am      1 <0>        -0.6873
      9 C8         -1.1207    1.7308    0.0165 C.2       1 <0>         0.5123
     10 O1         -1.0268    2.9365   -0.0764 O.2       1 <0>        -0.5219
     11 C9         -2.4780    1.0882    0.1421 C.3       1 <0>        -0.1396
     12 C10        -3.5585    2.1713    0.1266 C.3       1 <0>        -0.1046
     13 C11        -4.9365    1.5188    0.2541 C.3       1 <0>        -0.1191
     14 C12        -6.0170    2.6019    0.2385 C.3       1 <0>        -0.1124
     15 C13        -7.3950    1.9494    0.3661 C.3       1 <0>        -0.0574
     16 H1         -7.2691    1.4249    1.3248 H         1 <0>         0.1119
     17 C14        -8.5051    3.0163    0.4795 C.3       1 <0>         0.1133
     18 H2         -8.7224    3.1348    1.5513 H         1 <0>         0.1014
     19 C15        -9.7763    2.6668   -0.3001 C.3       1 <0>         0.1101
     20 H3        -10.6447    2.6064    0.3723 H         1 <0>         0.1020
     21 C16        -9.6958    1.3168   -1.0445 C.3       1 <0>        -0.0892
     22 S1         -7.8703    1.0937   -1.1984 S.3       1 <0>        -0.2414
     23 N2         -9.9011    3.7526   -1.2853 N.am      1 <0>        -0.7412
     24 C17        -8.8810    4.6069   -1.1250 C.2       1 <0>         0.7216
     25 O2         -8.7348    5.6013   -1.8092 O.2       1 <0>        -0.5861
     26 N3         -8.0369    4.2653   -0.1419 N.am      1 <0>        -0.7377
     27 C18         2.1139   -0.3092    1.4057 C.3       1 <0>        -0.1122
     28 H4          3.9497    4.9470   -1.3993 H         1 <0>         0.0663
     29 H5          2.2425    5.4085   -1.0843 H         1 <0>         0.0712
     30 H6          2.6628    4.4746   -2.5601 H         1 <0>         0.0697
     31 H7          4.7260    3.2178   -0.0960 H         1 <0>         0.1224
     32 H8          4.3923    1.1154    1.1388 H         1 <0>         0.1250
     33 H9          0.6202    3.2074   -1.2470 H         1 <0>         0.1377
     34 H10        -0.0988   -0.1306    0.0219 H         1 <0>         0.4320
     35 H11        -2.6370    0.3995   -0.7008 H         1 <0>         0.0973
     36 H12        -2.5329    0.5290    1.0878 H         1 <0>         0.0969
     37 H13        -3.3995    2.8599    0.9695 H         1 <0>         0.0717
     38 H14        -3.5036    2.7305   -0.8191 H         1 <0>         0.0727
     39 H15        -5.0955    0.8301   -0.5888 H         1 <0>         0.0693
     40 H16        -4.9914    0.9597    1.1998 H         1 <0>         0.0655
     41 H17        -5.8579    3.2906    1.0813 H         1 <0>         0.0779
     42 H18        -5.9622    3.1610   -0.7072 H         1 <0>         0.0802
     43 H19       -10.1811    0.5357   -0.4408 H         1 <0>         0.1023
     44 H20       -10.2079    1.4017   -2.0143 H         1 <0>         0.1154
     45 H21       -10.7425    3.7584   -1.9938 H         1 <0>         0.4575
     46 H22        -7.1228    4.7539    0.2264 H         1 <0>         0.4577
     47 H23         1.0647   -0.6266    1.3141 H         1 <0>         0.0595
     48 H24         2.3584   -0.1527    2.4667 H         1 <0>         0.0720
     49 H25         2.7701   -1.0876    0.9892 H         1 <0>         0.0715
@<TRIPOS>BOND
     1    1    2 1
     2    1   28 1
     3    1   29 1
     4    1   30 1
     5    2    7 ar
     6    2    3 ar
     7    3    4 ar
     8    3   31 1
     9    4    5 ar
    10    4   32 1
    11    5    6 ar
    12    5   27 1
    13    6    7 ar
    14    6    8 1
    15    7   33 1
    16    8    9 am
    17    8   34 1
    18    9   10 2
    19    9   11 1
    20   11   12 1
    21   11   35 1
    22   11   36 1
    23   12   13 1
    24   12   37 1
    25   12   38 1
    26   13   14 1
    27   13   39 1
    28   13   40 1
    29   14   15 1
    30   14   41 1
    31   14   42 1
    32   15   16 1
    33   15   22 1
    34   15   17 1
    35   17   18 1
    36   17   26 1
    37   17   19 1
    38   19   20 1
    39   19   21 1
    40   19   23 1
    41   21   22 1
    42   21   43 1
    43   21   44 1
    44   23   24 am
    45   23   45 1
    46   24   25 2
    47   24   26 am
    48   26   46 1
    49   27   47 1
    50   27   48 1
    51   27   49 1
@<TRIPOS>MOLECULE
ZINC51289333
   45    46     0     0     0
SMALL
USER_CHARGES

@<TRIPOS>ATOM
      1 C1          0.7988   -0.1261   -0.1405 C.3       1 <0>        -0.1454
      2 C2          0.5362   -1.6333   -0.1171 C.3       1 <0>        -0.0602
      3 C3          1.1468   -2.2377    1.1489 C.3       1 <0>        -0.1456
      4 C4         -0.9497   -1.8845   -0.1274 C.ar      1 <0>        -0.0661
      5 C5         -1.7419   -1.3869    0.8902 C.ar      1 <0>        -0.1113
      6 C6         -3.1049   -1.6173    0.8807 C.ar      1 <0>        -0.0999
      7 C7         -3.6757   -2.3450   -0.1467 C.ar      1 <0>        -0.1292
      8 C8         -2.8836   -2.8418   -1.1649 C.ar      1 <0>        -0.1040
      9 C9         -1.5212   -2.6077   -1.1576 C.ar      1 <0>        -0.1131
     10 C10        -5.1614   -2.5971   -0.1566 C.3       1 <0>         0.1371
     11 H1         -5.5598   -2.4604    0.8488 H         1 <0>         0.1173
     12 C11        -5.8394   -1.6129   -1.1119 C.3       1 <0>         0.0394
     13 N1         -7.2896   -1.8168   -1.0749 N.am      1 <0>        -0.4636
     14 C12        -8.0483   -1.0577   -0.2488 C.2       1 <0>         0.0833
     15 C13        -9.3952   -1.2161   -0.1862 C.2       1 <0>        -0.1617
     16 C14       -10.0251   -2.1738   -0.9806 C.2       1 <0>         0.0516
     17 C15        -9.2510   -2.9585   -1.8330 C.2       1 <0>        -0.2372
     18 C16        -7.8476   -2.7521   -1.8667 C.2       1 <0>         0.5463
     19 O1         -7.1488   -3.4221   -2.6073 O.2       1 <0>        -0.5241
     20 C17        -9.8780   -3.9794   -2.6861 C.2       1 <0>         0.5812
     21 O2        -11.0900   -4.0755   -2.7289 O.2       1 <0>        -0.5464
     22 N2         -9.1099   -4.8083   -3.4205 N.am      1 <0>        -0.8381
     23 C18        -7.3850   -0.0181    0.6174 C.3       1 <0>         0.5108
     24 F1         -8.3455    0.5936    1.4301 F         1 <0>        -0.1507
     25 F2         -6.4158   -0.6293    1.4201 F         1 <0>        -0.1628
     26 F3         -6.7779    0.9465   -0.1939 F         1 <0>        -0.1606
     27 O3         -5.4148   -3.9344   -0.5916 O.3       1 <0>        -0.5398
     28 H2          1.8735    0.0556   -0.1330 H         1 <0>         0.0603
     29 H3          0.3638    0.3045   -1.0424 H         1 <0>         0.0562
     30 H4          0.3462    0.3352    0.7372 H         1 <0>         0.0573
     31 H5          0.9888   -2.0946   -0.9948 H         1 <0>         0.0790
     32 H6          0.9597   -3.3114    1.1656 H         1 <0>         0.0566
     33 H7          2.2215   -2.0560    1.1564 H         1 <0>         0.0603
     34 H8          0.6942   -1.7763    2.0266 H         1 <0>         0.0573
     35 H9         -1.2960   -0.8184    1.6929 H         1 <0>         0.1253
     36 H10        -3.7237   -1.2291    1.6761 H         1 <0>         0.1245
     37 H11        -3.3295   -3.4106   -1.9674 H         1 <0>         0.1226
     38 H12        -0.9029   -2.9927   -1.9550 H         1 <0>         0.1253
     39 H13        -5.6080   -0.5924   -0.8067 H         1 <0>         0.1090
     40 H14        -5.4747   -1.7806   -2.1253 H         1 <0>         0.1189
     41 H15        -9.9799   -0.5995    0.4804 H         1 <0>         0.1742
     42 H16       -11.0961   -2.3054   -0.9356 H         1 <0>         0.1677
     43 H17        -8.1446   -4.7837   -3.3288 H         1 <0>         0.4155
     44 H18        -9.5225   -5.4297   -4.0407 H         1 <0>         0.4018
     45 H19        -5.0264   -4.1488   -1.4508 H         1 <0>         0.3811
@<TRIPOS>BOND
     1    1    2 1
     2    1   28 1
     3    1   29 1
     4    1   30 1
     5    2    3 1
     6    2    4 1
     7    2   31 1
     8    3   32 1
     9    3   33 1
    10    3   34 1
    11    4    9 ar
    12    4    5 ar
    13    5    6 ar
    14    5   35 1
    15    6    7 ar
    16    6   36 1
    17    7    8 ar
    18    7   10 1
    19    8    9 ar
    20    8   37 1
    21    9   38 1
    22   10   11 1
    23   10   12 1
    24   10   27 1
    25   12   13 1
    26   12   39 1
    27   12   40 1
    28   13   18 am
    29   13   14 1
    30   14   15 2
    31   14   23 1
    32   15   16 1
    33   15   41 1
    34   16   17 2
    35   16   42 1
    36   17   18 1
    37   17   20 1
    38   18   19 2
    39   20   21 2
    40   20   22 am
    41   22   43 1
    42   22   44 1
    43   23   24 1
    44   23   25 1
    45   23   26 1
    46   27   45 1
@<TRIPOS>MOLECULE
ZINC64513683
   46    47     0     0     0
SMALL
USER_CHARGES

@<TRIPOS>ATOM
      1 C1         -4.7149   -4.1761   -3.1620 C.3       1 <0>        -0.1061
      2 C2         -3.4598   -4.1748   -2.3279 C.ar      1 <0>        -0.1430
      3 C3         -2.3413   -3.4894   -2.7655 C.ar      1 <0>        -0.0742
      4 C4         -1.1896   -3.4857   -2.0034 C.ar      1 <0>        -0.1798
      5 C5         -1.1556   -4.1717   -0.7958 C.ar      1 <0>         0.2339
      6 C6         -2.2810   -4.8592   -0.3592 C.ar      1 <0>        -0.1838
      7 C7         -3.4310   -4.8543   -1.1237 C.ar      1 <0>        -0.0758
      8 N1          0.0082   -4.1705   -0.0224 N.pl3     1 <0>        -0.6921
      9 C8          0.0142   -4.7832    1.2245 C.ar      1 <0>         0.2090
     10 C9         -0.0644   -4.0157    2.3803 C.ar      1 <0>        -0.1300
     11 C10        -0.0577   -4.6265    3.6172 C.ar      1 <0>        -0.0831
     12 C11         0.0271   -6.0064    3.7182 C.ar      1 <0>        -0.1270
     13 C12         0.1058   -6.7839    2.5838 C.ar      1 <0>        -0.0815
     14 C13         0.0939   -6.1811    1.3233 C.ar      1 <0>        -0.1456
     15 C14         0.1716   -7.0077    0.1049 C.2       1 <0>         0.5559
     16 O1          0.2808   -6.4771   -0.9838 O.2       1 <0>        -0.5056
     17 N2          0.1216   -8.3513    0.1978 N.am      1 <0>        -0.7328
     18 C15         0.1988   -9.1726   -1.0128 C.3       1 <0>         0.1372
     19 C16         0.1200  -10.6522   -0.6312 C.3       1 <0>        -0.1532
     20 C17         0.1994  -11.4971   -1.8766 C.2       1 <0>         0.5201
     21 O2          0.3084  -10.9679   -2.9624 O.2       1 <0>        -0.5280
     22 N3          0.1494  -12.8407   -1.7837 N.am      1 <0>        -0.7299
     23 C18         0.2267  -13.6620   -2.9943 C.3       1 <0>         0.2305
     24 C19         0.1508  -15.0855   -2.6272 C.1       1 <0>        -0.2173
     25 C20         0.0904  -16.2208   -2.3344 C.1       1 <0>        -0.1615
     26 H1         -5.3408   -3.3302   -2.8778 H         1 <0>         0.0631
     27 H2         -4.4505   -4.0945   -4.2163 H         1 <0>         0.0615
     28 H3         -5.2611   -5.1045   -2.9952 H         1 <0>         0.0602
     29 H4         -2.3683   -2.9566   -3.7046 H         1 <0>         0.1197
     30 H5         -0.3163   -2.9505   -2.3460 H         1 <0>         0.1187
     31 H6         -2.2579   -5.3935    0.5791 H         1 <0>         0.1114
     32 H7         -4.3077   -5.3849   -0.7827 H         1 <0>         0.1163
     33 H8          0.8118   -3.7419   -0.3561 H         1 <0>         0.4101
     34 H9         -0.1303   -2.9400    2.3101 H         1 <0>         0.1338
     35 H10        -0.1186   -4.0257    4.5126 H         1 <0>         0.1323
     36 H11         0.0319   -6.4744    4.6915 H         1 <0>         0.1321
     37 H12         0.1720   -7.8585    2.6685 H         1 <0>         0.1278
     38 H13         0.0345   -8.7745    1.0663 H         1 <0>         0.3968
     39 H14        -0.6307   -8.9234   -1.6745 H         1 <0>         0.0790
     40 H15         1.1420   -8.9789   -1.5237 H         1 <0>         0.0780
     41 H16         0.9495  -10.9014    0.0305 H         1 <0>         0.1030
     42 H17        -0.8232  -10.8459   -0.1203 H         1 <0>         0.1032
     43 H18         0.0623  -13.2639   -0.9152 H         1 <0>         0.4052
     44 H19        -0.6029  -13.4128   -3.6560 H         1 <0>         0.0941
     45 H20         1.1698  -13.4683   -3.5052 H         1 <0>         0.0940
     46 H21         0.0363  -17.2362   -2.0725 H         1 <0>         0.2234
@<TRIPOS>BOND
     1    1    2 1
     2    1   26 1
     3    1   27 1
     4    1   28 1
     5    2    7 ar
     6    2    3 ar
     7    3    4 ar
     8    3   29 1
     9    4    5 ar
    10    4   30 1
    11    5    6 ar
    12    5    8 1
    13    6    7 ar
    14    6   31 1
    15    7   32 1
    16    8    9 1
    17    8   33 1
    18    9   14 ar
    19    9   10 ar
    20   10   11 ar
    21   10   34 1
    22   11   12 ar
    23   11   35 1
    24   12   13 ar
    25   12   36 1
    26   13   14 ar
    27   13   37 1
    28   14   15 1
    29   15   16 2
    30   15   17 am
    31   17   18 1
    32   17   38 1
    33   18   19 1
    34   18   39 1
    35   18   40 1
    36   19   20 1
    37   19   41 1
    38   19   42 1
    39   20   21 2
    40   20   22 am
    41   22   23 1
    42   22   43 1
    43   23   24 1
    44   23   44 1
    45   23   45 1
    46   24   25 3
    47   25   46 1
