@<TRIPOS>MOLECULE
1LRU-BB2
 61 61 0 0 0
SMALL
SF_CHARGES


@<TRIPOS>ATOM
1    C       -33.6620   28.5440   66.6210  C.3        1 SUBUNIT     -0.0793
2    C       -32.7850   28.4930   65.3750  C.2        1 SUBUNIT      0.6140
3    O       -33.0980   29.0810   64.3220  O.2        1 SUBUNIT     -0.5554
4    N       -31.6550   27.8160   65.3780  N.am       1 SUBUNIT     -0.3860
5    O       -30.9460   27.7420   64.1470  O.2        1 SUBUNIT     -0.5118
6    C       -34.4410   27.2210   66.7220  C.3        1 SUBUNIT     -0.0523
7    C       -35.6310   27.3460   67.6710  C.2        1 SUBUNIT      0.6215
8    O       -35.5210   27.8780   68.7720  O.2        1 SUBUNIT     -0.5592
9    C       -33.5900   26.0320   67.2000  C.3        1 SUBUNIT     -0.0819
10   C       -34.3740   24.7040   67.3500  C.3        1 SUBUNIT     -0.0789
11   C       -34.4360   23.9440   66.0590  C.3        1 SUBUNIT     -0.0800
12   C       -35.4750   22.8230   66.1300  C.3        1 SUBUNIT     -0.0791
13   C       -35.6930   22.1120   67.4400  C.3        1 SUBUNIT     -0.1202
14   N       -36.7500   26.7830   67.2450  N.am       1 SUBUNIT     -0.5973
15   C       -37.9760   26.7650   68.0300  C.3        1 SUBUNIT      0.1547
16   C       -38.9930   27.8160   67.5190  C.3        1 SUBUNIT     -0.0549
17   C       -40.2010   27.8240   68.3990  C.3        1 SUBUNIT     -0.1215
18   C       -38.3770   29.2070   67.5030  C.3        1 SUBUNIT     -0.1215
19   C       -38.5230   25.3480   67.8160  C.2        1 SUBUNIT      0.6056
20   O       -38.6540   24.9030   66.6740  O.2        1 SUBUNIT     -0.5621
21   N       -38.8410   24.6280   68.9100  N.am       1 SUBUNIT     -0.4883
22   C       -39.3620   23.2540   68.8790  C.3        1 SUBUNIT      0.1487
23   C       -38.8510   25.1460   70.2840  C.3        1 SUBUNIT      0.1245
24   C       -38.6940   23.9040   71.0830  C.3        1 SUBUNIT     -0.0971
25   C       -39.5380   22.9190   70.3720  C.3        1 SUBUNIT     -0.0998
26   C       -40.6730   23.3770   68.0730  C.3        1 SUBUNIT      0.1614
27   O       -41.3410   22.1560   67.7700  O.3        1 SUBUNIT     -0.5755
28   H       -33.0332   28.6735   67.5080  H          1 SUBUNIT      0.0251
29   H       -34.3621   29.3824   66.5437  H          1 SUBUNIT      0.0251
30   H       -31.3380   27.3835   66.2316  H          1 SUBUNIT      0.2776
31   H       -34.7770   27.0214   65.6991  H          1 SUBUNIT      0.0232
32   H       -32.7845   25.8762   66.4748  H          1 SUBUNIT      0.0285
33   H       -33.1605   26.2901   68.1736  H          1 SUBUNIT      0.0285
34   H       -33.8808   24.0753   68.0987  H          1 SUBUNIT      0.0296
35   H       -35.3973   24.9225   67.6729  H          1 SUBUNIT      0.0296
36   H       -34.7045   24.6364   65.2543  H          1 SUBUNIT      0.0309
37   H       -33.4505   23.5122   65.8559  H          1 SUBUNIT      0.0309
38   H       -36.4388   23.2540   65.8396  H          1 SUBUNIT      0.0324
39   H       -35.1811   22.0605   65.4011  H          1 SUBUNIT      0.0324
40   H       -34.7714   21.6304   67.7832  H          1 SUBUNIT      0.0363
41   H       -36.4614   21.3379   67.3432  H          1 SUBUNIT      0.0363
42   H       -36.0166   22.8120   68.2173  H          1 SUBUNIT      0.0363
43   H       -36.7044   26.3604   66.3310  H          1 SUBUNIT      0.3103
44   H       -37.7644   27.0065   69.0769  H          1 SUBUNIT      0.0154
45   H       -39.2956   27.5530   66.5000  H          1 SUBUNIT      0.0343
46   H       -40.6884   26.8435   68.4052  H          1 SUBUNIT      0.0387
47   H       -40.9330   28.5616   68.0539  H          1 SUBUNIT      0.0387
48   H       -39.9330   28.0732   69.4310  H          1 SUBUNIT      0.0387
49   H       -38.0586   29.5067   68.5069  H          1 SUBUNIT      0.0387
50   H       -39.0955   29.9502   67.1419  H          1 SUBUNIT      0.0387
51   H       -37.5002   29.2404   66.8479  H          1 SUBUNIT      0.0387
52   H       -38.7415   22.4822   68.4116  H          1 SUBUNIT      0.0178
53   H       -38.0188   25.8375   70.4523  H          1 SUBUNIT      0.0190
54   H       -39.7965   25.6500   70.5100  H          1 SUBUNIT      0.0190
55   H       -37.6482   23.5800   71.1004  H          1 SUBUNIT      0.0336
56   H       -39.0480   24.0517   72.1086  H          1 SUBUNIT      0.0336
57   H       -40.5837   23.0267   70.6787  H          1 SUBUNIT      0.0321
58   H       -39.1961   21.9018   70.5898  H          1 SUBUNIT      0.0321
59   H       -41.3818   23.9893   68.6402  H          1 SUBUNIT      0.0116
60   H       -40.4562   23.8614   67.1152  H          1 SUBUNIT      0.0116
61   H       -40.9619   21.7844   66.9701  H          1 SUBUNIT      0.3667
@<TRIPOS>BOND
     1    1    2 1
     2    1    6 1
     3    2    3 2
     4    2    4 1
     5    4    5 1
     6    6    7 1
     7    6    9 1
     8    7    8 2
     9    7   14 1
    10    9   10 1
    11   10   11 1
    12   11   12 1
    13   12   13 1
    14   14   15 1
    15   15   16 1
    16   15   19 1
    17   16   17 1
    18   16   18 1
    19   19   20 2
    20   19   21 1
    21   21   22 1
    22   21   23 1
    23   22   25 1
    24   22   26 1
    25   23   24 1
    26   24   25 1
    27   26   27 1
    28    1   28 1
    29    1   29 1
    30    4   30 1
    31    6   31 1
    32    9   32 1
    33    9   33 1
    34   10   34 1
    35   10   35 1
    36   11   36 1
    37   11   37 1
    38   12   38 1
    39   12   39 1
    40   13   40 1
    41   13   41 1
    42   13   42 1
    43   14   43 1
    44   15   44 1
    45   16   45 1
    46   17   46 1
    47   17   47 1
    48   17   48 1
    49   18   49 1
    50   18   50 1
    51   18   51 1
    52   22   52 1
    53   23   53 1
    54   23   54 1
    55   24   55 1
    56   24   56 1
    57   25   57 1
    58   25   58 1
    59   26   59 1
    60   26   60 1
    61   27   61 1
