@<TRIPOS>MOLECULE
3EML-ZMA
 40 43 0 0 0
SMALL
SF_CHARGES


@<TRIPOS>ATOM
1    C       -10.9920   -8.7960   60.6170  C.2        1 SUBUNIT     -0.0958
2    C       -11.2410   -8.2970   61.8890  C.2        1 SUBUNIT     -0.1110
3    C       -11.9840   -7.1330   62.0450  C.2        1 SUBUNIT      0.1583
4    O       -12.2310   -6.6380   63.2860  O.3        1 SUBUNIT     -0.5079
5    C       -12.4760   -6.4690   60.9280  C.2        1 SUBUNIT     -0.1110
6    C       -12.2300   -6.9690   59.6570  C.2        1 SUBUNIT     -0.0958
7    C       -11.4920   -8.1350   59.5010  C.2        1 SUBUNIT     -0.0318
8    C       -11.2080   -8.6770   58.1010  C.3        1 SUBUNIT     -0.0383
9    C        -9.7460   -9.1040   58.0060  C.3        1 SUBUNIT      0.1563
10   N        -9.4200   -9.5440   56.6440  N.2        1 SUBUNIT     -0.5808
11   C        -8.9530   -8.5930   55.8420  C.2        1 SUBUNIT      0.6058
12   N        -8.5850   -8.8570   54.5780  N.pl3      1 SUBUNIT     -0.6229
13   N        -8.8330   -7.3590   56.3580  N.2        1 SUBUNIT     -0.5622
14   C        -8.3650   -6.3420   55.6260  C.2        1 SUBUNIT      0.5670
15   N        -8.2660   -5.1250   56.1560  N.pl3      1 SUBUNIT     -0.6833
16   N        -7.9810   -6.5820   54.3090  N.pl3      1 SUBUNIT     -0.1225
17   N        -7.5250   -5.8520   53.4280  N.2        1 SUBUNIT     -0.3871
18   C        -8.1040   -7.8740   53.8000  C.2        1 SUBUNIT      0.4800
19   N        -7.6760   -7.8290   52.5440  N.2        1 SUBUNIT     -0.5447
20   C        -7.3130   -6.5650   52.3200  C.2        1 SUBUNIT      0.5272
21   C        -6.8090   -6.0540   51.1310  C.2        1 SUBUNIT      0.0936
22   C        -6.5540   -6.6880   49.9910  C.2        1 SUBUNIT     -0.1113
23   C        -6.0810   -5.7960   49.1210  C.2        1 SUBUNIT     -0.1060
24   C        -6.0340   -4.5980   49.7030  C.2        1 SUBUNIT      0.0418
25   O        -6.4920   -4.7390   50.9840  O.3        1 SUBUNIT     -0.2001
26   H       -10.4121   -9.6942   60.4959  H          1 SUBUNIT      0.1159
27   H       -10.8587   -8.8117   62.7531  H          1 SUBUNIT      0.1161
28   H       -13.0318   -6.1095   63.2562  H          1 SUBUNIT      0.3909
29   H       -13.0486   -5.5659   61.0480  H          1 SUBUNIT      0.1161
30   H       -12.6111   -6.4532   58.7930  H          1 SUBUNIT      0.1159
31   H       -11.8530   -9.5401   57.9061  H          1 SUBUNIT      0.0476
32   H       -11.4084   -7.8962   57.3599  H          1 SUBUNIT      0.0476
33   H        -9.0987   -8.2599   58.2657  H          1 SUBUNIT      0.0320
34   H        -9.5595   -9.9335   58.6961  H          1 SUBUNIT      0.0320
35   H        -7.6074   -8.9132   54.3388  H          1 SUBUNIT      0.3285
36   H        -7.9129   -4.3609   55.6014  H          1 SUBUNIT      0.3225
37   H        -8.5442   -4.9674   57.1120  H          1 SUBUNIT      0.3225
38   H        -6.7036   -7.7371   49.8045  H          1 SUBUNIT      0.1036
39   H        -5.7841   -6.0093   48.1090  H          1 SUBUNIT      0.1034
40   H        -5.6943   -3.6893   49.2376  H          1 SUBUNIT      0.0878
@<TRIPOS>BOND
     1    1    2 2
     2    1    7 1
     3    2    3 1
     4    3    4 1
     5    3    5 2
     6    5    6 1
     7    6    7 2
     8    7    8 1
     9    8    9 1
    10    9   10 1
    11   10   11 2
    12   11   12 1
    13   11   13 1
    14   12   18 1
    15   13   14 2
    16   14   15 1
    17   14   16 1
    18   16   17 1
    19   16   18 1
    20   17   20 2
    21   18   19 2
    22   19   20 1
    23   20   21 1
    24   21   22 2
    25   21   25 1
    26   22   23 1
    27   23   24 2
    28   24   25 1
    29    1   26 1
    30    2   27 1
    31    4   28 1
    32    5   29 1
    33    6   30 1
    34    8   31 1
    35    8   32 1
    36    9   33 1
    37    9   34 1
    38   12   35 1
    39   15   36 1
    40   15   37 1
    41   22   38 1
    42   23   39 1
    43   24   40 1
