@<TRIPOS>MOLECULE
CHEMBL526371
   65    68     0     0     0
SMALL
USER_CHARGES

@<TRIPOS>ATOM
      1 C1         -0.7160    2.4344    0.2423 C.3       1 <0>        -0.0891
      2 C2         -0.4321    0.9561    0.1724 C.2       1 <0>         0.0737
      3 C3         -1.3531   -0.0254    0.1229 C.2       1 <0>        -0.2644
      4 C4         -0.6770   -1.2573    0.0653 C.2       1 <0>         0.1073
      5 N1          0.6035   -1.0167    0.0800 N.2       1 <0>        -0.3161
      6 O1          0.7825    0.3868    0.1426 O.3       1 <0>        -0.0727
      7 C5         -1.3211   -2.6181   -0.0013 C.3       1 <0>         0.1314
      8 O2         -2.7427   -2.4729    0.0026 O.3       1 <0>        -0.2835
      9 C6         -3.4801   -3.6143   -0.0537 C.ar      1 <0>         0.1738
     10 C7         -2.8495   -4.8462   -0.1056 C.ar      1 <0>        -0.1925
     11 C8         -3.6005   -6.0061   -0.1624 C.ar      1 <0>        -0.0352
     12 C9         -4.9818   -5.9407   -0.1675 C.ar      1 <0>        -0.1364
     13 C10        -5.6191   -4.7156   -0.1165 C.ar      1 <0>        -0.0295
     14 C11        -4.8722   -3.5474   -0.0535 C.ar      1 <0>        -0.1541
     15 S1         -5.6816   -1.9840    0.0190 S.3       1 <0>         0.0054
     16 C12        -5.5235   -1.5000    1.7059 C.ar      1 <0>        -0.1459
     17 C13        -4.9691   -2.3757    2.6314 C.ar      1 <0>        -0.0762
     18 C14        -4.8458   -1.9955    3.9528 C.ar      1 <0>        -0.2032
     19 C15        -5.2756   -0.7397    4.3569 C.ar      1 <0>         0.1447
     20 C16        -5.8296    0.1350    3.4341 C.ar      1 <0>        -0.1118
     21 C17        -5.9478   -0.2407    2.1104 C.ar      1 <0>        -0.0286
     22 C18        -6.5437    0.7124    1.1066 C.3       1 <0>        -0.1151
     23 C19        -6.2964    1.4985    3.8746 C.3       1 <0>        -0.1042
     24 O3         -5.1541   -0.3664    5.6590 O.3       1 <0>        -0.2755
     25 C20        -4.5751   -1.3171    6.5551 C.3       1 <0>        -0.0071
     26 C21        -4.5223   -0.7319    7.9429 C.2       1 <0>         0.5019
     27 O4         -4.9417    0.3948    8.1457 O.co2     1 <0>        -0.6700
     28 O5         -4.0603   -1.3853    8.8628 O.co2     1 <0>        -0.6874
     29 C22        -2.9116   -7.3452   -0.2192 C.3       1 <0>         0.0963
     30 O6         -2.7013   -7.8295    1.1086 O.3       1 <0>        -0.2983
     31 C23        -2.0864   -9.0348    1.2357 C.ar      1 <0>         0.1651
     32 C24        -1.6883   -9.7342    0.1056 C.ar      1 <0>        -0.2133
     33 C25        -1.0630  -10.9590    0.2375 C.ar      1 <0>        -0.0281
     34 C26        -0.8342  -11.4880    1.4943 C.ar      1 <0>        -0.2256
     35 C27        -1.2304  -10.7930    2.6220 C.ar      1 <0>        -0.0285
     36 C28        -1.8505   -9.5651    2.4957 C.ar      1 <0>        -0.1504
     37 C29        -0.1523  -12.8245    1.6351 C.3       1 <0>         0.5123
     38 F1          1.2314  -12.6355    1.7188 F         1 <0>        -0.1775
     39 F2         -0.6072  -13.4601    2.7954 F         1 <0>        -0.1772
     40 F3         -0.4480  -13.6185    0.5219 F         1 <0>        -0.1790
     41 H1          0.2249    2.9843    0.2661 H         1 <0>         0.0845
     42 H2         -1.2909    2.7358   -0.6333 H         1 <0>         0.0971
     43 H3         -1.2871    2.6524    1.1447 H         1 <0>         0.0998
     44 H4         -2.4246    0.1100    0.1270 H         1 <0>         0.1672
     45 H5         -1.0099   -3.1230   -0.9159 H         1 <0>         0.0950
     46 H6         -1.0138   -3.2082    0.8621 H         1 <0>         0.0953
     47 H7         -1.7709   -4.9012   -0.1021 H         1 <0>         0.1355
     48 H8         -5.5639   -6.8493   -0.2119 H         1 <0>         0.1342
     49 H9         -6.6981   -4.6674   -0.1213 H         1 <0>         0.1454
     50 H10        -4.6352   -3.3535    2.3172 H         1 <0>         0.1138
     51 H11        -4.4149   -2.6760    4.6724 H         1 <0>         0.1279
     52 H12        -7.6225    0.5641    1.0607 H         1 <0>         0.0739
     53 H13        -6.3304    1.7379    1.4083 H         1 <0>         0.0742
     54 H14        -6.1090    0.5246    0.1248 H         1 <0>         0.0704
     55 H15        -5.4759    2.2103    3.7839 H         1 <0>         0.0662
     56 H16        -7.1268    1.8190    3.2454 H         1 <0>         0.0620
     57 H17        -6.6242    1.4523    4.9131 H         1 <0>         0.0783
     58 H18        -5.1815   -2.2228    6.5655 H         1 <0>         0.0584
     59 H19        -3.5652   -1.5598    6.2245 H         1 <0>         0.0574
     60 H20        -3.5342   -8.0511   -0.7691 H         1 <0>         0.0814
     61 H21        -1.9511   -7.2386   -0.7235 H         1 <0>         0.0781
     62 H22        -1.8675   -9.3218   -0.8763 H         1 <0>         0.1402
     63 H23        -0.7529  -11.5039   -0.6419 H         1 <0>         0.1386
     64 H24        -1.0508  -11.2085    3.6026 H         1 <0>         0.1441
     65 H25        -2.1558   -9.0206    3.3771 H         1 <0>         0.1461
@<TRIPOS>BOND
     1    1    2 1
     2    1   41 1
     3    1   42 1
     4    1   43 1
     5    2    6 1
     6    2    3 2
     7    3    4 1
     8    3   44 1
     9    4    5 2
    10    4    7 1
    11    5    6 1
    12    7    8 1
    13    7   45 1
    14    7   46 1
    15    8    9 1
    16    9   14 ar
    17    9   10 ar
    18   10   11 ar
    19   10   47 1
    20   11   12 ar
    21   11   29 1
    22   12   13 ar
    23   12   48 1
    24   13   14 ar
    25   13   49 1
    26   14   15 1
    27   15   16 1
    28   16   21 ar
    29   16   17 ar
    30   17   18 ar
    31   17   50 1
    32   18   19 ar
    33   18   51 1
    34   19   20 ar
    35   19   24 1
    36   20   21 ar
    37   20   23 1
    38   21   22 1
    39   22   52 1
    40   22   53 1
    41   22   54 1
    42   23   55 1
    43   23   56 1
    44   23   57 1
    45   24   25 1
    46   25   26 1
    47   25   58 1
    48   25   59 1
    49   26   27 2
    50   26   28 1
    51   29   30 1
    52   29   60 1
    53   29   61 1
    54   30   31 1
    55   31   36 ar
    56   31   32 ar
    57   32   33 ar
    58   32   62 1
    59   33   34 ar
    60   33   63 1
    61   34   35 ar
    62   34   37 1
    63   35   36 ar
    64   35   64 1
    65   36   65 1
    66   37   38 1
    67   37   39 1
    68   37   40 1
@<TRIPOS>MOLECULE
CHEMBL391264
   60    62     0     0     0
SMALL
USER_CHARGES

@<TRIPOS>ATOM
      1 C1          0.2004    1.5004   -0.1345 C.3       1 <0>        -0.1494
      2 C2          0.0003   -0.0104    0.0005 C.3       1 <0>        -0.0793
      3 C3          0.7299   -0.5065    1.2222 C.ar      1 <0>        -0.1198
      4 C4          2.0475   -0.9176    1.1186 C.ar      1 <0>        -0.0651
      5 C5          2.7264   -1.3745    2.2328 C.ar      1 <0>        -0.2086
      6 C6          2.0900   -1.4231    3.4621 C.ar      1 <0>         0.1522
      7 C7          0.7573   -1.0077    3.5712 C.ar      1 <0>        -0.0531
      8 C8          0.0838   -0.5439    2.4405 C.ar      1 <0>        -0.0516
      9 C9          0.0692   -1.0555    4.8779 C.2       1 <0>         0.0383
     10 C10        -0.6361   -0.0412    5.4458 C.2       1 <0>        -0.1950
     11 C11        -1.1162   -0.5223    6.6807 C.2       1 <0>        -0.2112
     12 C12        -0.6849   -1.7925    6.8040 C.2       1 <0>        -0.0392
     13 O1          0.0269   -2.1132    5.7106 O.3       1 <0>        -0.1620
     14 O2          2.7562   -1.8724    4.5575 O.3       1 <0>        -0.2965
     15 C13         4.1456   -2.1654    4.3969 C.3       1 <0>         0.0841
     16 H1          4.5868   -1.4598    3.6929 H         1 <0>         0.0781
     17 C14         4.3079   -3.5893    3.8611 C.3       1 <0>        -0.1782
     18 C15         4.8517   -2.0457    5.7490 C.3       1 <0>        -0.1125
     19 C16         4.7969   -0.5930    6.2261 C.3       1 <0>         0.0616
     20 O3          5.4563   -0.4812    7.4889 O.3       1 <0>        -0.3184
     21 C17         5.4975    0.7529    8.0564 C.ar      1 <0>         0.1141
     22 C18         4.9101    1.8332    7.4136 C.ar      1 <0>        -0.2093
     23 C19         4.9529    3.0865    7.9926 C.ar      1 <0>        -0.0788
     24 C20         5.5805    3.2651    9.2119 C.ar      1 <0>        -0.0995
     25 C21         6.1669    2.1905    9.8541 C.ar      1 <0>        -0.0464
     26 C22         6.1218    0.9337    9.2818 C.ar      1 <0>        -0.1506
     27 C23         6.8504    2.3888   11.1824 C.3       1 <0>        -0.1209
     28 C24         5.6257    4.6336    9.8413 C.3       1 <0>        -0.0565
     29 C25         6.9430    5.3202    9.4750 C.3       1 <0>        -0.1754
     30 C26         6.9882    6.6887   10.1044 C.2       1 <0>         0.4892
     31 O4          6.0534    7.0788   10.7831 O.co2     1 <0>        -0.6984
     32 O5          7.9595    7.4059    9.9349 O.co2     1 <0>        -0.7069
     33 H2          1.2638    1.7187   -0.2329 H         1 <0>         0.0561
     34 H3         -0.3273    1.8593   -1.0182 H         1 <0>         0.0578
     35 H4         -0.1926    1.9997    0.7511 H         1 <0>         0.0567
     36 H5         -1.0631   -0.2286    0.0989 H         1 <0>         0.0716
     37 H6          0.3932   -0.5096   -0.8852 H         1 <0>         0.0718
     38 H7          2.5478   -0.8815    0.1622 H         1 <0>         0.1277
     39 H8          3.7541   -1.6943    2.1445 H         1 <0>         0.1352
     40 H9         -0.9431   -0.2185    2.5183 H         1 <0>         0.1335
     41 H10        -0.7973    0.9428    5.0310 H         1 <0>         0.1478
     42 H11        -1.7164    0.0241    7.3932 H         1 <0>         0.1493
     43 H12        -0.8820   -2.4460    7.6410 H         1 <0>         0.2020
     44 H13         3.8049   -3.6745    2.8979 H         1 <0>         0.0658
     45 H14         5.3677   -3.8128    3.7386 H         1 <0>         0.0758
     46 H15         3.8668   -4.2949    4.5651 H         1 <0>         0.0711
     47 H16         4.3537   -2.6862    6.4769 H         1 <0>         0.0870
     48 H17         5.8917   -2.3548    5.6444 H         1 <0>         0.0954
     49 H18         5.2949    0.0475    5.4982 H         1 <0>         0.0580
     50 H19         3.7569   -0.2839    6.3307 H         1 <0>         0.0664
     51 H20         4.4201    1.6943    6.4612 H         1 <0>         0.1199
     52 H21         4.4961    3.9278    7.4925 H         1 <0>         0.1230
     53 H22         6.5762    0.0937    9.7860 H         1 <0>         0.1249
     54 H23         6.1298    2.2430   11.9872 H         1 <0>         0.0713
     55 H24         7.6609    1.6672   11.2853 H         1 <0>         0.0632
     56 H25         7.2549    3.3996   11.2356 H         1 <0>         0.0810
     57 H26         4.7906    5.2302    9.4741 H         1 <0>         0.0677
     58 H27         5.5550    4.5377   10.9248 H         1 <0>         0.0720
     59 H28         7.7780    4.7237    9.8422 H         1 <0>         0.0579
     60 H29         7.0137    5.4162    8.3915 H         1 <0>         0.0554
@<TRIPOS>BOND
     1    1    2 1
     2    1   33 1
     3    1   34 1
     4    1   35 1
     5    2    3 1
     6    2   36 1
     7    2   37 1
     8    3    8 ar
     9    3    4 ar
    10    4    5 ar
    11    4   38 1
    12    5    6 ar
    13    5   39 1
    14    6    7 ar
    15    6   14 1
    16    7    8 ar
    17    7    9 1
    18    8   40 1
    19    9   13 1
    20    9   10 2
    21   10   11 1
    22   10   41 1
    23   11   12 2
    24   11   42 1
    25   12   13 1
    26   12   43 1
    27   14   15 1
    28   15   16 1
    29   15   17 1
    30   15   18 1
    31   17   44 1
    32   17   45 1
    33   17   46 1
    34   18   19 1
    35   18   47 1
    36   18   48 1
    37   19   20 1
    38   19   49 1
    39   19   50 1
    40   20   21 1
    41   21   26 ar
    42   21   22 ar
    43   22   23 ar
    44   22   51 1
    45   23   24 ar
    46   23   52 1
    47   24   25 ar
    48   24   28 1
    49   25   26 ar
    50   25   27 1
    51   26   53 1
    52   27   54 1
    53   27   55 1
    54   27   56 1
    55   28   29 1
    56   28   57 1
    57   28   58 1
    58   29   30 1
    59   29   59 1
    60   29   60 1
    61   30   31 2
    62   30   32 1
@<TRIPOS>MOLECULE
CHEMBL234587
   54    57     0     0     0
SMALL
USER_CHARGES

@<TRIPOS>ATOM
      1 C1         -0.0184    1.5028    0.0103 C.3       1 <0>        -0.1024
      2 C2          0.0021   -0.0041    0.0020 C.ar      1 <0>        -0.1177
      3 C3          0.0054   -0.6620   -1.1873 C.ar      1 <0>        -0.0258
      4 C4          0.0249   -2.0760   -1.2334 C.ar      1 <0>        -0.0872
      5 C5          0.0404   -2.7509    0.0067 C.ar      1 <0>        -0.0792
      6 C6          0.0369   -2.0768    1.2085 C.ar      1 <0>        -0.1716
      7 C7          0.0229   -0.6914    1.2130 C.ar      1 <0>         0.1425
      8 O1          0.0247   -0.0092    2.3890 O.3       1 <0>        -0.3004
      9 C8          0.0466   -0.7849    3.5889 C.3       1 <0>         0.0954
     10 C9          0.0454    0.1356    4.7822 C.ar      1 <0>        -0.0780
     11 C10         0.0192    1.5056    4.5984 C.ar      1 <0>        -0.0925
     12 C11         0.0180    2.3498    5.6927 C.ar      1 <0>        -0.1146
     13 C12         0.0425    1.8242    6.9713 C.ar      1 <0>        -0.1188
     14 C13         0.0678    0.4546    7.1550 C.ar      1 <0>        -0.0966
     15 C14         0.0646   -0.3899    6.0604 C.ar      1 <0>        -0.0888
     16 C15         0.0868   -1.8834    6.2608 C.3       1 <0>         0.0963
     17 O2          0.1040   -2.1761    7.6594 O.3       1 <0>        -0.3018
     18 C16         0.1252   -3.4875    8.0150 C.ar      1 <0>         0.1657
     19 C17         0.1351   -4.4724    7.0380 C.ar      1 <0>        -0.2107
     20 C18         0.1572   -5.8048    7.4021 C.ar      1 <0>        -0.0253
     21 C19         0.1689   -6.1572    8.7390 C.ar      1 <0>        -0.2250
     22 C20         0.1586   -5.1776    9.7147 C.ar      1 <0>        -0.0303
     23 C21         0.1428   -3.8437    9.3558 C.ar      1 <0>        -0.1530
     24 C22         0.1924   -7.6115    9.1334 C.3       1 <0>         0.5121
     25 F1          1.5185   -8.0419    9.2491 F         1 <0>        -0.1773
     26 F2         -0.4589   -7.7723   10.3611 F         1 <0>        -0.1786
     27 F3         -0.4606   -8.3703    8.1562 F         1 <0>        -0.1772
     28 S1          0.0614   -4.4648   -0.4514 S.3       1 <0>        -0.0082
     29 C23         0.0498   -4.2776   -2.2241 C.2       1 <0>        -0.1782
     30 C24         0.0308   -2.9490   -2.3990 C.2       1 <0>        -0.0317
     31 C25         0.0153   -2.3644   -3.7879 C.3       1 <0>        -0.1471
     32 C26         1.4241   -2.0357   -4.2103 C.2       1 <0>         0.4976
     33 O3          2.3544   -2.2557   -3.4536 O.co2     1 <0>        -0.6837
     34 O4          1.6334   -1.5496   -5.3087 O.co2     1 <0>        -0.7010
     35 H1          1.0042    1.8801    0.0026 H         1 <0>         0.0680
     36 H2         -0.5455    1.8639   -0.8728 H         1 <0>         0.0651
     37 H3         -0.5286    1.8543    0.9071 H         1 <0>         0.0671
     38 H4         -0.0073   -0.0985   -2.1085 H         1 <0>         0.1321
     39 H5          0.0491   -2.6241    2.1395 H         1 <0>         0.1284
     40 H6         -0.8344   -1.4257    3.6235 H         1 <0>         0.0768
     41 H7          0.9453   -1.4014    3.6066 H         1 <0>         0.0776
     42 H8          0.0000    1.9162    3.5996 H         1 <0>         0.1383
     43 H9         -0.0017    3.4200    5.5491 H         1 <0>         0.1260
     44 H10         0.0423    2.4839    7.8264 H         1 <0>         0.1248
     45 H11         0.0872    0.0440    8.1538 H         1 <0>         0.1332
     46 H12        -0.8016   -2.3239    5.8083 H         1 <0>         0.0821
     47 H13         0.9781   -2.2997    5.7914 H         1 <0>         0.0826
     48 H14         0.1253   -4.1976    5.9935 H         1 <0>         0.1413
     49 H15         0.1649   -6.5718    6.6418 H         1 <0>         0.1407
     50 H16         0.1674   -5.4554   10.7583 H         1 <0>         0.1428
     51 H17         0.1392   -3.0788   10.1182 H         1 <0>         0.1438
     52 H18         0.0568   -5.0509   -2.9779 H         1 <0>         0.1808
     53 H19        -0.4126   -3.0878   -4.4818 H         1 <0>         0.0723
     54 H20        -0.5869   -1.4558   -3.7929 H         1 <0>         0.0694
@<TRIPOS>BOND
     1    1    2 1
     2    1   35 1
     3    1   36 1
     4    1   37 1
     5    2    7 ar
     6    2    3 ar
     7    3    4 ar
     8    3   38 1
     9    4   30 1
    10    4    5 ar
    11    5    6 ar
    12    5   28 1
    13    6    7 ar
    14    6   39 1
    15    7    8 1
    16    8    9 1
    17    9   10 1
    18    9   40 1
    19    9   41 1
    20   10   15 ar
    21   10   11 ar
    22   11   12 ar
    23   11   42 1
    24   12   13 ar
    25   12   43 1
    26   13   14 ar
    27   13   44 1
    28   14   15 ar
    29   14   45 1
    30   15   16 1
    31   16   17 1
    32   16   46 1
    33   16   47 1
    34   17   18 1
    35   18   23 ar
    36   18   19 ar
    37   19   20 ar
    38   19   48 1
    39   20   21 ar
    40   20   49 1
    41   21   22 ar
    42   21   24 1
    43   22   23 ar
    44   22   50 1
    45   23   51 1
    46   24   25 1
    47   24   26 1
    48   24   27 1
    49   28   29 1
    50   29   30 2
    51   29   52 1
    52   30   31 1
    53   31   32 1
    54   31   53 1
    55   31   54 1
    56   32   33 2
    57   32   34 1
@<TRIPOS>MOLECULE
CHEMBL234588
   51    54     0     0     0
SMALL
USER_CHARGES

@<TRIPOS>ATOM
      1 C1         -0.0167    1.3779    0.0096 C.ar      1 <0>        -0.1253
      2 C2          1.1711    2.0854    0.0021 C.ar      1 <0>        -0.0852
      3 C3          2.3773    1.4107   -0.0130 C.ar      1 <0>        -0.1052
      4 C4          2.3960    0.0283   -0.0201 C.ar      1 <0>        -0.0673
      5 C5          1.2086   -0.6790   -0.0117 C.ar      1 <0>        -0.0925
      6 C6          0.0021   -0.0041    0.0020 C.ar      1 <0>        -0.0806
      7 C7          1.2291   -2.1858   -0.0204 C.3       1 <0>         0.0995
      8 O1          1.2497   -2.6697    1.3240 O.3       1 <0>        -0.3056
      9 C8          1.2698   -4.0183    1.4943 C.ar      1 <0>         0.1388
     10 C9          1.2757   -4.8664    0.3891 C.ar      1 <0>        -0.2090
     11 C10         1.2957   -6.2175    0.5320 C.ar      1 <0>        -0.0218
     12 C11         1.3118   -6.8107    1.8168 C.ar      1 <0>        -0.0936
     13 C12         1.3060   -5.9315    2.9211 C.ar      1 <0>        -0.0762
     14 C13         1.2905   -4.5617    2.7682 C.ar      1 <0>        -0.1163
     15 S1          1.3292   -7.0205    4.3216 S.3       1 <0>         0.0008
     16 C14         1.3460   -8.5803    3.4589 C.2       1 <0>        -0.1799
     17 C15         1.3335   -8.2241    2.1669 C.2       1 <0>        -0.0328
     18 C16         1.3424   -9.2755    1.0874 C.3       1 <0>        -0.1466
     19 C17         2.7590   -9.5175    0.6335 C.2       1 <0>         0.4971
     20 O2          3.6762   -8.8939    1.1397 O.co2     1 <0>        -0.6834
     21 O3          2.9877  -10.3368   -0.2399 O.co2     1 <0>        -0.7017
     22 C18         3.6720    2.1819   -0.0222 C.3       1 <0>         0.1007
     23 O4          4.0945    2.4194    1.3220 O.3       1 <0>        -0.3000
     24 C19         5.2538    3.1080    1.4918 C.ar      1 <0>         0.1665
     25 C20         5.9669    3.5512    0.3874 C.ar      1 <0>        -0.2134
     26 C21         7.1448    4.2514    0.5627 C.ar      1 <0>        -0.0274
     27 C22         7.6133    4.5103    1.8375 C.ar      1 <0>        -0.2271
     28 C23         6.9047    4.0693    2.9399 C.ar      1 <0>        -0.0293
     29 C24         5.7231    3.3740    2.7700 C.ar      1 <0>        -0.1524
     30 C25         8.8988    5.2739    2.0258 C.3       1 <0>         0.5124
     31 F1          8.6210    6.6429    2.1023 F         1 <0>        -0.1785
     32 F2          9.5198    4.8572    3.2081 F         1 <0>        -0.1774
     33 F3          9.7489    5.0305    0.9417 F         1 <0>        -0.1784
     34 H1         -0.9591    1.9051    0.0259 H         1 <0>         0.1292
     35 H2          1.1565    3.1653    0.0076 H         1 <0>         0.1257
     36 H3          3.3385   -0.4989   -0.0326 H         1 <0>         0.1287
     37 H4         -0.9258   -0.5567    0.0079 H         1 <0>         0.1288
     38 H5          0.3388   -2.5583   -0.5270 H         1 <0>         0.0741
     39 H6          2.1185   -2.5341   -0.5456 H         1 <0>         0.0742
     40 H7          1.2637   -4.4405   -0.6033 H         1 <0>         0.1275
     41 H8          1.2990   -6.8466   -0.3459 H         1 <0>         0.1275
     42 H9          1.2903   -3.9173    3.6349 H         1 <0>         0.1337
     43 H10         1.3625   -9.5757    3.8776 H         1 <0>         0.1809
     44 H11         0.9232  -10.2022    1.4793 H         1 <0>         0.0722
     45 H12         0.7436   -8.9344    0.2430 H         1 <0>         0.0686
     46 H13         4.4344    1.6057   -0.5463 H         1 <0>         0.0771
     47 H14         3.5236    3.1349   -0.5302 H         1 <0>         0.0762
     48 H15         5.6017    3.3486   -0.6086 H         1 <0>         0.1405
     49 H16         7.7003    4.5965   -0.2968 H         1 <0>         0.1385
     50 H17         7.2730    4.2725    3.9346 H         1 <0>         0.1430
     51 H18         5.1677    3.0337    3.6314 H         1 <0>         0.1447
@<TRIPOS>BOND
     1    1    6 ar
     2    1    2 ar
     3    1   34 1
     4    2    3 ar
     5    2   35 1
     6    3    4 ar
     7    3   22 1
     8    4    5 ar
     9    4   36 1
    10    5    6 ar
    11    5    7 1
    12    6   37 1
    13    7    8 1
    14    7   38 1
    15    7   39 1
    16    8    9 1
    17    9   14 ar
    18    9   10 ar
    19   10   11 ar
    20   10   40 1
    21   11   12 ar
    22   11   41 1
    23   12   17 1
    24   12   13 ar
    25   13   14 ar
    26   13   15 1
    27   14   42 1
    28   15   16 1
    29   16   17 2
    30   16   43 1
    31   17   18 1
    32   18   19 1
    33   18   44 1
    34   18   45 1
    35   19   20 2
    36   19   21 1
    37   22   23 1
    38   22   46 1
    39   22   47 1
    40   23   24 1
    41   24   29 ar
    42   24   25 ar
    43   25   26 ar
    44   25   48 1
    45   26   27 ar
    46   26   49 1
    47   27   28 ar
    48   27   30 1
    49   28   29 ar
    50   28   50 1
    51   29   51 1
    52   30   31 1
    53   30   32 1
    54   30   33 1
@<TRIPOS>MOLECULE
CHEMBL234589
   51    54     0     0     0
SMALL
USER_CHARGES

@<TRIPOS>ATOM
      1 C1         -0.0167    1.3781    0.0096 C.ar      1 <0>        -0.0959
      2 C2          1.1709    2.0855    0.0021 C.ar      1 <0>        -0.0960
      3 C3          2.3773    1.4107   -0.0130 C.ar      1 <0>        -0.0760
      4 C4          2.3960    0.0285   -0.0201 C.ar      1 <0>        -0.0969
      5 C5          1.2085   -0.6789   -0.0117 C.ar      1 <0>        -0.0967
      6 C6          0.0021   -0.0041    0.0020 C.ar      1 <0>        -0.0949
      7 C7         -1.2926   -0.7753    0.0107 C.3       1 <0>         0.0997
      8 O1         -1.7152   -1.0118   -1.3338 O.3       1 <0>        -0.3008
      9 C8         -2.8744   -1.7003   -1.5041 C.ar      1 <0>         0.1663
     10 C9         -3.5935   -2.1342   -0.3998 C.ar      1 <0>        -0.2131
     11 C10        -4.7718   -2.8335   -0.5756 C.ar      1 <0>        -0.0272
     12 C11        -5.2345   -3.1014   -1.8507 C.ar      1 <0>        -0.2270
     13 C12        -4.5195   -2.6704   -2.9529 C.ar      1 <0>        -0.0296
     14 C13        -3.3437   -1.9654   -2.7824 C.ar      1 <0>        -0.1533
     15 C14        -6.5200   -3.8648   -2.0396 C.3       1 <0>         0.5123
     16 F1         -7.5920   -2.9675   -2.0915 F         1 <0>        -0.1777
     17 F2         -6.4605   -4.5900   -3.2345 F         1 <0>        -0.1780
     18 F3         -6.7009   -4.7458   -0.9679 F         1 <0>        -0.1786
     19 C15         3.6720    2.1819   -0.0222 C.3       1 <0>         0.0971
     20 O2          4.0946    2.4194    1.3220 O.3       1 <0>        -0.3059
     21 C16         5.2542    3.1083    1.4919 C.ar      1 <0>         0.1387
     22 C17         5.9744    3.5557    0.3866 C.ar      1 <0>        -0.2087
     23 C18         7.1360    4.2461    0.5289 C.ar      1 <0>        -0.0216
     24 C19         7.6548    4.5354    1.8135 C.ar      1 <0>        -0.0934
     25 C20         6.9077    4.0724    2.9180 C.ar      1 <0>        -0.0764
     26 C21         5.7275    3.3767    2.7656 C.ar      1 <0>        -0.1164
     27 S1          7.8535    4.6138    4.3180 S.3       1 <0>         0.0005
     28 C22         9.1872    5.4224    3.4549 C.2       1 <0>        -0.1798
     29 C23         8.8716    5.2550    2.1632 C.2       1 <0>        -0.0327
     30 C24         9.7667    5.8063    1.0834 C.3       1 <0>        -0.1466
     31 C25         9.2636    7.1613    0.6570 C.2       1 <0>         0.4971
     32 O3          8.2702    7.6354    1.1814 O.co2     1 <0>        -0.6836
     33 O4          9.8499    7.7835   -0.2123 O.co2     1 <0>        -0.7015
     34 H1         -0.9591    1.9053    0.0259 H         1 <0>         0.1275
     35 H2          1.1563    3.1654    0.0076 H         1 <0>         0.1310
     36 H3          3.3385   -0.4987   -0.0326 H         1 <0>         0.1298
     37 H4          1.2231   -1.7588   -0.0179 H         1 <0>         0.1271
     38 H5         -1.1443   -1.7285    0.5180 H         1 <0>         0.0767
     39 H6         -2.0551   -0.1993    0.5352 H         1 <0>         0.0769
     40 H7         -3.2321   -1.9258    0.5964 H         1 <0>         0.1410
     41 H8         -5.3320   -3.1715    0.2837 H         1 <0>         0.1387
     42 H9         -4.8827   -2.8812   -3.9478 H         1 <0>         0.1428
     43 H10        -2.7879   -1.6251   -3.6436 H         1 <0>         0.1443
     44 H11         4.4344    1.6056   -0.5463 H         1 <0>         0.0742
     45 H12         3.5237    3.1349   -0.5302 H         1 <0>         0.0754
     46 H13         5.6014    3.3488   -0.6056 H         1 <0>         0.1278
     47 H14         7.6701    4.5781   -0.3491 H         1 <0>         0.1277
     48 H15         5.1784    3.0400    3.6325 H         1 <0>         0.1336
     49 H16        10.0452    5.9275    3.8733 H         1 <0>         0.1809
     50 H17        10.7828    5.9001    1.4665 H         1 <0>         0.0723
     51 H18         9.7619    5.1312    0.2276 H         1 <0>         0.0687
@<TRIPOS>BOND
     1    1    6 ar
     2    1    2 ar
     3    1   34 1
     4    2    3 ar
     5    2   35 1
     6    3    4 ar
     7    3   19 1
     8    4    5 ar
     9    4   36 1
    10    5    6 ar
    11    5   37 1
    12    6    7 1
    13    7    8 1
    14    7   38 1
    15    7   39 1
    16    8    9 1
    17    9   14 ar
    18    9   10 ar
    19   10   11 ar
    20   10   40 1
    21   11   12 ar
    22   11   41 1
    23   12   13 ar
    24   12   15 1
    25   13   14 ar
    26   13   42 1
    27   14   43 1
    28   15   16 1
    29   15   17 1
    30   15   18 1
    31   19   20 1
    32   19   44 1
    33   19   45 1
    34   20   21 1
    35   21   26 ar
    36   21   22 ar
    37   22   23 ar
    38   22   46 1
    39   23   24 ar
    40   23   47 1
    41   24   29 1
    42   24   25 ar
    43   25   26 ar
    44   25   27 1
    45   26   48 1
    46   27   28 1
    47   28   29 2
    48   28   49 1
    49   29   30 1
    50   30   31 1
    51   30   50 1
    52   30   51 1
    53   31   32 2
    54   31   33 1
@<TRIPOS>MOLECULE
CHEMBL214719
   62    66     0     0     0
SMALL
USER_CHARGES

@<TRIPOS>ATOM
      1 C1          6.8777   -3.1167   -2.3763 C.ar      1 <0>        -0.1188
      2 C2          5.6127   -3.6348   -2.1706 C.ar      1 <0>        -0.1141
      3 C3          4.6812   -2.9164   -1.4446 C.ar      1 <0>        -0.1055
      4 C4          5.0148   -1.6800   -0.9240 C.ar      1 <0>        -0.0830
      5 C5          6.2801   -1.1623   -1.1289 C.ar      1 <0>        -0.1156
      6 C6          7.2111   -1.8801   -1.8561 C.ar      1 <0>        -0.1198
      7 C7          3.9990   -0.8964   -0.1334 C.3       1 <0>        -0.0402
      8 C8          4.2137   -1.1371    1.3387 C.ar      1 <0>        -0.1181
      9 C9          5.0161   -0.2757    2.0780 C.ar      1 <0>         0.1591
     10 N1          5.2258   -0.4535    3.3603 N.ar      1 <0>        -0.4748
     11 C10         4.6786   -1.4745    4.0283 C.ar      1 <0>         0.1641
     12 C11         3.8476   -2.3993    3.3507 C.ar      1 <0>        -0.0902
     13 C12         3.6068   -2.2172    1.9653 C.ar      1 <0>         0.0325
     14 C13         2.7408   -3.1518    1.2101 C.ar      1 <0>        -0.0170
     15 C14         1.5135   -2.7180    0.7080 C.ar      1 <0>        -0.1448
     16 C15         0.7088   -3.5911    0.0049 C.ar      1 <0>        -0.0747
     17 C16         1.1150   -4.8962   -0.2042 C.ar      1 <0>        -0.2044
     18 C17         2.3345   -5.3363    0.2918 C.ar      1 <0>         0.1428
     19 C18         3.1518   -4.4660    0.9939 C.ar      1 <0>        -0.1317
     20 O1          2.7289   -6.6202    0.0840 O.3       1 <0>        -0.3010
     21 C19         1.8389   -7.4611   -0.6528 C.3       1 <0>         0.1127
     22 C20         2.4397   -8.8370   -0.7824 C.ar      1 <0>        -0.1316
     23 C21         3.2533   -9.1374   -1.8588 C.ar      1 <0>        -0.0906
     24 C22         3.8044  -10.3996   -1.9777 C.ar      1 <0>        -0.1209
     25 C23         3.5422  -11.3612   -1.0199 C.ar      1 <0>        -0.0021
     26 C24         2.7293  -11.0606    0.0570 C.ar      1 <0>        -0.1211
     27 C25         2.1817   -9.7971    0.1781 C.ar      1 <0>        -0.0909
     28 C26         4.1422  -12.7375   -1.1500 C.3       1 <0>        -0.1634
     29 C27         5.4788  -12.7706   -0.4547 C.2       1 <0>         0.4968
     30 O2          5.9048  -11.7694    0.0954 O.co2     1 <0>        -0.6852
     31 O3          6.1343  -13.7985   -0.4424 O.co2     1 <0>        -0.7010
     32 C28         3.2766   -3.4664    4.0560 C.ar      1 <0>        -0.0523
     33 C29         3.5267   -3.6040    5.3887 C.ar      1 <0>        -0.1268
     34 C30         4.3430   -2.6964    6.0589 C.ar      1 <0>        -0.0361
     35 C31         4.9142   -1.6490    5.4032 C.ar      1 <0>        -0.1705
     36 C32         5.7946   -0.6793    6.1487 C.3       1 <0>         0.5210
     37 F1          5.8755   -1.0610    7.4922 F         1 <0>        -0.1820
     38 F2          7.0749   -0.6834    5.5848 F         1 <0>        -0.1693
     39 F3          5.2506    0.6066    6.0612 F         1 <0>        -0.1710
     40 H1          7.6069   -3.6799   -2.9397 H         1 <0>         0.1213
     41 H2          5.3521   -4.6007   -2.5774 H         1 <0>         0.1222
     42 H3          3.6927   -3.3208   -1.2845 H         1 <0>         0.1206
     43 H4          6.5406   -0.1962   -0.7224 H         1 <0>         0.1196
     44 H5          8.1995   -1.4755   -2.0165 H         1 <0>         0.1206
     45 H6          4.1125    0.1662   -0.3481 H         1 <0>         0.0886
     46 H7          2.9954   -1.2181   -0.4115 H         1 <0>         0.0916
     47 H8          5.4804    0.5639    1.5820 H         1 <0>         0.1645
     48 H9          1.1932   -1.6994    0.8698 H         1 <0>         0.1254
     49 H10        -0.2411   -3.2541   -0.3830 H         1 <0>         0.1287
     50 H11         0.4811   -5.5755   -0.7549 H         1 <0>         0.1315
     51 H12         4.1029   -4.8059    1.3764 H         1 <0>         0.1325
     52 H13         0.8855   -7.5287   -0.1288 H         1 <0>         0.0672
     53 H14         1.6789   -7.0396   -1.6452 H         1 <0>         0.0672
     54 H15         3.4582   -8.3861   -2.6071 H         1 <0>         0.1149
     55 H16         4.4396  -10.6344   -2.8190 H         1 <0>         0.1178
     56 H17         2.5242  -11.8120    0.8051 H         1 <0>         0.1178
     57 H18         1.5495   -9.5611    1.0214 H         1 <0>         0.1151
     58 H19         3.4763  -13.4689   -0.6921 H         1 <0>         0.0708
     59 H20         4.2753  -12.9776   -2.2048 H         1 <0>         0.0708
     60 H21         2.6414   -4.1759    3.5466 H         1 <0>         0.1414
     61 H22         3.0861   -4.4270    5.9318 H         1 <0>         0.1429
     62 H23         4.5261   -2.8258    7.1153 H         1 <0>         0.1467
@<TRIPOS>BOND
     1    1    6 ar
     2    1    2 ar
     3    1   40 1
     4    2    3 ar
     5    2   41 1
     6    3    4 ar
     7    3   42 1
     8    4    5 ar
     9    4    7 1
    10    5    6 ar
    11    5   43 1
    12    6   44 1
    13    7    8 1
    14    7   45 1
    15    7   46 1
    16    8   13 ar
    17    8    9 ar
    18    9   10 ar
    19    9   47 1
    20   10   11 ar
    21   11   35 ar
    22   11   12 ar
    23   12   13 ar
    24   12   32 ar
    25   13   14 1
    26   14   19 ar
    27   14   15 ar
    28   15   16 ar
    29   15   48 1
    30   16   17 ar
    31   16   49 1
    32   17   18 ar
    33   17   50 1
    34   18   19 ar
    35   18   20 1
    36   19   51 1
    37   20   21 1
    38   21   22 1
    39   21   52 1
    40   21   53 1
    41   22   27 ar
    42   22   23 ar
    43   23   24 ar
    44   23   54 1
    45   24   25 ar
    46   24   55 1
    47   25   26 ar
    48   25   28 1
    49   26   27 ar
    50   26   56 1
    51   27   57 1
    52   28   29 1
    53   28   58 1
    54   28   59 1
    55   29   30 2
    56   29   31 1
    57   32   33 ar
    58   32   60 1
    59   33   34 ar
    60   33   61 1
    61   34   35 ar
    62   34   62 1
    63   35   36 1
    64   36   37 1
    65   36   38 1
    66   36   39 1
@<TRIPOS>MOLECULE
CHEMBL234799
   51    54     0     0     0
SMALL
USER_CHARGES

@<TRIPOS>ATOM
      1 C1         -0.0167    1.3779    0.0096 C.ar      1 <0>        -0.1254
      2 C2          1.1711    2.0854    0.0021 C.ar      1 <0>        -0.0854
      3 C3          2.3773    1.4107   -0.0130 C.ar      1 <0>        -0.1053
      4 C4          2.3960    0.0283   -0.0201 C.ar      1 <0>        -0.0673
      5 C5          1.2086   -0.6790   -0.0117 C.ar      1 <0>        -0.0926
      6 C6          0.0021   -0.0041    0.0020 C.ar      1 <0>        -0.0807
      7 C7          1.2291   -2.1858   -0.0204 C.3       1 <0>         0.1009
      8 O1          1.2497   -2.6697    1.3240 O.3       1 <0>        -0.3073
      9 C8          1.2698   -4.0181    1.4943 C.ar      1 <0>         0.1432
     10 C9          1.2753   -4.8542    0.3813 C.ar      1 <0>        -0.2248
     11 C10         1.2955   -6.2118    0.5373 C.ar      1 <0>        -0.0173
     12 C11         1.3106   -6.7618    1.8184 C.ar      1 <0>        -0.1398
     13 C12         1.3052   -5.9254    2.9473 C.ar      1 <0>         0.0890
     14 C13         1.2903   -4.5477    2.7719 C.ar      1 <0>        -0.1505
     15 O2          1.3227   -6.7213    4.0354 O.3       1 <0>        -0.1961
     16 C14         1.3391   -8.0185    3.6805 C.2       1 <0>        -0.0335
     17 C15         1.3331   -8.1320    2.3458 C.2       1 <0>        -0.0976
     18 C16         1.3463   -9.4093    1.5461 C.3       1 <0>        -0.1282
     19 C17         2.7643   -9.7494    1.1661 C.2       1 <0>         0.4951
     20 O3          3.6795   -9.0221    1.5124 O.co2     1 <0>        -0.6854
     21 O4          2.9965  -10.7520    0.5122 O.co2     1 <0>        -0.7029
     22 C18         3.6720    2.1819   -0.0222 C.3       1 <0>         0.1008
     23 O5          4.0945    2.4194    1.3220 O.3       1 <0>        -0.2999
     24 C19         5.2538    3.1080    1.4918 C.ar      1 <0>         0.1665
     25 C20         5.9669    3.5512    0.3874 C.ar      1 <0>        -0.2134
     26 C21         7.1448    4.2514    0.5627 C.ar      1 <0>        -0.0275
     27 C22         7.6133    4.5103    1.8375 C.ar      1 <0>        -0.2271
     28 C23         6.9047    4.0693    2.9399 C.ar      1 <0>        -0.0292
     29 C24         5.7231    3.3740    2.7700 C.ar      1 <0>        -0.1524
     30 C25         8.8988    5.2739    2.0258 C.3       1 <0>         0.5124
     31 F1          8.6210    6.6429    2.1023 F         1 <0>        -0.1785
     32 F2          9.5198    4.8572    3.2081 F         1 <0>        -0.1774
     33 F3          9.7489    5.0305    0.9417 F         1 <0>        -0.1784
     34 H1         -0.9591    1.9051    0.0259 H         1 <0>         0.1291
     35 H2          1.1565    3.1653    0.0076 H         1 <0>         0.1256
     36 H3          3.3385   -0.4989   -0.0326 H         1 <0>         0.1287
     37 H4         -0.9258   -0.5567    0.0079 H         1 <0>         0.1289
     38 H5          0.3388   -2.5583   -0.5270 H         1 <0>         0.0739
     39 H6          2.1185   -2.5341   -0.5456 H         1 <0>         0.0739
     40 H7          1.2632   -4.4277   -0.6108 H         1 <0>         0.1293
     41 H8          1.2994   -6.8566   -0.3291 H         1 <0>         0.1284
     42 H9          1.2907   -3.8921    3.6302 H         1 <0>         0.1341
     43 H10         1.3552   -8.8484    4.3715 H         1 <0>         0.2019
     44 H11         0.9269  -10.2175    2.1454 H         1 <0>         0.0721
     45 H12         0.7495   -9.2790    0.6434 H         1 <0>         0.0704
     46 H13         4.4344    1.6057   -0.5463 H         1 <0>         0.0770
     47 H14         3.5236    3.1349   -0.5302 H         1 <0>         0.0762
     48 H15         5.6017    3.3486   -0.6086 H         1 <0>         0.1405
     49 H16         7.7003    4.5965   -0.2968 H         1 <0>         0.1385
     50 H17         7.2730    4.2725    3.9346 H         1 <0>         0.1430
     51 H18         5.1677    3.0337    3.6314 H         1 <0>         0.1448
@<TRIPOS>BOND
     1    1    6 ar
     2    1    2 ar
     3    1   34 1
     4    2    3 ar
     5    2   35 1
     6    3    4 ar
     7    3   22 1
     8    4    5 ar
     9    4   36 1
    10    5    6 ar
    11    5    7 1
    12    6   37 1
    13    7    8 1
    14    7   38 1
    15    7   39 1
    16    8    9 1
    17    9   14 ar
    18    9   10 ar
    19   10   11 ar
    20   10   40 1
    21   11   12 ar
    22   11   41 1
    23   12   17 1
    24   12   13 ar
    25   13   14 ar
    26   13   15 1
    27   14   42 1
    28   15   16 1
    29   16   17 2
    30   16   43 1
    31   17   18 1
    32   18   19 1
    33   18   44 1
    34   18   45 1
    35   19   20 2
    36   19   21 1
    37   22   23 1
    38   22   46 1
    39   22   47 1
    40   23   24 1
    41   24   29 ar
    42   24   25 ar
    43   25   26 ar
    44   25   48 1
    45   26   27 ar
    46   26   49 1
    47   27   28 ar
    48   27   30 1
    49   28   29 ar
    50   28   50 1
    51   29   51 1
    52   30   31 1
    53   30   32 1
    54   30   33 1
@<TRIPOS>MOLECULE
CHEMBL234800
   51    54     0     0     0
SMALL
USER_CHARGES

@<TRIPOS>ATOM
      1 C1         -0.0167    1.3781    0.0096 C.ar      1 <0>        -0.0960
      2 C2          1.1709    2.0855    0.0021 C.ar      1 <0>        -0.0961
      3 C3          2.3773    1.4107   -0.0130 C.ar      1 <0>        -0.0761
      4 C4          2.3960    0.0285   -0.0201 C.ar      1 <0>        -0.0969
      5 C5          1.2085   -0.6789   -0.0117 C.ar      1 <0>        -0.0968
      6 C6          0.0021   -0.0041    0.0020 C.ar      1 <0>        -0.0950
      7 C7         -1.2926   -0.7753    0.0107 C.3       1 <0>         0.0997
      8 O1         -1.7152   -1.0118   -1.3338 O.3       1 <0>        -0.3008
      9 C8         -2.8744   -1.7003   -1.5041 C.ar      1 <0>         0.1663
     10 C9         -3.5935   -2.1342   -0.3998 C.ar      1 <0>        -0.2131
     11 C10        -4.7718   -2.8335   -0.5756 C.ar      1 <0>        -0.0272
     12 C11        -5.2345   -3.1014   -1.8507 C.ar      1 <0>        -0.2270
     13 C12        -4.5195   -2.6704   -2.9529 C.ar      1 <0>        -0.0296
     14 C13        -3.3437   -1.9654   -2.7824 C.ar      1 <0>        -0.1533
     15 C14        -6.5200   -3.8648   -2.0396 C.3       1 <0>         0.5123
     16 F1         -7.5920   -2.9675   -2.0915 F         1 <0>        -0.1777
     17 F2         -6.4605   -4.5900   -3.2345 F         1 <0>        -0.1780
     18 F3         -6.7009   -4.7458   -0.9679 F         1 <0>        -0.1786
     19 C15         3.6720    2.1819   -0.0222 C.3       1 <0>         0.0985
     20 O2          4.0946    2.4194    1.3220 O.3       1 <0>        -0.3075
     21 C16         5.2540    3.1081    1.4919 C.ar      1 <0>         0.1431
     22 C17         5.9640    3.5494    0.3787 C.ar      1 <0>        -0.2246
     23 C18         7.1312    4.2430    0.5342 C.ar      1 <0>        -0.0170
     24 C19         7.6130    4.5098    1.8151 C.ar      1 <0>        -0.1397
     25 C20         6.9030    4.0683    2.9442 C.ar      1 <0>         0.0888
     26 C21         5.7155    3.3695    2.7693 C.ar      1 <0>        -0.1506
     27 O3          7.5947    4.4633    4.0320 O.3       1 <0>        -0.1962
     28 C22         8.7063    5.1320    3.6767 C.2       1 <0>        -0.0337
     29 C23         8.7939    5.2056    2.3420 C.2       1 <0>        -0.0974
     30 C24         9.8854    5.8689    1.5420 C.3       1 <0>        -0.1284
     31 C25         9.4672    7.2731    1.1895 C.2       1 <0>         0.4952
     32 O4          8.3834    7.6961    1.5540 O.co2     1 <0>        -0.6855
     33 O5         10.2127    7.9862    0.5397 O.co2     1 <0>        -0.7027
     34 H1         -0.9591    1.9053    0.0259 H         1 <0>         0.1275
     35 H2          1.1563    3.1654    0.0076 H         1 <0>         0.1310
     36 H3          3.3385   -0.4987   -0.0326 H         1 <0>         0.1298
     37 H4          1.2231   -1.7588   -0.0179 H         1 <0>         0.1270
     38 H5         -1.1443   -1.7285    0.5180 H         1 <0>         0.0767
     39 H6         -2.0551   -0.1993    0.5352 H         1 <0>         0.0769
     40 H7         -3.2321   -1.9258    0.5964 H         1 <0>         0.1410
     41 H8         -5.3320   -3.1715    0.2837 H         1 <0>         0.1387
     42 H9         -4.8827   -2.8812   -3.9478 H         1 <0>         0.1428
     43 H10        -2.7879   -1.6251   -3.6436 H         1 <0>         0.1443
     44 H11         4.4344    1.6056   -0.5463 H         1 <0>         0.0740
     45 H12         3.5237    3.1349   -0.5302 H         1 <0>         0.0751
     46 H13         5.5905    3.3422   -0.6132 H         1 <0>         0.1296
     47 H14         7.6788    4.5831   -0.3323 H         1 <0>         0.1286
     48 H15         5.1563    3.0279    3.6278 H         1 <0>         0.1340
     49 H16         9.4241    5.5493    4.3673 H         1 <0>         0.2019
     50 H17        10.8010    5.8999    2.1325 H         1 <0>         0.0722
     51 H18        10.0615    5.3019    0.6279 H         1 <0>         0.0705
@<TRIPOS>BOND
     1    1    6 ar
     2    1    2 ar
     3    1   34 1
     4    2    3 ar
     5    2   35 1
     6    3    4 ar
     7    3   19 1
     8    4    5 ar
     9    4   36 1
    10    5    6 ar
    11    5   37 1
    12    6    7 1
    13    7    8 1
    14    7   38 1
    15    7   39 1
    16    8    9 1
    17    9   14 ar
    18    9   10 ar
    19   10   11 ar
    20   10   40 1
    21   11   12 ar
    22   11   41 1
    23   12   13 ar
    24   12   15 1
    25   13   14 ar
    26   13   42 1
    27   14   43 1
    28   15   16 1
    29   15   17 1
    30   15   18 1
    31   19   20 1
    32   19   44 1
    33   19   45 1
    34   20   21 1
    35   21   26 ar
    36   21   22 ar
    37   22   23 ar
    38   22   46 1
    39   23   24 ar
    40   23   47 1
    41   24   29 1
    42   24   25 ar
    43   25   26 ar
    44   25   27 1
    45   26   48 1
    46   27   28 1
    47   28   29 2
    48   28   49 1
    49   29   30 1
    50   30   31 1
    51   30   50 1
    52   30   51 1
    53   31   32 2
    54   31   33 1
@<TRIPOS>MOLECULE
CHEMBL234801
   37    39     0     0     0
SMALL
USER_CHARGES

@<TRIPOS>ATOM
      1 C1         -0.0184    1.5028    0.0103 C.3       1 <0>        -0.0838
      2 C2          0.0021   -0.0041    0.0020 C.2       1 <0>         0.0828
      3 C3          0.0059   -0.7076   -1.1591 C.2       1 <0>        -0.1740
      4 S1          0.0324   -2.3789   -0.5312 S.3       1 <0>         0.2367
      5 C4          0.0357   -2.0088    1.1107 C.2       1 <0>        -0.0884
      6 N1          0.0226   -0.6992    1.1217 N.2       1 <0>        -0.4557
      7 C5          0.0549   -2.9548    2.2837 C.3       1 <0>         0.5714
      8 F1         -0.0641   -2.2264    3.4722 F         1 <0>        -0.1527
      9 F2         -1.0138   -3.8514    2.1772 F         1 <0>        -0.1612
     10 F3          1.2603   -3.6647    2.2905 F         1 <0>        -0.1602
     11 C6         -0.0083   -0.2146   -2.5831 C.3       1 <0>         0.1489
     12 O1          1.3344   -0.0400   -3.0402 O.3       1 <0>        -0.3123
     13 C7          1.4998    0.4035   -4.3150 C.ar      1 <0>         0.0821
     14 C8          0.3855    0.6702   -5.1066 C.ar      1 <0>        -0.1895
     15 C9          0.5350    1.1202   -6.3992 C.ar      1 <0>        -0.0740
     16 C10         1.8081    1.3125   -6.9257 C.ar      1 <0>         0.0901
     17 C11         2.9353    1.0440   -6.1290 C.ar      1 <0>        -0.0751
     18 C12         2.7716    0.5929   -4.8173 C.ar      1 <0>        -0.1066
     19 C13         4.1018    1.3423   -6.9633 C.2       1 <0>        -0.2335
     20 C14         3.6385    1.7527   -8.1546 C.2       1 <0>         0.0804
     21 N2          2.2705    1.7417   -8.1519 N.pl3     1 <0>        -0.4410
     22 C15         1.4234    2.1276   -9.2831 C.3       1 <0>         0.0313
     23 C16         1.0212    3.5729   -9.1395 C.2       1 <0>         0.4801
     24 O2          1.4066    4.2205   -8.1811 O.co2     1 <0>        -0.6713
     25 O3          0.3106    4.0945   -9.9817 O.co2     1 <0>        -0.6921
     26 H1          1.0042    1.8801    0.0026 H         1 <0>         0.0860
     27 H2         -0.5455    1.8639   -0.8728 H         1 <0>         0.0826
     28 H3         -0.5286    1.8543    0.9071 H         1 <0>         0.0802
     29 H4         -0.5152   -0.9438   -3.2150 H         1 <0>         0.0828
     30 H5         -0.5357    0.7380   -2.6326 H         1 <0>         0.0951
     31 H6         -0.6052    0.5224   -4.7029 H         1 <0>         0.1239
     32 H7         -0.3361    1.3236   -7.0044 H         1 <0>         0.1194
     33 H8          3.6349    0.3895   -4.2011 H         1 <0>         0.1240
     34 H9          5.1384    1.2502   -6.6745 H         1 <0>         0.1417
     35 H10         4.2545    2.0477   -8.9911 H         1 <0>         0.1611
     36 H11         1.9764    1.9950  -10.2130 H         1 <0>         0.0880
     37 H12         0.5309    1.5020   -9.2987 H         1 <0>         0.0827
@<TRIPOS>BOND
     1    1    2 1
     2    1   26 1
     3    1   27 1
     4    1   28 1
     5    2    6 1
     6    2    3 2
     7    3    4 1
     8    3   11 1
     9    4    5 1
    10    5    6 2
    11    5    7 1
    12    7    8 1
    13    7    9 1
    14    7   10 1
    15   11   12 1
    16   11   29 1
    17   11   30 1
    18   12   13 1
    19   13   18 ar
    20   13   14 ar
    21   14   15 ar
    22   14   31 1
    23   15   16 ar
    24   15   32 1
    25   16   21 1
    26   16   17 ar
    27   17   18 ar
    28   17   19 1
    29   18   33 1
    30   19   20 2
    31   19   34 1
    32   20   21 1
    33   20   35 1
    34   21   22 1
    35   22   23 1
    36   22   36 1
    37   22   37 1
    38   23   24 2
    39   23   25 1
@<TRIPOS>MOLECULE
CHEMBL197496
   63    67     0     0     0
SMALL
USER_CHARGES

@<TRIPOS>ATOM
      1 C1         -0.0187    1.5258    0.0104 C.3       1 <0>        -0.1516
      2 C2          0.0021   -0.0041    0.0020 C.3       1 <0>        -0.1165
      3 C3         -1.4333   -0.5336    0.0129 C.3       1 <0>        -0.0680
      4 C4         -1.4129   -2.0405    0.0046 C.ar      1 <0>        -0.1280
      5 C5         -1.4091   -2.7284   -1.1962 C.ar      1 <0>         0.1949
      6 C6         -1.3902   -4.1207   -1.2118 C.ar      1 <0>        -0.2252
      7 C7         -1.3752   -4.8252   -0.0419 C.ar      1 <0>        -0.0032
      8 C8         -1.3783   -4.1476    1.1779 C.ar      1 <0>        -0.2230
      9 C9         -1.3920   -2.7435    1.2015 C.ar      1 <0>         0.1282
     10 O1         -1.3848   -2.3644    2.4958 O.3       1 <0>        -0.0829
     11 N1         -1.3608   -3.5099    3.3232 N.2       1 <0>        -0.2856
     12 C10        -1.3652   -4.5862    2.5826 C.2       1 <0>         0.1818
     13 C11        -1.3448   -5.9876    3.0666 C.ar      1 <0>        -0.0403
     14 C12        -2.0229   -6.9811    2.3621 C.ar      1 <0>        -0.0860
     15 C13        -2.0005   -8.2836    2.8174 C.ar      1 <0>        -0.1193
     16 C14        -1.3069   -8.6042    3.9706 C.ar      1 <0>        -0.0995
     17 C15        -0.6322   -7.6225    4.6738 C.ar      1 <0>        -0.1200
     18 C16        -0.6428   -6.3176    4.2248 C.ar      1 <0>        -0.0814
     19 O2         -1.4243   -2.0408   -2.3676 O.3       1 <0>        -0.2960
     20 C17        -1.4194   -2.8103   -3.5717 C.3       1 <0>         0.0614
     21 C18        -1.4384   -1.8697   -4.7782 C.3       1 <0>        -0.1196
     22 C19        -1.4331   -2.6936   -6.0674 C.3       1 <0>         0.0658
     23 O3         -1.4508   -1.8150   -7.1943 O.3       1 <0>        -0.3088
     24 C20        -1.4488   -2.3905   -8.4252 C.ar      1 <0>         0.1702
     25 C21        -1.4360   -3.7664   -8.5496 C.ar      1 <0>        -0.2534
     26 C22        -1.4343   -4.3561   -9.8056 C.ar      1 <0>        -0.0752
     27 C23        -1.4449   -3.5831  -10.9459 C.ar      1 <0>        -0.1483
     28 C24        -1.4579   -2.1950  -10.8462 C.ar      1 <0>         0.1493
     29 C25        -1.4655   -1.5930   -9.5760 C.ar      1 <0>        -0.1353
     30 C26        -1.4863   -0.1474   -9.8117 C.2       1 <0>        -0.2060
     31 C27        -1.4954    0.0330  -11.1416 C.2       1 <0>         0.0599
     32 N2         -1.4702   -1.1800  -11.7766 N.pl3     1 <0>        -0.4400
     33 C28        -1.4721   -1.3697  -13.2293 C.3       1 <0>         0.0322
     34 C29        -2.8868   -1.5714  -13.7077 C.2       1 <0>         0.4805
     35 O4         -3.8081   -1.5579  -12.9093 O.co2     1 <0>        -0.6711
     36 O5         -3.1101   -1.7481  -14.8932 O.co2     1 <0>        -0.6925
     37 H1          1.0039    1.9031    0.0027 H         1 <0>         0.0542
     38 H2         -0.5459    1.8868   -0.8726 H         1 <0>         0.0568
     39 H3         -0.5289    1.8773    0.9072 H         1 <0>         0.0535
     40 H4          0.5123   -0.3556   -0.8948 H         1 <0>         0.0645
     41 H5          0.5293   -0.3651    0.8851 H         1 <0>         0.0585
     42 H6         -1.9435   -0.1821    0.9097 H         1 <0>         0.0729
     43 H7         -1.9605   -0.1726   -0.8702 H         1 <0>         0.0835
     44 H8         -1.3878   -4.6467   -2.1550 H         1 <0>         0.1437
     45 H9         -1.3613   -5.9050   -0.0608 H         1 <0>         0.1377
     46 H10        -2.5650   -6.7318    1.4619 H         1 <0>         0.1305
     47 H11        -2.5257   -9.0541    2.2726 H         1 <0>         0.1322
     48 H12        -1.2924   -9.6249    4.3233 H         1 <0>         0.1289
     49 H13        -0.0926   -7.8785    5.5737 H         1 <0>         0.1309
     50 H14        -0.1118   -5.5528    4.7720 H         1 <0>         0.1301
     51 H15        -0.5209   -3.4265   -3.6054 H         1 <0>         0.0713
     52 H16        -2.3007   -3.4513   -3.5968 H         1 <0>         0.0717
     53 H17        -2.3369   -1.2535   -4.7444 H         1 <0>         0.0880
     54 H18        -0.5571   -1.2287   -4.7530 H         1 <0>         0.0873
     55 H19        -0.5346   -3.3098   -6.1011 H         1 <0>         0.0630
     56 H20        -2.3144   -3.3346   -6.0925 H         1 <0>         0.0638
     57 H21        -1.4269   -4.3860   -7.6651 H         1 <0>         0.1188
     58 H22        -1.4243   -5.4327   -9.8902 H         1 <0>         0.1205
     59 H23        -1.4428   -4.0546  -11.9176 H         1 <0>         0.1158
     60 H24        -1.4935    0.6264   -9.0583 H         1 <0>         0.1412
     61 H25        -1.5110    0.9924  -11.6373 H         1 <0>         0.1607
     62 H26        -1.0476   -0.4891  -13.7113 H         1 <0>         0.0883
     63 H27        -0.8747   -2.2457  -13.4820 H         1 <0>         0.0839
@<TRIPOS>BOND
     1    1    2 1
     2    1   37 1
     3    1   38 1
     4    1   39 1
     5    2    3 1
     6    2   40 1
     7    2   41 1
     8    3    4 1
     9    3   42 1
    10    3   43 1
    11    4    9 ar
    12    4    5 ar
    13    5    6 ar
    14    5   19 1
    15    6    7 ar
    16    6   44 1
    17    7    8 ar
    18    7   45 1
    19    8   12 1
    20    8    9 ar
    21    9   10 1
    22   10   11 1
    23   11   12 2
    24   12   13 1
    25   13   18 ar
    26   13   14 ar
    27   14   15 ar
    28   14   46 1
    29   15   16 ar
    30   15   47 1
    31   16   17 ar
    32   16   48 1
    33   17   18 ar
    34   17   49 1
    35   18   50 1
    36   19   20 1
    37   20   21 1
    38   20   51 1
    39   20   52 1
    40   21   22 1
    41   21   53 1
    42   21   54 1
    43   22   23 1
    44   22   55 1
    45   22   56 1
    46   23   24 1
    47   24   29 ar
    48   24   25 ar
    49   25   26 ar
    50   25   57 1
    51   26   27 ar
    52   26   58 1
    53   27   28 ar
    54   27   59 1
    55   28   32 1
    56   28   29 ar
    57   29   30 1
    58   30   31 2
    59   30   60 1
    60   31   32 1
    61   31   61 1
    62   32   33 1
    63   33   34 1
    64   33   62 1
    65   33   63 1
    66   34   35 2
    67   34   36 1
@<TRIPOS>MOLECULE
CHEMBL220893
   59    63     0     0     0
SMALL
USER_CHARGES

@<TRIPOS>ATOM
      1 C1          1.0835    0.7134    0.3041 C.ar      1 <0>        -0.0670
      2 C2          2.1966    1.4922    0.1819 C.ar      1 <0>        -0.1381
      3 C3          3.4449    0.9098   -0.0618 C.ar      1 <0>        -0.0140
      4 C4          3.5657   -0.4692   -0.1822 C.ar      1 <0>        -0.1261
      5 C5          2.4391   -1.2715   -0.0596 C.ar      1 <0>         0.0982
      6 C6          1.1875   -0.6751    0.1857 C.ar      1 <0>        -0.1118
      7 C7          0.2233   -1.7749    0.2599 C.2       1 <0>        -0.2048
      8 C8          0.9091   -2.9129    0.0659 C.2       1 <0>         0.0497
      9 N1          2.2344   -2.6322   -0.1267 N.pl3     1 <0>        -0.5978
     10 H1          2.9266   -3.2928   -0.2865 H         1 <0>         0.4155
     11 C9          4.6464    1.7692   -0.1928 C.ar      1 <0>        -0.0827
     12 C10         5.8922    1.1951   -0.4414 C.ar      1 <0>        -0.0710
     13 C11         7.0074    1.9970   -0.5632 C.ar      1 <0>        -0.1493
     14 C12         6.8905    3.3747   -0.4386 C.ar      1 <0>         0.1351
     15 C13         5.6513    3.9496   -0.1910 C.ar      1 <0>        -0.2055
     16 C14         4.5314    3.1534   -0.0734 C.ar      1 <0>        -0.0659
     17 O1          7.9914    4.1622   -0.5587 O.3       1 <0>        -0.3110
     18 C15         7.7993    5.5714   -0.4192 C.3       1 <0>         0.0634
     19 C16         9.1411    6.2878   -0.5843 C.3       1 <0>        -0.1189
     20 C17         8.9355    7.7965   -0.4350 C.3       1 <0>         0.0658
     21 O2         10.1888    8.4656   -0.5892 O.3       1 <0>        -0.3153
     22 C18        10.1818    9.8205   -0.4842 C.ar      1 <0>         0.1140
     23 C19         8.9944   10.4927   -0.2323 C.ar      1 <0>        -0.2082
     24 C20         8.9925   11.8686   -0.1266 C.ar      1 <0>        -0.0703
     25 C21        10.1711   12.5823   -0.2714 C.ar      1 <0>        -0.1080
     26 C22        11.3555   11.9148   -0.5226 C.ar      1 <0>        -0.0612
     27 C23        11.3617   10.5343   -0.6229 C.ar      1 <0>        -0.1402
     28 C24        12.4895   12.9109   -0.6385 C.3       1 <0>        -0.0827
     29 C25        11.8064   14.2759   -0.8669 C.3       1 <0>        -0.1019
     30 C26        10.4289   14.0725   -0.2013 C.3       1 <0>        -0.0265
     31 H2         10.4580   14.4028    0.8370 H         1 <0>         0.0889
     32 C27         9.3492   14.8348   -0.9720 C.3       1 <0>        -0.1741
     33 C28         9.5423   16.3163   -0.7743 C.2       1 <0>         0.4909
     34 O3         10.3912   16.7223    0.0008 O.co2     1 <0>        -0.6952
     35 O4          8.8495   17.1088   -1.3896 O.co2     1 <0>        -0.7083
     36 H3          0.1234    1.1691    0.4967 H         1 <0>         0.1244
     37 H4          2.1136    2.5651    0.2735 H         1 <0>         0.1259
     38 H5          4.5312   -0.9149   -0.3707 H         1 <0>         0.1228
     39 H6         -0.8384   -1.6873    0.4375 H         1 <0>         0.1464
     40 H7          0.4784   -3.9033    0.0626 H         1 <0>         0.1702
     41 H8          5.9838    0.1233   -0.5382 H         1 <0>         0.1305
     42 H9          7.9729    1.5528   -0.7555 H         1 <0>         0.1331
     43 H10         5.5636    5.0216   -0.0941 H         1 <0>         0.1316
     44 H11         3.5669    3.6015    0.1148 H         1 <0>         0.1305
     45 H12         7.1046    5.9207   -1.1831 H         1 <0>         0.0681
     46 H13         7.3916    5.7866    0.5685 H         1 <0>         0.0679
     47 H14         9.8359    5.9384    0.1795 H         1 <0>         0.0861
     48 H15         9.5488    6.0726   -1.5720 H         1 <0>         0.0862
     49 H16         8.2408    8.1458   -1.1988 H         1 <0>         0.0645
     50 H17         8.5278    8.0117    0.5527 H         1 <0>         0.0643
     51 H18         8.0734    9.9401   -0.1196 H         1 <0>         0.1234
     52 H19         8.0680   12.3915    0.0695 H         1 <0>         0.1224
     53 H20        12.2877   10.0124   -0.8142 H         1 <0>         0.1240
     54 H21        13.0726   12.9291    0.2822 H         1 <0>         0.0793
     55 H22        13.1275   12.6607   -1.4862 H         1 <0>         0.0708
     56 H23        12.3610   15.0741   -0.3735 H         1 <0>         0.0854
     57 H24        11.6958   14.4805   -1.9318 H         1 <0>         0.0643
     58 H25         9.4238   14.5971   -2.0331 H         1 <0>         0.0567
     59 H26         8.3656   14.5442   -0.6028 H         1 <0>         0.0557
@<TRIPOS>BOND
     1    1    6 ar
     2    1    2 ar
     3    1   36 1
     4    2    3 ar
     5    2   37 1
     6    3    4 ar
     7    3   11 1
     8    4    5 ar
     9    4   38 1
    10    5    9 1
    11    5    6 ar
    12    6    7 1
    13    7    8 2
    14    7   39 1
    15    8    9 1
    16    8   40 1
    17    9   10 1
    18   11   16 ar
    19   11   12 ar
    20   12   13 ar
    21   12   41 1
    22   13   14 ar
    23   13   42 1
    24   14   15 ar
    25   14   17 1
    26   15   16 ar
    27   15   43 1
    28   16   44 1
    29   17   18 1
    30   18   19 1
    31   18   45 1
    32   18   46 1
    33   19   20 1
    34   19   47 1
    35   19   48 1
    36   20   21 1
    37   20   49 1
    38   20   50 1
    39   21   22 1
    40   22   27 ar
    41   22   23 ar
    42   23   24 ar
    43   23   51 1
    44   24   25 ar
    45   24   52 1
    46   25   30 1
    47   25   26 ar
    48   26   27 ar
    49   26   28 1
    50   27   53 1
    51   28   29 1
    52   28   54 1
    53   28   55 1
    54   29   30 1
    55   29   56 1
    56   29   57 1
    57   30   31 1
    58   30   32 1
    59   32   33 1
    60   32   58 1
    61   32   59 1
    62   33   34 2
    63   33   35 1
@<TRIPOS>MOLECULE
CHEMBL376418
   52    55     0     0     0
SMALL
USER_CHARGES

@<TRIPOS>ATOM
      1 C1          0.1782    2.4461    0.3969 C.ar      1 <0>        -0.0759
      2 C2          1.4093    3.0592    0.5035 C.ar      1 <0>        -0.1461
      3 C3          2.5718    2.3114    0.3768 C.ar      1 <0>         0.1318
      4 C4          2.4993    0.9452    0.1427 C.ar      1 <0>        -0.2037
      5 C5          1.2710    0.3266    0.0357 C.ar      1 <0>        -0.0665
      6 C6          0.1023    1.0747    0.1624 C.ar      1 <0>        -0.0522
      7 C7         -1.2210    0.4120    0.0477 C.2       1 <0>        -0.1390
      8 C8         -1.4799   -1.0123   -0.1901 C.2       1 <0>        -0.2084
      9 C9         -2.8167   -1.1472   -0.2162 C.2       1 <0>        -0.0324
     10 O1         -3.3805    0.0538   -0.0178 O.3       1 <0>        -0.1813
     11 C10        -2.4418    0.9977    0.1470 C.2       1 <0>        -0.0268
     12 O2          3.7834    2.9182    0.4818 O.3       1 <0>        -0.3110
     13 C11         4.9386    2.0890    0.3412 C.3       1 <0>         0.0636
     14 C12         6.2000    2.9423    0.4885 C.3       1 <0>        -0.1188
     15 C13         7.4369    2.0545    0.3379 C.3       1 <0>         0.0658
     16 O3          8.6149    2.8515    0.4754 O.3       1 <0>        -0.3152
     17 C14         9.8089    2.2115    0.3672 C.ar      1 <0>         0.1140
     18 C15         9.8468    0.8454    0.1279 C.ar      1 <0>        -0.2083
     19 C16        11.0617    0.2000    0.0188 C.ar      1 <0>        -0.0704
     20 C17        12.2443    0.9101    0.1477 C.ar      1 <0>        -0.1079
     21 C18        12.2092    2.2715    0.3864 C.ar      1 <0>        -0.0611
     22 C19        10.9922    2.9227    0.4901 C.ar      1 <0>        -0.1401
     23 C20        13.6204    2.8101    0.4863 C.3       1 <0>        -0.0828
     24 C21        14.5102    1.5707    0.7194 C.3       1 <0>        -0.1019
     25 C22        13.6818    0.4414    0.0709 C.3       1 <0>        -0.0266
     26 H1         13.9794    0.3031   -0.9685 H         1 <0>         0.0889
     27 C23        13.8577   -0.8621    0.8525 C.3       1 <0>        -0.1741
     28 C24        15.2563   -1.3851    0.6489 C.2       1 <0>         0.4910
     29 O4         16.0057   -0.8314   -0.1374 O.co2     1 <0>        -0.6953
     30 O5         15.6383   -2.3619    1.2704 O.co2     1 <0>        -0.7082
     31 H2         -0.7260    3.0278    0.4996 H         1 <0>         0.1288
     32 H3          1.4687    4.1221    0.6853 H         1 <0>         0.1342
     33 H4          3.4055    0.3660    0.0439 H         1 <0>         0.1312
     34 H5          1.2152   -0.7364   -0.1469 H         1 <0>         0.1263
     35 H6         -0.7454   -1.7936   -0.3184 H         1 <0>         0.1517
     36 H7         -3.3508   -2.0729   -0.3720 H         1 <0>         0.2041
     37 H8         -2.6260    2.0467    0.3260 H         1 <0>         0.2044
     38 H9          4.9290    1.3187    1.1124 H         1 <0>         0.0677
     39 H10         4.9308    1.6187   -0.6421 H         1 <0>         0.0675
     40 H11         6.2096    3.7126   -0.2827 H         1 <0>         0.0862
     41 H12         6.2078    3.4126    1.4718 H         1 <0>         0.0864
     42 H13         7.4273    1.2842    1.1091 H         1 <0>         0.0644
     43 H14         7.4291    1.5842   -0.6454 H         1 <0>         0.0641
     44 H15         8.9272    0.2880    0.0275 H         1 <0>         0.1233
     45 H16        11.0908   -0.8634   -0.1676 H         1 <0>         0.1224
     46 H17        10.9646    3.9870    0.6716 H         1 <0>         0.1241
     47 H18        13.9016    3.3084   -0.4414 H         1 <0>         0.0794
     48 H19        13.7037    3.4990    1.3269 H         1 <0>         0.0709
     49 H20        15.4711    1.6836    0.2174 H         1 <0>         0.0855
     50 H21        14.6477    1.3873    1.7851 H         1 <0>         0.0643
     51 H22        13.6905   -0.6750    1.9132 H         1 <0>         0.0567
     52 H23        13.1385   -1.5994    0.4959 H         1 <0>         0.0557
@<TRIPOS>BOND
     1    1    6 ar
     2    1    2 ar
     3    1   31 1
     4    2    3 ar
     5    2   32 1
     6    3    4 ar
     7    3   12 1
     8    4    5 ar
     9    4   33 1
    10    5    6 ar
    11    5   34 1
    12    6    7 1
    13    7   11 2
    14    7    8 1
    15    8    9 2
    16    8   35 1
    17    9   10 1
    18    9   36 1
    19   10   11 1
    20   11   37 1
    21   12   13 1
    22   13   14 1
    23   13   38 1
    24   13   39 1
    25   14   15 1
    26   14   40 1
    27   14   41 1
    28   15   16 1
    29   15   42 1
    30   15   43 1
    31   16   17 1
    32   17   22 ar
    33   17   18 ar
    34   18   19 ar
    35   18   44 1
    36   19   20 ar
    37   19   45 1
    38   20   25 1
    39   20   21 ar
    40   21   22 ar
    41   21   23 1
    42   22   46 1
    43   23   24 1
    44   23   47 1
    45   23   48 1
    46   24   25 1
    47   24   49 1
    48   24   50 1
    49   25   26 1
    50   25   27 1
    51   27   28 1
    52   27   51 1
    53   27   52 1
    54   28   29 2
    55   28   30 1
@<TRIPOS>MOLECULE
CHEMBL407201
   44    46     0     0     0
SMALL
USER_CHARGES

@<TRIPOS>ATOM
      1 C1         -0.0184    1.5028    0.0103 C.3       1 <0>        -0.1059
      2 C2          0.0021   -0.0041    0.0020 C.ar      1 <0>        -0.1051
      3 C3          0.0057   -0.6878   -1.1980 C.ar      1 <0>        -0.0567
      4 C4          0.0246   -2.0766   -1.2053 C.ar      1 <0>        -0.1412
      5 C5          0.0397   -2.7765   -0.0051 C.ar      1 <0>        -0.0930
      6 C6          0.0360   -2.0909    1.1933 C.ar      1 <0>        -0.1956
      7 C7          0.0229   -0.7036    1.1994 C.ar      1 <0>         0.1438
      8 O1          0.0254   -0.0293    2.3804 O.3       1 <0>        -0.2740
      9 C8          0.0474   -0.8131    3.5751 C.3       1 <0>        -0.0089
     10 C9          0.0468    0.0992    4.7746 C.2       1 <0>         0.5014
     11 O2          0.0293    1.3085    4.6207 O.co2     1 <0>        -0.6695
     12 O3          0.0640   -0.3721    5.8989 O.co2     1 <0>        -0.6866
     13 S1          0.0286   -2.9502   -2.7355 S.3       1 <0>        -0.0914
     14 C10         0.0549   -4.6962   -2.2439 C.3       1 <0>        -0.0524
     15 C11         0.0604   -5.5647   -3.4755 C.2       1 <0>         0.0976
     16 C12         1.1527   -6.0085   -4.1218 C.2       1 <0>        -0.2523
     17 C13         0.7244   -6.7897   -5.2218 C.2       1 <0>         0.1399
     18 N1         -0.5866   -6.8021   -5.2182 N.2       1 <0>        -0.2997
     19 O4         -1.0240   -6.0332   -4.1124 O.3       1 <0>        -0.0594
     20 C14         1.6028   -7.4727   -6.2044 C.ar      1 <0>        -0.0027
     21 C15         2.9879   -7.3802   -6.0865 C.ar      1 <0>        -0.0844
     22 C16         3.8000   -8.0171   -7.0029 C.ar      1 <0>        -0.0701
     23 C17         3.2410   -8.7463   -8.0369 C.ar      1 <0>        -0.1681
     24 C18         1.8665   -8.8414   -8.1586 C.ar      1 <0>        -0.0704
     25 C19         1.0451   -8.2131   -7.2444 C.ar      1 <0>        -0.0850
     26 C20         4.1328   -9.4391   -9.0347 C.3       1 <0>         0.5083
     27 F1          4.4169  -10.7335   -8.5863 F         1 <0>        -0.1743
     28 F2          3.4840   -9.5063  -10.2723 F         1 <0>        -0.1751
     29 F3          5.3255   -8.7209   -9.1718 F         1 <0>        -0.1746
     30 H1          1.0042    1.8801    0.0026 H         1 <0>         0.0692
     31 H2         -0.5455    1.8639   -0.8728 H         1 <0>         0.0615
     32 H3         -0.5286    1.8543    0.9071 H         1 <0>         0.0805
     33 H4         -0.0064   -0.1428   -2.1303 H         1 <0>         0.1305
     34 H5          0.0540   -3.8564   -0.0097 H         1 <0>         0.1195
     35 H6          0.0478   -2.6347    2.1263 H         1 <0>         0.1335
     36 H7         -0.8339   -1.4538    3.6055 H         1 <0>         0.0600
     37 H8          0.9458   -1.4302    3.5883 H         1 <0>         0.0600
     38 H9          0.9506   -4.8945   -1.6554 H         1 <0>         0.1253
     39 H10        -0.8291   -4.9187   -1.6464 H         1 <0>         0.1172
     40 H11         2.1777   -5.8043   -3.8495 H         1 <0>         0.1681
     41 H12         3.4254   -6.8108   -5.2797 H         1 <0>         0.1458
     42 H13         4.8739   -7.9458   -6.9127 H         1 <0>         0.1457
     43 H14         1.4352   -9.4119   -8.9678 H         1 <0>         0.1441
     44 H15        -0.0280   -8.2917   -7.3378 H         1 <0>         0.1445
@<TRIPOS>BOND
     1    1    2 1
     2    1   30 1
     3    1   31 1
     4    1   32 1
     5    2    7 ar
     6    2    3 ar
     7    3    4 ar
     8    3   33 1
     9    4    5 ar
    10    4   13 1
    11    5    6 ar
    12    5   34 1
    13    6    7 ar
    14    6   35 1
    15    7    8 1
    16    8    9 1
    17    9   10 1
    18    9   36 1
    19    9   37 1
    20   10   11 2
    21   10   12 1
    22   13   14 1
    23   14   15 1
    24   14   38 1
    25   14   39 1
    26   15   19 1
    27   15   16 2
    28   16   17 1
    29   16   40 1
    30   17   18 2
    31   17   20 1
    32   18   19 1
    33   20   25 ar
    34   20   21 ar
    35   21   22 ar
    36   21   41 1
    37   22   23 ar
    38   22   42 1
    39   23   24 ar
    40   23   26 1
    41   24   25 ar
    42   24   43 1
    43   25   44 1
    44   26   27 1
    45   26   28 1
    46   26   29 1
@<TRIPOS>MOLECULE
CHEMBL502518
   65    68     0     0     0
SMALL
USER_CHARGES

@<TRIPOS>ATOM
      1 C1          3.8097    0.3140   -4.2922 C.3       1 <0>        -0.1058
      2 C2          3.4089   -1.0607   -3.8226 C.ar      1 <0>        -0.1108
      3 C3          2.0859   -1.3335   -3.5353 C.ar      1 <0>        -0.0290
      4 C4          1.7167   -2.6009   -3.1029 C.ar      1 <0>        -0.1435
      5 C5          2.6792   -3.5929   -2.9599 C.ar      1 <0>        -0.0776
      6 C6          4.0011   -3.3179   -3.2477 C.ar      1 <0>        -0.2041
      7 C7          4.3680   -2.0532   -3.6846 C.ar      1 <0>         0.1447
      8 O1          5.6697   -1.7849   -3.9728 O.3       1 <0>        -0.2754
      9 C8          6.6041   -2.8535   -3.8084 C.3       1 <0>        -0.0066
     10 C9          7.9855   -2.3731   -4.1717 C.2       1 <0>         0.5017
     11 O2          8.1542   -1.2224   -4.5376 O.co2     1 <0>        -0.6696
     12 O3          8.9345   -3.1353   -4.0999 O.co2     1 <0>        -0.6882
     13 S1          0.0293   -2.9503   -2.7354 S.3       1 <0>         0.0028
     14 C10         0.0157   -4.6796   -2.3978 C.ar      1 <0>        -0.1565
     15 C11        -0.0729   -5.1325   -1.0887 C.ar      1 <0>        -0.0302
     16 C12        -0.0833   -6.4893   -0.8268 C.ar      1 <0>        -0.1396
     17 C13        -0.0052   -7.3982   -1.8659 C.ar      1 <0>        -0.0360
     18 C14         0.0838   -6.9546   -3.1728 C.ar      1 <0>        -0.1936
     19 C15         0.0881   -5.5966   -3.4448 C.ar      1 <0>         0.1740
     20 O4          0.1694   -5.1591   -4.7299 O.3       1 <0>        -0.2845
     21 C16         0.2406   -6.1558   -5.7514 C.3       1 <0>         0.1033
     22 C17         0.3249   -5.4882   -7.0998 C.ar      1 <0>        -0.1501
     23 C18        -0.8294   -5.1778   -7.8029 C.ar      1 <0>        -0.0488
     24 C19        -0.7037   -4.5640   -9.0395 C.ar      1 <0>        -0.1779
     25 C20         0.5590   -4.2838   -9.5271 C.ar      1 <0>         0.1105
     26 N1          1.6349   -4.5937   -8.8309 N.ar      1 <0>        -0.4815
     27 C21         1.5531   -5.1724   -7.6486 C.ar      1 <0>         0.1317
     28 C22        -0.0165   -8.8765   -1.5735 C.3       1 <0>         0.0963
     29 O5         -1.3640   -9.3521   -1.5749 O.3       1 <0>        -0.2995
     30 C23        -1.5518  -10.6748   -1.3258 C.ar      1 <0>         0.1654
     31 C24        -0.4618  -11.4970   -1.0794 C.ar      1 <0>        -0.2123
     32 C25        -0.6554  -12.8411   -0.8260 C.ar      1 <0>        -0.0266
     33 C26        -1.9340  -13.3673   -0.8183 C.ar      1 <0>        -0.2259
     34 C27        -3.0218  -12.5501   -1.0641 C.ar      1 <0>        -0.0298
     35 C28        -2.8341  -11.2041   -1.3119 C.ar      1 <0>        -0.1528
     36 C29        -2.1421  -14.8341   -0.5421 C.3       1 <0>         0.5122
     37 F1         -2.3045  -15.0311    0.8334 F         1 <0>        -0.1776
     38 F2         -3.2857  -15.2776   -1.2149 F         1 <0>        -0.1781
     39 F3         -1.0294  -15.5552   -0.9884 F         1 <0>        -0.1780
     40 C30         1.0433   -0.2565   -3.6904 C.3       1 <0>        -0.1144
     41 H1          3.7495    0.3584   -5.3796 H         1 <0>         0.0669
     42 H2          3.1376    1.0557   -3.8605 H         1 <0>         0.0635
     43 H3          4.8318    0.5223   -3.9761 H         1 <0>         0.0780
     44 H4          2.3933   -4.5785   -2.6235 H         1 <0>         0.1133
     45 H5          4.7494   -4.0886   -3.1363 H         1 <0>         0.1279
     46 H6          6.5965   -3.1863   -2.7705 H         1 <0>         0.0577
     47 H7          6.3253   -3.6831   -4.4580 H         1 <0>         0.0577
     48 H8         -0.1333   -4.4248   -0.2752 H         1 <0>         0.1438
     49 H9         -0.1523   -6.8407    0.1921 H         1 <0>         0.1328
     50 H10         0.1454   -7.6674   -3.9818 H         1 <0>         0.1346
     51 H11         1.1254   -6.7731   -5.5957 H         1 <0>         0.0762
     52 H12        -0.6508   -6.7818   -5.7109 H         1 <0>         0.0752
     53 H13        -1.8031   -5.4091   -7.3969 H         1 <0>         0.1355
     54 H14        -1.5812   -4.3084   -9.6148 H         1 <0>         0.1380
     55 H15         0.6655   -3.8057  -10.4897 H         1 <0>         0.1585
     56 H16         2.4566   -5.4064   -7.1052 H         1 <0>         0.1566
     57 H17         0.5552   -9.4026   -2.3380 H         1 <0>         0.0785
     58 H18         0.4315   -9.0571   -0.5963 H         1 <0>         0.0817
     59 H19         0.5371  -11.0866   -1.0859 H         1 <0>         0.1415
     60 H20         0.1928  -13.4816   -0.6341 H         1 <0>         0.1395
     61 H21        -4.0196  -12.9635   -1.0579 H         1 <0>         0.1429
     62 H22        -3.6845  -10.5653   -1.4994 H         1 <0>         0.1441
     63 H23         0.6396   -0.2847   -4.7024 H         1 <0>         0.0741
     64 H24         0.2392   -0.4234   -2.9737 H         1 <0>         0.0670
     65 H25         1.4970    0.7175   -3.5071 H         1 <0>         0.0763
@<TRIPOS>BOND
     1    1    2 1
     2    1   41 1
     3    1   42 1
     4    1   43 1
     5    2    7 ar
     6    2    3 ar
     7    3    4 ar
     8    3   40 1
     9    4    5 ar
    10    4   13 1
    11    5    6 ar
    12    5   44 1
    13    6    7 ar
    14    6   45 1
    15    7    8 1
    16    8    9 1
    17    9   10 1
    18    9   46 1
    19    9   47 1
    20   10   11 2
    21   10   12 1
    22   13   14 1
    23   14   19 ar
    24   14   15 ar
    25   15   16 ar
    26   15   48 1
    27   16   17 ar
    28   16   49 1
    29   17   18 ar
    30   17   28 1
    31   18   19 ar
    32   18   50 1
    33   19   20 1
    34   20   21 1
    35   21   22 1
    36   21   51 1
    37   21   52 1
    38   22   27 ar
    39   22   23 ar
    40   23   24 ar
    41   23   53 1
    42   24   25 ar
    43   24   54 1
    44   25   26 ar
    45   25   55 1
    46   26   27 ar
    47   27   56 1
    48   28   29 1
    49   28   57 1
    50   28   58 1
    51   29   30 1
    52   30   35 ar
    53   30   31 ar
    54   31   32 ar
    55   31   59 1
    56   32   33 ar
    57   32   60 1
    58   33   34 ar
    59   33   36 1
    60   34   35 ar
    61   34   61 1
    62   35   62 1
    63   36   37 1
    64   36   38 1
    65   36   39 1
    66   40   63 1
    67   40   64 1
    68   40   65 1
@<TRIPOS>MOLECULE
CHEMBL503066
   69    72     0     0     0
SMALL
USER_CHARGES

@<TRIPOS>ATOM
      1 C1         -0.7813    0.7599   -0.9543 C.3       1 <0>        -0.1500
      2 C2         -0.6210   -0.7456   -0.7337 C.3       1 <0>        -0.0170
      3 C3          0.1719   -0.9814    0.4839 C.1       1 <0>        -0.1254
      4 C4          0.8042   -1.1694    1.4551 C.1       1 <0>        -0.2063
      5 C5          1.5970   -1.4052    2.6727 C.3       1 <0>         0.1808
      6 O1          1.7468   -2.8113    2.8787 O.3       1 <0>        -0.2861
      7 C6          2.4589   -3.2031    3.9691 C.ar      1 <0>         0.1757
      8 C7          2.9962   -2.2557    4.8245 C.ar      1 <0>        -0.1998
      9 C8          3.7197   -2.6556    5.9332 C.ar      1 <0>        -0.0480
     10 C9          3.9092   -4.0007    6.1919 C.ar      1 <0>        -0.1448
     11 C10         3.3769   -4.9527    5.3434 C.ar      1 <0>        -0.0287
     12 C11         2.6448   -4.5592    4.2317 C.ar      1 <0>        -0.1583
     13 S1          1.9584   -5.7705    3.1518 S.3       1 <0>         0.0023
     14 C12         0.2454   -5.7876    3.5641 C.ar      1 <0>        -0.1470
     15 C13        -0.2128   -5.0320    4.6327 C.ar      1 <0>        -0.0767
     16 C14        -1.5549   -5.0460    4.9561 C.ar      1 <0>        -0.2070
     17 C15        -2.4336   -5.8164    4.2134 C.ar      1 <0>         0.1410
     18 C16        -1.9761   -6.5781    3.1397 C.ar      1 <0>        -0.0980
     19 C17        -0.6410   -6.5571    2.8092 C.ar      1 <0>        -0.0191
     20 C18        -0.0802   -7.3375    1.6493 C.3       1 <0>        -0.0779
     21 C19        -1.0559   -8.4288    1.2139 C.3       1 <0>        -0.1170
     22 C20        -2.4348   -7.7910    1.0081 C.3       1 <0>        -0.1178
     23 C21        -2.9864   -7.3984    2.3812 C.3       1 <0>        -0.0707
     24 O2         -3.7549   -5.8303    4.5348 O.3       1 <0>        -0.2757
     25 C22        -4.1608   -5.0287    5.6460 C.3       1 <0>        -0.0066
     26 C23        -5.6472   -5.1693    5.8506 C.2       1 <0>         0.5019
     27 O3         -6.2986   -5.8892    5.1131 O.co2     1 <0>        -0.6695
     28 O4         -6.1983   -4.5632    6.7536 O.co2     1 <0>        -0.6879
     29 C24         4.3037   -1.6224    6.8619 C.3       1 <0>         0.1615
     30 N1          3.3333   -1.3063    7.9129 N.pl3     1 <0>        -0.7346
     31 C25         3.6511   -0.3682    8.8977 C.ar      1 <0>         0.2488
     32 C26         4.8847    0.2701    8.8788 C.ar      1 <0>        -0.2021
     33 C27         5.1956    1.1975    9.8539 C.ar      1 <0>        -0.0207
     34 C28         4.2806    1.4905   10.8484 C.ar      1 <0>        -0.2477
     35 C29         3.0516    0.8569   10.8702 C.ar      1 <0>        -0.0199
     36 C30         2.7321   -0.0673    9.8949 C.ar      1 <0>        -0.1952
     37 C31         4.6237    2.5022   11.9113 C.3       1 <0>         0.5126
     38 F1          4.2225    3.7748   11.4907 F         1 <0>        -0.1809
     39 F2          3.9618    2.1735   13.0992 F         1 <0>        -0.1804
     40 F3          6.0054    2.4977   12.1307 F         1 <0>        -0.1816
     41 H1          0.2016    1.2174   -1.0665 H         1 <0>         0.0571
     42 H2         -1.3684    0.9345   -1.8559 H         1 <0>         0.0675
     43 H3         -1.2914    1.2004   -0.0976 H         1 <0>         0.0611
     44 H4         -1.6040   -1.2030   -0.6214 H         1 <0>         0.0941
     45 H5         -0.1109   -1.1860   -1.5904 H         1 <0>         0.0888
     46 H6          2.5800   -0.9477    2.5604 H         1 <0>         0.0861
     47 H7          1.0870   -0.9647    3.5293 H         1 <0>         0.0856
     48 H8          2.8505   -1.2043    4.6254 H         1 <0>         0.1351
     49 H9          4.4750   -4.3080    7.0590 H         1 <0>         0.1325
     50 H10         3.5271   -6.0026    5.5474 H         1 <0>         0.1428
     51 H11         0.4777   -4.4350    5.2101 H         1 <0>         0.1128
     52 H12        -1.9183   -4.4581    5.7860 H         1 <0>         0.1277
     53 H13         0.0984   -6.6608    0.8136 H         1 <0>         0.0795
     54 H14         0.8626   -7.7963    1.9472 H         1 <0>         0.0758
     55 H15        -0.7147   -8.8749    0.2797 H         1 <0>         0.0651
     56 H16        -1.1176   -9.1955    1.9862 H         1 <0>         0.0661
     57 H17        -2.3403   -6.9079    0.3761 H         1 <0>         0.0636
     58 H18        -3.1053   -8.5099    0.5373 H         1 <0>         0.0668
     59 H19        -3.2252   -8.2942    2.9543 H         1 <0>         0.0764
     60 H20        -3.8933   -6.8106    2.2397 H         1 <0>         0.0830
     61 H21        -3.6376   -5.3598    6.5431 H         1 <0>         0.0579
     62 H22        -3.9183   -3.9845    5.4486 H         1 <0>         0.0568
     63 H23         5.2147   -2.0141    7.3144 H         1 <0>         0.0775
     64 H24         4.5372   -0.7186    6.2991 H         1 <0>         0.0745
     65 H25         2.4700   -1.7484    7.9248 H         1 <0>         0.4071
     66 H26         5.6001    0.0412    8.1028 H         1 <0>         0.1317
     67 H27         6.1545    1.6941    9.8398 H         1 <0>         0.1329
     68 H28         2.3393    1.0880   11.6484 H         1 <0>         0.1345
     69 H29         1.7704   -0.5585    9.9099 H         1 <0>         0.1333
@<TRIPOS>BOND
     1    1    2 1
     2    1   41 1
     3    1   42 1
     4    1   43 1
     5    2    3 1
     6    2   44 1
     7    2   45 1
     8    3    4 3
     9    4    5 1
    10    5    6 1
    11    5   46 1
    12    5   47 1
    13    6    7 1
    14    7   12 ar
    15    7    8 ar
    16    8    9 ar
    17    8   48 1
    18    9   10 ar
    19    9   29 1
    20   10   11 ar
    21   10   49 1
    22   11   12 ar
    23   11   50 1
    24   12   13 1
    25   13   14 1
    26   14   19 ar
    27   14   15 ar
    28   15   16 ar
    29   15   51 1
    30   16   17 ar
    31   16   52 1
    32   17   18 ar
    33   17   24 1
    34   18   23 1
    35   18   19 ar
    36   19   20 1
    37   20   21 1
    38   20   53 1
    39   20   54 1
    40   21   22 1
    41   21   55 1
    42   21   56 1
    43   22   23 1
    44   22   57 1
    45   22   58 1
    46   23   59 1
    47   23   60 1
    48   24   25 1
    49   25   26 1
    50   25   61 1
    51   25   62 1
    52   26   27 2
    53   26   28 1
    54   29   30 1
    55   29   63 1
    56   29   64 1
    57   30   31 1
    58   30   65 1
    59   31   36 ar
    60   31   32 ar
    61   32   33 ar
    62   32   66 1
    63   33   34 ar
    64   33   67 1
    65   34   35 ar
    66   34   37 1
    67   35   36 ar
    68   35   68 1
    69   36   69 1
    70   37   38 1
    71   37   39 1
    72   37   40 1
@<TRIPOS>MOLECULE
CHEMBL1079752
   60    64     0     0     0
SMALL
USER_CHARGES

@<TRIPOS>ATOM
      1 C1          0.2056    1.8783   -0.5676 C.3       1 <0>        -0.1055
      2 C2          0.2849    0.3776   -0.4557 C.ar      1 <0>        -0.0850
      3 C3          0.1928   -0.4055   -1.5901 C.ar      1 <0>        -0.1070
      4 C4          0.2662   -1.7865   -1.4872 C.ar      1 <0>         0.0749
      5 C5          0.4322   -2.3816   -0.2452 C.ar      1 <0>        -0.1690
      6 C6          0.5243   -1.5988    0.8888 C.ar      1 <0>        -0.1752
      7 C7          0.4561   -0.2171    0.7853 C.ar      1 <0>         0.1115
      8 O1          0.5524    0.5539    1.9013 O.3       1 <0>        -0.2771
      9 C8          0.7278   -0.1256    3.1461 C.3       1 <0>        -0.0072
     10 C9          0.8135    0.8839    4.2617 C.2       1 <0>         0.5012
     11 O2          0.7320    2.0749    4.0138 O.co2     1 <0>        -0.6704
     12 O3          0.9644    0.5097    5.4122 O.co2     1 <0>        -0.6882
     13 O4          0.1751   -2.5573   -2.6038 O.3       1 <0>        -0.3120
     14 C10         0.2588   -3.9725   -2.4238 C.3       1 <0>         0.1598
     15 C11         0.1390   -4.6569   -3.7610 C.2       1 <0>         0.2036
     16 N1          1.1357   -4.9552   -4.5429 N.2       1 <0>        -0.4402
     17 C12         0.6571   -5.5586   -5.6511 C.2       1 <0>         0.0460
     18 C13        -0.7155   -5.6214   -5.5156 C.2       1 <0>         0.0207
     19 O5         -1.0093   -5.0563   -4.3239 O.3       1 <0>        -0.1774
     20 C14        -1.6719   -6.1974   -6.4788 C.ar      1 <0>        -0.0229
     21 C15        -1.4363   -7.4614   -7.0281 C.ar      1 <0>        -0.0781
     22 C16        -2.3299   -7.9977   -7.9271 C.ar      1 <0>        -0.1088
     23 C17        -3.4703   -7.2806   -8.2904 C.ar      1 <0>        -0.0266
     24 C18        -3.7069   -6.0192   -7.7431 C.ar      1 <0>        -0.1096
     25 C19        -2.8181   -5.4826   -6.8395 C.ar      1 <0>        -0.0842
     26 C20        -4.4317   -7.8596   -9.2593 C.ar      1 <0>        -0.0515
     27 C21        -4.2014   -9.1220   -9.8042 C.ar      1 <0>        -0.1074
     28 C22        -5.0996   -9.6557  -10.7056 C.ar      1 <0>        -0.1183
     29 C23        -6.2266   -8.9405  -11.0691 C.ar      1 <0>        -0.1157
     30 C24        -6.4601   -7.6873  -10.5320 C.ar      1 <0>        -0.1179
     31 C25        -5.5723   -7.1461   -9.6246 C.ar      1 <0>        -0.1072
     32 C26         1.4534   -6.0582   -6.7959 C.ar      1 <0>        -0.0620
     33 C27         1.0176   -5.8518   -8.1092 C.ar      1 <0>        -0.0515
     34 C28         1.7979   -6.3378   -9.1434 C.ar      1 <0>        -0.1700
     35 C29         2.9728   -7.0061   -8.8486 C.ar      1 <0>         0.1042
     36 N2          3.3585   -7.1859   -7.6002 N.ar      1 <0>        -0.4819
     37 C30         2.6525   -6.7371   -6.5827 C.ar      1 <0>         0.1320
     38 H1          1.2062    2.2852   -0.7136 H         1 <0>         0.0699
     39 H2         -0.4233    2.1466   -1.4165 H         1 <0>         0.0613
     40 H3         -0.2236    2.2886    0.3465 H         1 <0>         0.0811
     41 H4          0.0632    0.0578   -2.5570 H         1 <0>         0.1329
     42 H5          0.4891   -3.4571   -0.1651 H         1 <0>         0.1259
     43 H6          0.6528   -2.0622    1.8559 H         1 <0>         0.1331
     44 H7         -0.1195   -0.7888    3.3206 H         1 <0>         0.0581
     45 H8          1.6468   -0.7108    3.1143 H         1 <0>         0.0584
     46 H9          1.2176   -4.2251   -1.9710 H         1 <0>         0.1095
     47 H10        -0.5495   -4.3042   -1.7721 H         1 <0>         0.0940
     48 H11        -0.5534   -8.0165   -6.7474 H         1 <0>         0.1292
     49 H12        -2.1480   -8.9738   -8.3519 H         1 <0>         0.1337
     50 H13        -4.5901   -5.4654   -8.0253 H         1 <0>         0.1340
     51 H14        -3.0039   -4.5082   -6.4124 H         1 <0>         0.1328
     52 H15        -3.3215   -9.6809   -9.5217 H         1 <0>         0.1263
     53 H16        -4.9223  -10.6336  -11.1284 H         1 <0>         0.1252
     54 H17        -6.9267   -9.3621  -11.7752 H         1 <0>         0.1235
     55 H18        -7.3413   -7.1331  -10.8200 H         1 <0>         0.1255
     56 H19        -5.7583   -6.1698   -9.2020 H         1 <0>         0.1269
     57 H20         0.0956   -5.3267   -8.3107 H         1 <0>         0.1343
     58 H21         1.4928   -6.1973  -10.1698 H         1 <0>         0.1394
     59 H22         3.5838   -7.3869   -9.6536 H         1 <0>         0.1584
     60 H23         3.0033   -6.9002   -5.5744 H         1 <0>         0.1606
@<TRIPOS>BOND
     1    1    2 1
     2    1   38 1
     3    1   39 1
     4    1   40 1
     5    2    7 ar
     6    2    3 ar
     7    3    4 ar
     8    3   41 1
     9    4    5 ar
    10    4   13 1
    11    5    6 ar
    12    5   42 1
    13    6    7 ar
    14    6   43 1
    15    7    8 1
    16    8    9 1
    17    9   10 1
    18    9   44 1
    19    9   45 1
    20   10   11 2
    21   10   12 1
    22   13   14 1
    23   14   15 1
    24   14   46 1
    25   14   47 1
    26   15   19 1
    27   15   16 2
    28   16   17 1
    29   17   18 2
    30   17   32 1
    31   18   19 1
    32   18   20 1
    33   20   25 ar
    34   20   21 ar
    35   21   22 ar
    36   21   48 1
    37   22   23 ar
    38   22   49 1
    39   23   24 ar
    40   23   26 1
    41   24   25 ar
    42   24   50 1
    43   25   51 1
    44   26   31 ar
    45   26   27 ar
    46   27   28 ar
    47   27   52 1
    48   28   29 ar
    49   28   53 1
    50   29   30 ar
    51   29   54 1
    52   30   31 ar
    53   30   55 1
    54   31   56 1
    55   32   37 ar
    56   32   33 ar
    57   33   34 ar
    58   33   57 1
    59   34   35 ar
    60   34   58 1
    61   35   36 ar
    62   35   59 1
    63   36   37 ar
    64   37   60 1
@<TRIPOS>MOLECULE
CHEMBL1076163
   74    79     0     0     0
SMALL
USER_CHARGES

@<TRIPOS>ATOM
      1 C1         -0.7966    2.0884   -0.9794 C.3       1 <0>        -0.1052
      2 C2         -0.6716    0.6000   -0.7795 C.ar      1 <0>        -0.0850
      3 C3         -0.5468   -0.2357   -1.8725 C.ar      1 <0>        -0.1087
      4 C4         -0.4313   -1.6053   -1.6886 C.ar      1 <0>         0.0762
      5 C5         -0.4410   -2.1363   -0.4071 C.ar      1 <0>        -0.1700
      6 C6         -0.5657   -1.3009    0.6856 C.ar      1 <0>        -0.1753
      7 C7         -0.6760    0.0696    0.5018 C.ar      1 <0>         0.1097
      8 O1         -0.7931    0.8927    1.5780 O.3       1 <0>        -0.2776
      9 C8         -0.7903    0.2781    2.8681 C.3       1 <0>        -0.0069
     10 C9         -0.9281    1.3386    3.9299 C.2       1 <0>         0.5013
     11 O2         -1.0201    2.5119    3.6114 O.co2     1 <0>        -0.6704
     12 O3         -0.9475    1.0232    5.1075 O.co2     1 <0>        -0.6886
     13 O4         -0.3089   -2.4279   -2.7645 O.3       1 <0>        -0.3103
     14 C10        -0.1942   -3.8277   -2.5012 C.3       1 <0>         0.1530
     15 C11        -0.0686   -4.5753   -3.8037 C.2       1 <0>         0.0428
     16 N1          1.0234   -4.8872   -4.4521 N.2       1 <0>        -0.4832
     17 C12         0.9854   -5.5520   -5.5953 C.2       1 <0>         0.1315
     18 C13        -0.2843   -5.8942   -6.0577 C.2       1 <0>        -0.1658
     19 S1         -1.3000   -5.2093   -4.7586 S.3       1 <0>         0.1615
     20 C14        -0.6786   -6.6235   -7.2777 C.ar      1 <0>         0.0026
     21 C15        -0.0376   -7.8187   -7.6164 C.ar      1 <0>        -0.0793
     22 C16        -0.4066   -8.4981   -8.7551 C.ar      1 <0>        -0.1070
     23 C17        -1.4197   -7.9943   -9.5714 C.ar      1 <0>        -0.0371
     24 C18        -2.0601   -6.8013   -9.2350 C.ar      1 <0>        -0.1075
     25 C19        -1.6978   -6.1231   -8.0933 C.ar      1 <0>        -0.0970
     26 C20        -1.8157   -8.7271  -10.7980 C.ar      1 <0>        -0.0460
     27 C21        -1.1817   -9.9221  -11.1345 C.ar      1 <0>        -0.1098
     28 C22        -1.5548  -10.6001  -12.2771 C.ar      1 <0>        -0.1181
     29 C23        -2.5559  -10.0960  -13.0879 C.ar      1 <0>        -0.1188
     30 C24        -3.1886   -8.9106  -12.7590 C.ar      1 <0>        -0.1177
     31 C25        -2.8275   -8.2267  -11.6161 C.ar      1 <0>        -0.1097
     32 C26         2.2157   -5.9100   -6.3381 C.ar      1 <0>        -0.0792
     33 C27         2.2636   -5.7604   -7.7245 C.ar      1 <0>        -0.0382
     34 C28         3.4101   -6.0939   -8.4132 C.ar      1 <0>        -0.1986
     35 C29         4.5181   -6.5789   -7.7278 C.ar      1 <0>         0.2294
     36 C30         4.4730   -6.7293   -6.3465 C.ar      1 <0>        -0.2009
     37 C31         3.3309   -6.3919   -5.6521 C.ar      1 <0>        -0.0326
     38 N2          5.6783   -6.9159   -8.4280 N.pl3     1 <0>        -0.6314
     39 C32         6.8132   -7.5602   -7.7481 C.3       1 <0>         0.0854
     40 C33         7.2199   -8.7989   -8.5544 C.3       1 <0>         0.0464
     41 O5          7.4261   -8.4256   -9.9189 O.3       1 <0>        -0.3798
     42 C34         6.2578   -7.9215  -10.5707 C.3       1 <0>         0.0462
     43 C35         5.7996   -6.6429   -9.8689 C.3       1 <0>         0.0849
     44 H1          0.1960    2.5387   -0.9862 H         1 <0>         0.0693
     45 H2         -1.2922    2.2871   -1.9296 H         1 <0>         0.0612
     46 H3         -1.3840    2.5160   -0.1668 H         1 <0>         0.0808
     47 H4         -0.5396    0.1777   -2.8703 H         1 <0>         0.1324
     48 H5         -0.3514   -3.2030   -0.2639 H         1 <0>         0.1249
     49 H6         -0.5740   -1.7144    1.6833 H         1 <0>         0.1321
     50 H7         -1.6252   -0.4190    2.9402 H         1 <0>         0.0578
     51 H8          0.1463   -0.2606    3.0119 H         1 <0>         0.0579
     52 H9          0.6896   -4.0113   -1.8902 H         1 <0>         0.0950
     53 H10        -1.0814   -4.1713   -1.9692 H         1 <0>         0.0883
     54 H11         0.7472   -8.2086   -6.9850 H         1 <0>         0.1283
     55 H12         0.0885   -9.4215   -9.0170 H         1 <0>         0.1287
     56 H13        -2.8439   -6.4123   -9.8680 H         1 <0>         0.1302
     57 H14        -2.1970   -5.2022   -7.8306 H         1 <0>         0.1286
     58 H15        -0.3997  -10.3164  -10.5025 H         1 <0>         0.1254
     59 H16        -1.0641  -11.5258  -12.5391 H         1 <0>         0.1238
     60 H17        -2.8444  -10.6298  -13.9813 H         1 <0>         0.1223
     61 H18        -3.9695   -8.5218  -13.3957 H         1 <0>         0.1244
     62 H19        -3.3252   -7.3036  -11.3579 H         1 <0>         0.1263
     63 H20         1.4030   -5.3840   -8.2575 H         1 <0>         0.1219
     64 H21         3.4476   -5.9786   -9.4864 H         1 <0>         0.1242
     65 H22         5.3349   -7.1070   -5.8165 H         1 <0>         0.1245
     66 H23         3.2980   -6.5048   -4.5785 H         1 <0>         0.1254
     67 H24         7.6514   -6.8655   -7.6946 H         1 <0>         0.0713
     68 H25         6.5176   -7.8578   -6.7421 H         1 <0>         0.0938
     69 H26         8.1424   -9.2120   -8.1466 H         1 <0>         0.1050
     70 H27         6.4287   -9.5465   -8.4971 H         1 <0>         0.0558
     71 H28         6.4882   -7.7033  -11.6135 H         1 <0>         0.1048
     72 H29         5.4631   -8.6659  -10.5207 H         1 <0>         0.0555
     73 H30         4.8331   -6.3334  -10.2666 H         1 <0>         0.0939
     74 H31         6.5341   -5.8543  -10.0325 H         1 <0>         0.0710
@<TRIPOS>BOND
     1    1    2 1
     2    1   44 1
     3    1   45 1
     4    1   46 1
     5    2    7 ar
     6    2    3 ar
     7    3    4 ar
     8    3   47 1
     9    4    5 ar
    10    4   13 1
    11    5    6 ar
    12    5   48 1
    13    6    7 ar
    14    6   49 1
    15    7    8 1
    16    8    9 1
    17    9   10 1
    18    9   50 1
    19    9   51 1
    20   10   11 2
    21   10   12 1
    22   13   14 1
    23   14   15 1
    24   14   52 1
    25   14   53 1
    26   15   19 1
    27   15   16 2
    28   16   17 1
    29   17   18 2
    30   17   32 1
    31   18   19 1
    32   18   20 1
    33   20   25 ar
    34   20   21 ar
    35   21   22 ar
    36   21   54 1
    37   22   23 ar
    38   22   55 1
    39   23   24 ar
    40   23   26 1
    41   24   25 ar
    42   24   56 1
    43   25   57 1
    44   26   31 ar
    45   26   27 ar
    46   27   28 ar
    47   27   58 1
    48   28   29 ar
    49   28   59 1
    50   29   30 ar
    51   29   60 1
    52   30   31 ar
    53   30   61 1
    54   31   62 1
    55   32   37 ar
    56   32   33 ar
    57   33   34 ar
    58   33   63 1
    59   34   35 ar
    60   34   64 1
    61   35   36 ar
    62   35   38 1
    63   36   37 ar
    64   36   65 1
    65   37   66 1
    66   38   43 1
    67   38   39 1
    68   39   40 1
    69   39   67 1
    70   39   68 1
    71   40   41 1
    72   40   69 1
    73   40   70 1
    74   41   42 1
    75   42   43 1
    76   42   71 1
    77   42   72 1
    78   43   73 1
    79   43   74 1
@<TRIPOS>MOLECULE
CHEMBL241078
   60    62     0     0     0
SMALL
USER_CHARGES

@<TRIPOS>ATOM
      1 C1         -0.0023    1.4955    0.2720 C.3       1 <0>        -0.1491
      2 C2          0.0044   -0.0103    0.0010 C.3       1 <0>        -0.0796
      3 C3         -1.4105   -0.5289    0.0121 C.ar      1 <0>        -0.1185
      4 C4         -1.9728   -0.9726    1.1964 C.ar      1 <0>        -0.0677
      5 C5         -3.2698   -1.4507    1.2177 C.ar      1 <0>        -0.2064
      6 C6         -4.0153   -1.4879    0.0512 C.ar      1 <0>         0.1475
      7 C7         -3.4504   -1.0396   -1.1488 C.ar      1 <0>        -0.0423
      8 C8         -2.1424   -0.5544   -1.1573 C.ar      1 <0>        -0.0545
      9 C9         -4.2374   -1.0756   -2.3994 C.2       1 <0>        -0.0934
     10 C10        -4.4366   -0.0839   -3.3223 C.2       1 <0>        -0.1519
     11 C11        -5.2185   -0.3528   -4.4249 C.2       1 <0>        -0.1537
     12 C12        -5.7654   -1.5874   -4.5627 C.2       1 <0>        -0.1847
     13 S1         -5.1693   -2.4258   -3.1037 S.3       1 <0>         0.0667
     14 O1         -5.2899   -1.9581    0.0711 O.3       1 <0>        -0.2968
     15 C13        -5.8407   -2.2854    1.3484 C.3       1 <0>         0.0844
     16 H1         -5.4629   -1.5885    2.0964 H         1 <0>         0.0778
     17 C14        -5.4352   -3.7109    1.7285 C.3       1 <0>        -0.1784
     18 C15        -7.3664   -2.1888    1.2858 C.3       1 <0>        -0.1125
     19 C16        -7.7753   -0.7370    1.0287 C.3       1 <0>         0.0616
     20 O2         -9.2002   -0.6467    0.9702 O.3       1 <0>        -0.3183
     21 C17        -9.7318    0.5839    0.7467 C.ar      1 <0>         0.1145
     22 C18        -8.8988    1.6811    0.5811 C.ar      1 <0>        -0.2093
     23 C19        -9.4415    2.9307    0.3536 C.ar      1 <0>        -0.0789
     24 C20       -10.8138    3.0888    0.2907 C.ar      1 <0>        -0.0996
     25 C21       -11.6460    1.9972    0.4557 C.ar      1 <0>        -0.0464
     26 C22       -11.1079    0.7442    0.6779 C.ar      1 <0>        -0.1506
     27 C23       -13.1411    2.1732    0.3871 C.3       1 <0>        -0.1209
     28 C24       -11.4033    4.4533    0.0423 C.3       1 <0>        -0.0564
     29 C25       -11.7555    5.1079    1.3796 C.3       1 <0>        -0.1753
     30 C26       -12.3449    6.4724    1.1312 C.2       1 <0>         0.4892
     31 O3        -12.4716    6.8832   -0.0098 O.co2     1 <0>        -0.6985
     32 O4        -12.6951    7.1655    2.0711 O.co2     1 <0>        -0.7068
     33 H2          1.0211    1.8706    0.2639 H         1 <0>         0.0574
     34 H3         -0.5808    2.0013   -0.5011 H         1 <0>         0.0564
     35 H4         -0.4519    1.6873    1.2462 H         1 <0>         0.0559
     36 H5          0.4540   -0.2021   -0.9733 H         1 <0>         0.0711
     37 H6          0.5828   -0.5161    0.7740 H         1 <0>         0.0713
     38 H7         -1.3952   -0.9454    2.1086 H         1 <0>         0.1266
     39 H8         -3.7021   -1.7960    2.1452 H         1 <0>         0.1345
     40 H9         -1.7020   -0.2029   -2.0786 H         1 <0>         0.1316
     41 H10        -3.9900    0.8902   -3.1885 H         1 <0>         0.1320
     42 H11        -5.3940    0.4093   -5.1698 H         1 <0>         0.1332
     43 H12        -6.3961   -1.9662   -5.3534 H         1 <0>         0.1840
     44 H13        -5.8130   -4.4079    0.9804 H         1 <0>         0.0713
     45 H14        -4.3483   -3.7798    1.7731 H         1 <0>         0.0657
     46 H15        -5.8554   -3.9606    2.7028 H         1 <0>         0.0754
     47 H16        -7.7376   -2.8193    0.4779 H         1 <0>         0.0877
     48 H17        -7.7908   -2.5236    2.2323 H         1 <0>         0.0948
     49 H18        -7.4041   -0.1064    1.8366 H         1 <0>         0.0574
     50 H19        -7.3509   -0.4022    0.0822 H         1 <0>         0.0668
     51 H20        -7.8269    1.5582    0.6305 H         1 <0>         0.1198
     52 H21        -8.7935    3.7851    0.2250 H         1 <0>         0.1227
     53 H22       -11.7583   -0.1090    0.8023 H         1 <0>         0.1249
     54 H23       -13.4754    2.0425   -0.6421 H         1 <0>         0.0712
     55 H24       -13.6239    1.4310    1.0229 H         1 <0>         0.0632
     56 H25       -13.4054    3.1732    0.7308 H         1 <0>         0.0810
     57 H26       -10.6774    5.0721   -0.4852 H         1 <0>         0.0676
     58 H27       -12.3046    4.3550   -0.5627 H         1 <0>         0.0720
     59 H28       -12.4814    4.4890    1.9070 H         1 <0>         0.0579
     60 H29       -10.8541    5.2061    1.9845 H         1 <0>         0.0554
@<TRIPOS>BOND
     1    1    2 1
     2    1   33 1
     3    1   34 1
     4    1   35 1
     5    2    3 1
     6    2   36 1
     7    2   37 1
     8    3    8 ar
     9    3    4 ar
    10    4    5 ar
    11    4   38 1
    12    5    6 ar
    13    5   39 1
    14    6    7 ar
    15    6   14 1
    16    7    8 ar
    17    7    9 1
    18    8   40 1
    19    9   13 1
    20    9   10 2
    21   10   11 1
    22   10   41 1
    23   11   12 2
    24   11   42 1
    25   12   13 1
    26   12   43 1
    27   14   15 1
    28   15   16 1
    29   15   17 1
    30   15   18 1
    31   17   44 1
    32   17   45 1
    33   17   46 1
    34   18   19 1
    35   18   47 1
    36   18   48 1
    37   19   20 1
    38   19   49 1
    39   19   50 1
    40   20   21 1
    41   21   26 ar
    42   21   22 ar
    43   22   23 ar
    44   22   51 1
    45   23   24 ar
    46   23   52 1
    47   24   25 ar
    48   24   28 1
    49   25   26 ar
    50   25   27 1
    51   26   53 1
    52   27   54 1
    53   27   55 1
    54   27   56 1
    55   28   29 1
    56   28   57 1
    57   28   58 1
    58   29   30 1
    59   29   59 1
    60   29   60 1
    61   30   31 2
    62   30   32 1
@<TRIPOS>MOLECULE
CHEMBL94306
   61    64     0     0     0
SMALL
USER_CHARGES

@<TRIPOS>ATOM
      1 C1          0.3723    1.6617    0.4348 C.3       1 <0>        -0.1525
      2 C2          0.3494    0.1347    0.5280 C.3       1 <0>        -0.1164
      3 C3          0.6416   -0.4647   -0.8490 C.3       1 <0>        -0.0723
      4 C4          0.6190   -1.9688   -0.7572 C.ar      1 <0>        -0.0719
      5 C5          1.7953   -2.6666   -0.5629 C.ar      1 <0>        -0.1056
      6 C6          1.7745   -4.0509   -0.4784 C.ar      1 <0>         0.0923
      7 C7          0.5722   -4.7346   -0.5890 C.ar      1 <0>        -0.1581
      8 C8         -0.6036   -4.0368   -0.7832 C.ar      1 <0>        -0.1675
      9 C9         -0.5834   -2.6519   -0.8620 C.ar      1 <0>         0.1018
     10 O1         -1.7419   -1.9645   -1.0473 O.3       1 <0>        -0.3054
     11 C10        -2.9430   -2.7323   -1.1467 C.3       1 <0>         0.0638
     12 C11        -4.1332   -1.7930   -1.3516 C.3       1 <0>        -0.1194
     13 C12        -5.4192   -2.6151   -1.4580 C.3       1 <0>         0.0634
     14 O2         -6.5309   -1.7378   -1.6494 O.3       1 <0>        -0.3079
     15 C13        -7.7573   -2.3119   -1.7640 C.ar      1 <0>         0.1360
     16 C14        -7.8888   -3.6911   -1.6880 C.ar      1 <0>        -0.1914
     17 C15        -9.1365   -4.2722   -1.8044 C.ar      1 <0>        -0.0708
     18 C16       -10.2540   -3.4806   -1.9965 C.ar      1 <0>        -0.1323
     19 C17       -10.1256   -2.1063   -2.0730 C.ar      1 <0>        -0.0408
     20 C18        -8.8805   -1.5198   -1.9515 C.ar      1 <0>        -0.1186
     21 C19       -11.3454   -1.2466   -2.2828 C.3       1 <0>        -0.0337
     22 C20       -12.4340   -1.5731   -1.2700 C.2       1 <0>         0.5343
     23 O3        -12.2763   -1.4215   -0.0776 O.2       1 <0>        -0.4481
     24 N1        -13.5635   -2.0338   -1.7807 N.am      1 <0>        -0.6896
     25 C21       -13.7634   -2.2114   -3.0998 C.2       1 <0>         0.5629
     26 O4        -14.7607   -2.6262   -3.6578 O.2       1 <0>        -0.4137
     27 S1        -12.2211   -1.6946   -3.8395 S.3       1 <0>        -0.1363
     28 O5          2.9322   -4.7379   -0.2876 O.3       1 <0>        -0.2599
     29 C22         2.8658   -6.0933   -0.2190 C.ar      1 <0>         0.0830
     30 C23         2.9883   -6.8545   -1.3727 C.ar      1 <0>        -0.1266
     31 C24         2.9203   -8.2322   -1.3001 C.ar      1 <0>        -0.1063
     32 C25         2.7300   -8.8529   -0.0793 C.ar      1 <0>        -0.1173
     33 C26         2.6076   -8.0968    1.0719 C.ar      1 <0>        -0.1064
     34 C27         2.6810   -6.7190    1.0057 C.ar      1 <0>        -0.1267
     35 H1          1.3550    1.9904    0.0966 H         1 <0>         0.0540
     36 H2         -0.3859    1.9939   -0.2743 H         1 <0>         0.0551
     37 H3          0.1642    2.0888    1.4158 H         1 <0>         0.0545
     38 H4          1.1076   -0.1974    1.2372 H         1 <0>         0.0609
     39 H5         -0.6333   -0.1939    0.8663 H         1 <0>         0.0643
     40 H6         -0.1166   -0.1326   -1.5581 H         1 <0>         0.0794
     41 H7          1.6242   -0.1361   -1.1872 H         1 <0>         0.0731
     42 H8          2.7311   -2.1343   -0.4771 H         1 <0>         0.1398
     43 H9          0.5560   -5.8125   -0.5236 H         1 <0>         0.1299
     44 H10        -1.5394   -4.5690   -0.8693 H         1 <0>         0.1308
     45 H11        -2.8689   -3.4149   -1.9933 H         1 <0>         0.0651
     46 H12        -3.0853   -3.3046   -0.2300 H         1 <0>         0.0651
     47 H13        -4.2074   -1.1105   -0.5050 H         1 <0>         0.0884
     48 H14        -3.9909   -1.2208   -2.2683 H         1 <0>         0.0884
     49 H15        -5.3451   -3.2977   -2.3046 H         1 <0>         0.0684
     50 H16        -5.5616   -3.1873   -0.5413 H         1 <0>         0.0682
     51 H17        -7.0163   -4.3098   -1.5384 H         1 <0>         0.1336
     52 H18        -9.2393   -5.3457   -1.7457 H         1 <0>         0.1336
     53 H19       -11.2287   -3.9368   -2.0872 H         1 <0>         0.1208
     54 H20        -8.7812   -0.4458   -2.0068 H         1 <0>         0.1407
     55 H21       -11.0887   -0.1875   -2.2628 H         1 <0>         0.1697
     56 H22       -14.2858   -2.2557   -1.1725 H         1 <0>         0.4203
     57 H23         3.1362   -6.3701   -2.3266 H         1 <0>         0.1311
     58 H24         3.0156   -8.8251   -2.1978 H         1 <0>         0.1312
     59 H25         2.6765   -9.9302   -0.0248 H         1 <0>         0.1291
     60 H26         2.4587   -8.5841    2.0241 H         1 <0>         0.1311
     61 H27         2.5901   -6.1290    1.9058 H         1 <0>         0.1310
@<TRIPOS>BOND
     1    1    2 1
     2    1   35 1
     3    1   36 1
     4    1   37 1
     5    2    3 1
     6    2   38 1
     7    2   39 1
     8    3    4 1
     9    3   40 1
    10    3   41 1
    11    4    9 ar
    12    4    5 ar
    13    5    6 ar
    14    5   42 1
    15    6    7 ar
    16    6   28 1
    17    7    8 ar
    18    7   43 1
    19    8    9 ar
    20    8   44 1
    21    9   10 1
    22   10   11 1
    23   11   12 1
    24   11   45 1
    25   11   46 1
    26   12   13 1
    27   12   47 1
    28   12   48 1
    29   13   14 1
    30   13   49 1
    31   13   50 1
    32   14   15 1
    33   15   20 ar
    34   15   16 ar
    35   16   17 ar
    36   16   51 1
    37   17   18 ar
    38   17   52 1
    39   18   19 ar
    40   18   53 1
    41   19   20 ar
    42   19   21 1
    43   20   54 1
    44   21   27 1
    45   21   22 1
    46   21   55 1
    47   22   23 2
    48   22   24 am
    49   24   25 am
    50   24   56 1
    51   25   26 2
    52   25   27 1
    53   28   29 1
    54   29   34 ar
    55   29   30 ar
    56   30   31 ar
    57   30   57 1
    58   31   32 ar
    59   31   58 1
    60   32   33 ar
    61   32   59 1
    62   33   34 ar
    63   33   60 1
    64   34   61 1
@<TRIPOS>MOLECULE
CHEMBL94306__1
   61    64     0     0     0
SMALL
USER_CHARGES

@<TRIPOS>ATOM
      1 C1          0.3723    1.6617    0.4348 C.3       1 <0>        -0.1526
      2 C2          0.3494    0.1347    0.5280 C.3       1 <0>        -0.1164
      3 C3          0.6416   -0.4647   -0.8490 C.3       1 <0>        -0.0724
      4 C4          0.6190   -1.9688   -0.7572 C.ar      1 <0>        -0.0719
      5 C5          1.7953   -2.6666   -0.5629 C.ar      1 <0>        -0.1056
      6 C6          1.7745   -4.0509   -0.4784 C.ar      1 <0>         0.0924
      7 C7          0.5722   -4.7346   -0.5890 C.ar      1 <0>        -0.1581
      8 C8         -0.6036   -4.0368   -0.7832 C.ar      1 <0>        -0.1674
      9 C9         -0.5834   -2.6519   -0.8620 C.ar      1 <0>         0.1018
     10 O1         -1.7419   -1.9645   -1.0473 O.3       1 <0>        -0.3054
     11 C10        -2.9430   -2.7323   -1.1467 C.3       1 <0>         0.0638
     12 C11        -4.1332   -1.7930   -1.3516 C.3       1 <0>        -0.1194
     13 C12        -5.4192   -2.6151   -1.4580 C.3       1 <0>         0.0634
     14 O2         -6.5309   -1.7378   -1.6494 O.3       1 <0>        -0.3079
     15 C13        -7.7573   -2.3119   -1.7640 C.ar      1 <0>         0.1361
     16 C14        -7.8888   -3.6911   -1.6880 C.ar      1 <0>        -0.1915
     17 C15        -9.1365   -4.2722   -1.8044 C.ar      1 <0>        -0.0708
     18 C16       -10.2540   -3.4806   -1.9965 C.ar      1 <0>        -0.1323
     19 C17       -10.1256   -2.1063   -2.0730 C.ar      1 <0>        -0.0408
     20 C18        -8.8805   -1.5198   -1.9515 C.ar      1 <0>        -0.1186
     21 C19       -11.3454   -1.2466   -2.2828 C.3       1 <0>        -0.0336
     22 C20       -12.1588   -1.7217   -3.4786 C.2       1 <0>         0.5343
     23 O3        -11.7120   -1.7262   -4.6057 O.2       1 <0>        -0.4481
     24 N1        -13.3862   -2.1296   -3.2032 N.am      1 <0>        -0.6896
     25 C21       -13.9052   -2.1348   -1.9614 C.2       1 <0>         0.5628
     26 O4        -15.0151   -2.4893   -1.6141 O.2       1 <0>        -0.4137
     27 S1        -12.5821   -1.4996   -0.9422 S.3       1 <0>        -0.1364
     28 O5          2.9322   -4.7379   -0.2876 O.3       1 <0>        -0.2599
     29 C22         2.8658   -6.0933   -0.2190 C.ar      1 <0>         0.0830
     30 C23         2.9883   -6.8545   -1.3727 C.ar      1 <0>        -0.1266
     31 C24         2.9203   -8.2322   -1.3001 C.ar      1 <0>        -0.1063
     32 C25         2.7300   -8.8529   -0.0793 C.ar      1 <0>        -0.1173
     33 C26         2.6076   -8.0968    1.0719 C.ar      1 <0>        -0.1064
     34 C27         2.6810   -6.7190    1.0057 C.ar      1 <0>        -0.1266
     35 H1          1.3550    1.9904    0.0966 H         1 <0>         0.0540
     36 H2         -0.3859    1.9939   -0.2743 H         1 <0>         0.0551
     37 H3          0.1642    2.0888    1.4158 H         1 <0>         0.0545
     38 H4          1.1076   -0.1974    1.2372 H         1 <0>         0.0609
     39 H5         -0.6333   -0.1939    0.8663 H         1 <0>         0.0643
     40 H6         -0.1166   -0.1326   -1.5581 H         1 <0>         0.0794
     41 H7          1.6242   -0.1361   -1.1872 H         1 <0>         0.0731
     42 H8          2.7311   -2.1343   -0.4771 H         1 <0>         0.1398
     43 H9          0.5560   -5.8125   -0.5236 H         1 <0>         0.1299
     44 H10        -1.5394   -4.5690   -0.8693 H         1 <0>         0.1308
     45 H11        -2.8689   -3.4149   -1.9933 H         1 <0>         0.0650
     46 H12        -3.0853   -3.3046   -0.2300 H         1 <0>         0.0652
     47 H13        -4.2074   -1.1105   -0.5050 H         1 <0>         0.0885
     48 H14        -3.9909   -1.2208   -2.2683 H         1 <0>         0.0884
     49 H15        -5.3451   -3.2977   -2.3046 H         1 <0>         0.0683
     50 H16        -5.5616   -3.1873   -0.5413 H         1 <0>         0.0684
     51 H17        -7.0163   -4.3098   -1.5384 H         1 <0>         0.1336
     52 H18        -9.2393   -5.3457   -1.7457 H         1 <0>         0.1336
     53 H19       -11.2287   -3.9368   -2.0872 H         1 <0>         0.1208
     54 H20        -8.7812   -0.4458   -2.0068 H         1 <0>         0.1407
     55 H21       -11.0742   -0.1953   -2.3791 H         1 <0>         0.1697
     56 H22       -13.9419   -2.4410   -3.9348 H         1 <0>         0.4203
     57 H23         3.1362   -6.3701   -2.3266 H         1 <0>         0.1311
     58 H24         3.0156   -8.8251   -2.1978 H         1 <0>         0.1311
     59 H25         2.6765   -9.9302   -0.0248 H         1 <0>         0.1291
     60 H26         2.4587   -8.5841    2.0241 H         1 <0>         0.1312
     61 H27         2.5901   -6.1290    1.9058 H         1 <0>         0.1311
@<TRIPOS>BOND
     1    1    2 1
     2    1   35 1
     3    1   36 1
     4    1   37 1
     5    2    3 1
     6    2   38 1
     7    2   39 1
     8    3    4 1
     9    3   40 1
    10    3   41 1
    11    4    9 ar
    12    4    5 ar
    13    5    6 ar
    14    5   42 1
    15    6    7 ar
    16    6   28 1
    17    7    8 ar
    18    7   43 1
    19    8    9 ar
    20    8   44 1
    21    9   10 1
    22   10   11 1
    23   11   12 1
    24   11   45 1
    25   11   46 1
    26   12   13 1
    27   12   47 1
    28   12   48 1
    29   13   14 1
    30   13   49 1
    31   13   50 1
    32   14   15 1
    33   15   20 ar
    34   15   16 ar
    35   16   17 ar
    36   16   51 1
    37   17   18 ar
    38   17   52 1
    39   18   19 ar
    40   18   53 1
    41   19   20 ar
    42   19   21 1
    43   20   54 1
    44   21   27 1
    45   21   22 1
    46   21   55 1
    47   22   23 2
    48   22   24 am
    49   24   25 am
    50   24   56 1
    51   25   26 2
    52   25   27 1
    53   28   29 1
    54   29   34 ar
    55   29   30 ar
    56   30   31 ar
    57   30   57 1
    58   31   32 ar
    59   31   58 1
    60   32   33 ar
    61   32   59 1
    62   33   34 ar
    63   33   60 1
    64   34   61 1
@<TRIPOS>MOLECULE
CHEMBL426327
   46    48     0     0     0
SMALL
USER_CHARGES

@<TRIPOS>ATOM
      1 C1         -0.1535    1.5666    0.3345 C.3       1 <0>        -0.1038
      2 C2         -0.0475    0.0746    0.1506 C.2       1 <0>         0.1457
      3 C3         -1.0817   -0.8139    0.2104 C.2       1 <0>        -0.2723
      4 C4         -0.5088   -2.1479   -0.0277 C.2       1 <0>         0.1815
      5 N1          0.7772   -1.9827   -0.2075 N.2       1 <0>        -0.2708
      6 O1          1.0735   -0.6044   -0.1044 O.3       1 <0>        -0.0586
      7 C5         -1.2468   -3.4334   -0.0578 C.ar      1 <0>        -0.0325
      8 C6         -2.2750   -3.6293   -0.9799 C.ar      1 <0>        -0.0072
      9 C7         -2.9585   -4.8296   -1.0031 C.ar      1 <0>        -0.1065
     10 C8         -2.6252   -5.8358   -0.1147 C.ar      1 <0>        -0.0733
     11 C9         -1.6071   -5.6477    0.8023 C.ar      1 <0>        -0.1070
     12 C10        -0.9121   -4.4542    0.8320 C.ar      1 <0>         0.0043
     13 Cl1         0.3703   -4.2225    1.9789 Cl        1 <0>        -0.0341
     14 Cl2        -2.6952   -2.3673   -2.0955 Cl        1 <0>        -0.0218
     15 C11        -2.4961   -0.4986    0.4647 C.2       1 <0>         0.5501
     16 O2         -3.2138   -0.1445   -0.4501 O.2       1 <0>        -0.4706
     17 O3         -2.9960   -0.6025    1.7120 O.3       1 <0>        -0.3350
     18 C12        -4.3973   -0.3720    1.8706 C.3       1 <0>         0.0667
     19 C13        -4.7871   -0.5869    3.3344 C.3       1 <0>         0.0493
     20 O4         -4.1474    0.3991    4.1473 O.3       1 <0>        -0.2664
     21 C14        -4.3901    0.3491    5.4835 C.ar      1 <0>         0.2288
     22 C15        -5.2222   -0.6325    6.0024 C.ar      1 <0>        -0.2140
     23 C16        -5.4668   -0.6815    7.3610 C.ar      1 <0>         0.0197
     24 C17        -4.8832    0.2467    8.2037 C.ar      1 <0>        -0.2246
     25 C18        -4.0542    1.2260    7.6891 C.ar      1 <0>         0.0347
     26 C19        -3.8017    1.2758    6.3316 C.ar      1 <0>        -0.0883
     27 N2         -2.9092    2.3207    5.7820 N.pl3     1 <0>         0.0397
     28 O5         -2.3967    3.1281    6.5217 O.2       1 <0>        -0.1663
     29 O6         -2.6926    2.3668    4.5935 O.3       1 <0>        -0.1226
     30 C20        -5.1519    0.1909    9.6855 C.3       1 <0>         0.5189
     31 F1         -6.0128   -0.8761    9.9635 F         1 <0>        -0.1712
     32 F2         -3.9463    0.0084   10.3715 F         1 <0>        -0.1696
     33 F3         -5.7459    1.3888   10.0972 F         1 <0>        -0.1698
     34 H1          0.8333    2.0169    0.2277 H         1 <0>         0.0994
     35 H2         -0.8245    1.9788   -0.4192 H         1 <0>         0.1065
     36 H3         -0.5462    1.7832    1.3280 H         1 <0>         0.1111
     37 H4         -3.7550   -4.9824   -1.7163 H         1 <0>         0.1505
     38 H5         -3.1625   -6.7724   -0.1368 H         1 <0>         0.1514
     39 H6         -1.3521   -6.4370    1.4939 H         1 <0>         0.1506
     40 H7         -4.6326    0.6514    1.5784 H         1 <0>         0.0911
     41 H8         -4.9533   -1.0666    1.2409 H         1 <0>         0.0994
     42 H9         -5.8684   -0.4984    3.4393 H         1 <0>         0.1005
     43 H10        -4.4713   -1.5805    3.6524 H         1 <0>         0.0879
     44 H11        -5.6784   -1.3574    5.3447 H         1 <0>         0.1645
     45 H12        -6.1147   -1.4451    7.7653 H         1 <0>         0.1628
     46 H13        -3.5999    1.9500    8.3493 H         1 <0>         0.1713
@<TRIPOS>BOND
     1    1    2 1
     2    1   34 1
     3    1   35 1
     4    1   36 1
     5    2    6 1
     6    2    3 2
     7    3    4 1
     8    3   15 1
     9    4    5 2
    10    4    7 1
    11    5    6 1
    12    7   12 ar
    13    7    8 ar
    14    8    9 ar
    15    8   14 1
    16    9   10 ar
    17    9   37 1
    18   10   11 ar
    19   10   38 1
    20   11   12 ar
    21   11   39 1
    22   12   13 1
    23   15   16 2
    24   15   17 1
    25   17   18 1
    26   18   19 1
    27   18   40 1
    28   18   41 1
    29   19   20 1
    30   19   42 1
    31   19   43 1
    32   20   21 1
    33   21   26 ar
    34   21   22 ar
    35   22   23 ar
    36   22   44 1
    37   23   24 ar
    38   23   45 1
    39   24   25 ar
    40   24   30 1
    41   25   26 ar
    42   25   46 1
    43   26   27 1
    44   27   28 2
    45   27   29 1
    46   30   31 1
    47   30   32 1
    48   30   33 1
@<TRIPOS>MOLECULE
CHEMBL1079489
   51    54     0     0     0
SMALL
USER_CHARGES

@<TRIPOS>ATOM
      1 C1         -0.0184    1.5028    0.0103 C.3       1 <0>        -0.1054
      2 C2          0.0021   -0.0041    0.0020 C.ar      1 <0>        -0.0851
      3 C3          0.0058   -0.6883   -1.1982 C.ar      1 <0>        -0.1083
      4 C4          0.0251   -2.0749   -1.2058 C.ar      1 <0>         0.0754
      5 C5          0.0406   -2.7749   -0.0083 C.ar      1 <0>        -0.1697
      6 C6          0.0369   -2.0909    1.1915 C.ar      1 <0>        -0.1754
      7 C7          0.0229   -0.7038    1.1991 C.ar      1 <0>         0.1103
      8 O1          0.0250   -0.0303    2.3804 O.3       1 <0>        -0.2775
      9 C8          0.0470   -0.8150    3.5745 C.3       1 <0>        -0.0071
     10 C9          0.0459    0.0965    4.7746 C.2       1 <0>         0.5013
     11 O2          0.0280    1.3060    4.6215 O.co2     1 <0>        -0.6704
     12 O3          0.0630   -0.3755    5.8986 O.co2     1 <0>        -0.6884
     13 O4          0.0283   -2.7483   -2.3872 O.3       1 <0>        -0.3104
     14 C10         0.0485   -4.1756   -2.3202 C.3       1 <0>         0.1521
     15 C11         0.0491   -4.7440   -3.7159 C.2       1 <0>         0.0539
     16 N1          1.0760   -5.0398   -4.4689 N.2       1 <0>        -0.4892
     17 C12         0.9177   -5.5377   -5.6873 C.2       1 <0>         0.1027
     18 C13        -0.3726   -5.7226   -6.1083 C.2       1 <0>        -0.2219
     19 S1         -1.2716   -5.1558   -4.6736 S.3       1 <0>         0.1506
     20 C14         2.0759   -5.8759   -6.5489 C.ar      1 <0>        -0.0193
     21 C15         1.8667   -6.3920   -7.8277 C.ar      1 <0>        -0.0998
     22 C16         2.9428   -6.7057   -8.6282 C.ar      1 <0>        -0.1110
     23 C17         4.2414   -6.5074   -8.1601 C.ar      1 <0>        -0.0410
     24 C18         4.4507   -5.9913   -6.8816 C.ar      1 <0>        -0.1113
     25 C19         3.3748   -5.6726   -6.0829 C.ar      1 <0>        -0.0803
     26 C20         5.4000   -6.8457   -9.0220 C.ar      1 <0>        -0.0453
     27 C21         5.1939   -7.3566  -10.3023 C.ar      1 <0>        -0.1110
     28 C22         6.2757   -7.6692  -11.1001 C.ar      1 <0>        -0.1185
     29 C23         7.5628   -7.4763  -10.6313 C.ar      1 <0>        -0.1199
     30 C24         7.7734   -6.9695   -9.3615 C.ar      1 <0>        -0.1174
     31 C25         6.6991   -6.6484   -8.5569 C.ar      1 <0>        -0.1100
     32 H1          1.0042    1.8801    0.0026 H         1 <0>         0.0694
     33 H2         -0.5455    1.8639   -0.8728 H         1 <0>         0.0613
     34 H3         -0.5286    1.8543    0.9071 H         1 <0>         0.0809
     35 H4         -0.0067   -0.1432   -2.1305 H         1 <0>         0.1326
     36 H5          0.0553   -3.8548   -0.0143 H         1 <0>         0.1250
     37 H6          0.0483   -2.6360    2.1238 H         1 <0>         0.1323
     38 H7         -0.8341   -1.4560    3.6044 H         1 <0>         0.0579
     39 H8          0.9456   -1.4317    3.5875 H         1 <0>         0.0580
     40 H9          0.9459   -4.5020   -1.7946 H         1 <0>         0.0953
     41 H10        -0.8339   -4.5268   -1.7853 H         1 <0>         0.0897
     42 H11        -0.7434   -6.1085   -7.0464 H         1 <0>         0.2001
     43 H12         0.8610   -6.5460   -8.1901 H         1 <0>         0.1273
     44 H13         2.7809   -7.1057   -9.6183 H         1 <0>         0.1291
     45 H14         5.4565   -5.8381   -6.5191 H         1 <0>         0.1289
     46 H15         3.5368   -5.2691   -5.0943 H         1 <0>         0.1364
     47 H16         4.1894   -7.5079  -10.6692 H         1 <0>         0.1255
     48 H17         6.1172   -8.0654  -12.0922 H         1 <0>         0.1239
     49 H18         8.4065   -7.7226  -11.2589 H         1 <0>         0.1223
     50 H19         8.7804   -6.8213   -9.0005 H         1 <0>         0.1246
     51 H20         6.8646   -6.2490   -7.5672 H         1 <0>         0.1266
@<TRIPOS>BOND
     1    1    2 1
     2    1   32 1
     3    1   33 1
     4    1   34 1
     5    2    7 ar
     6    2    3 ar
     7    3    4 ar
     8    3   35 1
     9    4    5 ar
    10    4   13 1
    11    5    6 ar
    12    5   36 1
    13    6    7 ar
    14    6   37 1
    15    7    8 1
    16    8    9 1
    17    9   10 1
    18    9   38 1
    19    9   39 1
    20   10   11 2
    21   10   12 1
    22   13   14 1
    23   14   15 1
    24   14   40 1
    25   14   41 1
    26   15   19 1
    27   15   16 2
    28   16   17 1
    29   17   18 2
    30   17   20 1
    31   18   19 1
    32   18   42 1
    33   20   25 ar
    34   20   21 ar
    35   21   22 ar
    36   21   43 1
    37   22   23 ar
    38   22   44 1
    39   23   24 ar
    40   23   26 1
    41   24   25 ar
    42   24   45 1
    43   25   46 1
    44   26   31 ar
    45   26   27 ar
    46   27   28 ar
    47   27   47 1
    48   28   29 ar
    49   28   48 1
    50   29   30 ar
    51   29   49 1
    52   30   31 ar
    53   30   50 1
    54   31   51 1
@<TRIPOS>MOLECULE
CHEMBL1079766
   56    58     0     0     0
SMALL
USER_CHARGES

@<TRIPOS>ATOM
      1 C1         -0.0187    1.5258    0.0104 C.3       1 <0>        -0.1523
      2 C2          0.0021   -0.0041    0.0020 C.3       1 <0>        -0.1215
      3 C3          0.7182   -0.4975   -1.2568 C.3       1 <0>        -0.1191
      4 C4          0.7390   -2.0273   -1.2652 C.3       1 <0>         0.0579
      5 O1          1.4078   -2.4882   -2.4409 O.3       1 <0>        -0.3095
      6 C5          1.5136   -3.8326   -2.6033 C.ar      1 <0>         0.1406
      7 C6          0.9779   -4.6899   -1.6506 C.ar      1 <0>        -0.2045
      8 C7          1.0835   -6.0545   -1.8123 C.ar      1 <0>        -0.0638
      9 C8          1.7293   -6.5746   -2.9344 C.ar      1 <0>        -0.0557
     10 C9          2.2661   -5.7109   -3.8891 C.ar      1 <0>        -0.0558
     11 C10         2.1520   -4.3469   -3.7241 C.ar      1 <0>        -0.1426
     12 C11         2.7263   -3.4130   -4.7581 C.3       1 <0>         0.1749
     13 N1          4.0221   -2.9098   -4.2957 N.am      1 <0>        -0.7102
     14 C12         4.7249   -2.0529   -5.0627 C.2       1 <0>         0.5546
     15 O2          4.2835   -1.6976   -6.1382 O.2       1 <0>        -0.5166
     16 C13         6.0312   -1.5456   -4.5965 C.ar      1 <0>        -0.1372
     17 C14         6.5443   -1.9560   -3.3640 C.ar      1 <0>        -0.0571
     18 C15         7.7644   -1.4791   -2.9349 C.ar      1 <0>        -0.0879
     19 C16         8.4826   -0.5944   -3.7215 C.ar      1 <0>        -0.1332
     20 C17         7.9832   -0.1819   -4.9423 C.ar      1 <0>        -0.1156
     21 C18         6.7633   -0.6565   -5.3894 C.ar      1 <0>         0.1619
     22 F1          6.2778   -0.2575   -6.5853 F         1 <0>        -0.1034
     23 C19         9.8153   -0.0782   -3.2436 C.3       1 <0>         0.5106
     24 F2         10.8317   -0.9323   -3.6848 F         1 <0>        -0.1699
     25 F3         10.0294    1.2055   -3.7569 F         1 <0>        -0.1728
     26 F4          9.8220   -0.0285   -1.8455 F         1 <0>        -0.1714
     27 C20         1.8451   -8.0410   -3.1112 C.ar      1 <0>        -0.1212
     28 C21         1.3052   -8.9138   -2.1617 C.ar      1 <0>        -0.0836
     29 C22         1.4376  -10.2741   -2.3690 C.ar      1 <0>        -0.1364
     30 C23         2.1008  -10.7272   -3.5107 C.ar      1 <0>         0.0862
     31 N2          2.6019   -9.8684   -4.3927 N.ar      1 <0>        -0.4415
     32 C24         2.4909   -8.5706   -4.2332 C.ar      1 <0>         0.0955
     33 C25         2.2480  -12.1788   -3.7410 C.2       1 <0>         0.5295
     34 O3          1.7902  -12.9754   -2.9341 O.co2     1 <0>        -0.6808
     35 O4          2.8276  -12.5839   -4.7386 O.co2     1 <0>        -0.6577
     36 H1          1.0039    1.9031    0.0027 H         1 <0>         0.0555
     37 H2         -0.5459    1.8868   -0.8726 H         1 <0>         0.0559
     38 H3         -0.5289    1.8773    0.9072 H         1 <0>         0.0567
     39 H4          0.5293   -0.3651    0.8851 H         1 <0>         0.0647
     40 H5         -1.0205   -0.3814    0.0098 H         1 <0>         0.0650
     41 H6          0.1910   -0.1364   -2.1398 H         1 <0>         0.0738
     42 H7          1.7408   -0.1202   -1.2645 H         1 <0>         0.0728
     43 H8          1.2661   -2.3884   -0.3821 H         1 <0>         0.0625
     44 H9         -0.2836   -2.4046   -1.2575 H         1 <0>         0.0627
     45 H10         0.4784   -4.2867   -0.7821 H         1 <0>         0.1303
     46 H11         0.6671   -6.7206   -1.0711 H         1 <0>         0.1306
     47 H12         2.7666   -6.1103   -4.7588 H         1 <0>         0.1375
     48 H13         2.8590   -3.9490   -5.6979 H         1 <0>         0.0814
     49 H14         2.0447   -2.5761   -4.9102 H         1 <0>         0.0835
     50 H15         4.3743   -3.1933   -3.4375 H         1 <0>         0.4007
     51 H16         5.9859   -2.6455   -2.7482 H         1 <0>         0.1495
     52 H17         8.1613   -1.7964   -1.9819 H         1 <0>         0.1515
     53 H18         8.5485    0.5089   -5.5503 H         1 <0>         0.1571
     54 H19         0.7973   -8.5344   -1.2873 H         1 <0>         0.1280
     55 H20         1.0332  -10.9776   -1.6563 H         1 <0>         0.1424
     56 H21         2.9067   -7.9040   -4.9742 H         1 <0>         0.1477
@<TRIPOS>BOND
     1    1    2 1
     2    1   36 1
     3    1   37 1
     4    1   38 1
     5    2    3 1
     6    2   39 1
     7    2   40 1
     8    3    4 1
     9    3   41 1
    10    3   42 1
    11    4    5 1
    12    4   43 1
    13    4   44 1
    14    5    6 1
    15    6   11 ar
    16    6    7 ar
    17    7    8 ar
    18    7   45 1
    19    8    9 ar
    20    8   46 1
    21    9   10 ar
    22    9   27 1
    23   10   11 ar
    24   10   47 1
    25   11   12 1
    26   12   13 1
    27   12   48 1
    28   12   49 1
    29   13   14 am
    30   13   50 1
    31   14   15 2
    32   14   16 1
    33   16   21 ar
    34   16   17 ar
    35   17   18 ar
    36   17   51 1
    37   18   19 ar
    38   18   52 1
    39   19   20 ar
    40   19   23 1
    41   20   21 ar
    42   20   53 1
    43   21   22 1
    44   23   24 1
    45   23   25 1
    46   23   26 1
    47   27   32 ar
    48   27   28 ar
    49   28   29 ar
    50   28   54 1
    51   29   30 ar
    52   29   55 1
    53   30   31 ar
    54   30   33 1
    55   31   32 ar
    56   32   56 1
    57   33   34 2
    58   33   35 1
@<TRIPOS>MOLECULE
CHEMBL1081241
   56    59     0     0     0
SMALL
USER_CHARGES

@<TRIPOS>ATOM
      1 C1         -1.5819    0.2159   -0.2486 C.3       1 <0>         0.0258
      2 O1         -0.2235   -0.1742   -0.0374 O.3       1 <0>        -0.3166
      3 C2          0.4255   -0.7430   -1.0872 C.ar      1 <0>         0.1354
      4 C3         -0.2330   -0.9155   -2.2972 C.ar      1 <0>        -0.2088
      5 C4          0.4224   -1.4923   -3.3646 C.ar      1 <0>        -0.0459
      6 C5          1.7487   -1.9021   -3.2277 C.ar      1 <0>        -0.0496
      7 C6          2.4073   -1.7268   -2.0106 C.ar      1 <0>        -0.0539
      8 C7          1.7472   -1.1449   -0.9489 C.ar      1 <0>        -0.1495
      9 C8          2.4559   -2.5225   -4.3720 C.2       1 <0>         0.0509
     10 C9          3.2922   -3.6191   -4.3230 C.2       1 <0>         0.0192
     11 O2          3.7129   -3.8375   -5.5885 O.3       1 <0>        -0.1812
     12 C10         3.1536   -2.9092   -6.3765 C.2       1 <0>         0.2103
     13 N1          2.3998   -2.1260   -5.6611 N.2       1 <0>        -0.4450
     14 C11         3.3615   -2.7932   -7.8646 C.3       1 <0>        -0.0295
     15 S1          4.7819   -1.7143   -8.1944 S.3       1 <0>        -0.0583
     16 C12         4.8926   -1.6807   -9.9526 C.ar      1 <0>        -0.1412
     17 C13         3.9811   -2.3942  -10.7201 C.ar      1 <0>        -0.0806
     18 C14         4.0682   -2.3670  -12.0981 C.ar      1 <0>        -0.1346
     19 C15         5.0657   -1.6273  -12.7164 C.ar      1 <0>         0.1572
     20 C16         5.9769   -0.9141  -11.9518 C.ar      1 <0>        -0.1931
     21 C17         5.8886   -0.9355  -10.5728 C.ar      1 <0>         0.0293
     22 Cl1         7.0246   -0.0372   -9.6156 Cl        1 <0>        -0.0558
     23 O3          5.1505   -1.6018  -14.0736 O.3       1 <0>        -0.2716
     24 C18         6.2020   -0.8197  -14.6433 C.3       1 <0>        -0.0119
     25 C19         6.1383   -0.9111  -16.1462 C.2       1 <0>         0.5021
     26 O4          5.2727   -1.5837  -16.6799 O.co2     1 <0>        -0.6698
     27 O5          6.9525   -0.3125  -16.8284 O.co2     1 <0>        -0.6842
     28 C20         3.6562   -4.3991   -3.1245 C.ar      1 <0>        -0.0598
     29 C21         2.6642   -4.8243   -2.2373 C.ar      1 <0>        -0.0403
     30 C22         3.0089   -5.5531   -1.1193 C.ar      1 <0>        -0.1490
     31 C23         4.3398   -5.8645   -0.8739 C.ar      1 <0>         0.1443
     32 C24         5.3293   -5.4435   -1.7528 C.ar      1 <0>        -0.2082
     33 C25         4.9934   -4.7197   -2.8766 C.ar      1 <0>        -0.0483
     34 O6          4.6750   -6.5828    0.2297 O.3       1 <0>        -0.3140
     35 C26         6.0620   -6.8680    0.4216 C.3       1 <0>         0.0244
     36 H1         -1.6283    0.9492   -1.0537 H         1 <0>         0.0572
     37 H2         -2.1732   -0.6588   -0.5194 H         1 <0>         0.0566
     38 H3         -1.9803    0.6548    0.6661 H         1 <0>         0.1004
     39 H4         -1.2599   -0.5980   -2.4025 H         1 <0>         0.1319
     40 H5         -0.0907   -1.6268   -4.3054 H         1 <0>         0.1305
     41 H6          3.4340   -2.0432   -1.9010 H         1 <0>         0.1301
     42 H7          2.2577   -1.0051   -0.0076 H         1 <0>         0.1343
     43 H8          3.5511   -3.7816   -8.2831 H         1 <0>         0.1188
     44 H9          2.4687   -2.3692   -8.3242 H         1 <0>         0.1314
     45 H10         3.2045   -2.9706  -10.2394 H         1 <0>         0.1343
     46 H11         3.3596   -2.9221  -12.6948 H         1 <0>         0.1429
     47 H12         6.7533   -0.3388  -12.4342 H         1 <0>         0.1458
     48 H13         6.0880    0.2203  -14.3374 H         1 <0>         0.0634
     49 H14         7.1641   -1.1969  -14.2968 H         1 <0>         0.0633
     50 H15         1.6290   -4.5820   -2.4270 H         1 <0>         0.1353
     51 H16         2.2427   -5.8822   -0.4330 H         1 <0>         0.1388
     52 H17         6.3631   -5.6877   -1.5578 H         1 <0>         0.1354
     53 H18         5.7630   -4.3969   -3.5620 H         1 <0>         0.1323
     54 H19         6.1910   -7.4457    1.3369 H         1 <0>         0.1023
     55 H20         6.4355   -7.4423   -0.4262 H         1 <0>         0.0581
     56 H21         6.6176   -5.9336    0.5004 H         1 <0>         0.0584
@<TRIPOS>BOND
     1    1    2 1
     2    1   36 1
     3    1   37 1
     4    1   38 1
     5    2    3 1
     6    3    8 ar
     7    3    4 ar
     8    4    5 ar
     9    4   39 1
    10    5    6 ar
    11    5   40 1
    12    6    7 ar
    13    6    9 1
    14    7    8 ar
    15    7   41 1
    16    8   42 1
    17    9   13 1
    18    9   10 2
    19   10   11 1
    20   10   28 1
    21   11   12 1
    22   12   13 2
    23   12   14 1
    24   14   15 1
    25   14   43 1
    26   14   44 1
    27   15   16 1
    28   16   21 ar
    29   16   17 ar
    30   17   18 ar
    31   17   45 1
    32   18   19 ar
    33   18   46 1
    34   19   20 ar
    35   19   23 1
    36   20   21 ar
    37   20   47 1
    38   21   22 1
    39   23   24 1
    40   24   25 1
    41   24   48 1
    42   24   49 1
    43   25   26 2
    44   25   27 1
    45   28   33 ar
    46   28   29 ar
    47   29   30 ar
    48   29   50 1
    49   30   31 ar
    50   30   51 1
    51   31   32 ar
    52   31   34 1
    53   32   33 ar
    54   32   52 1
    55   33   53 1
    56   34   35 1
    57   35   54 1
    58   35   55 1
    59   35   56 1
@<TRIPOS>MOLECULE
CHEMBL118887
   53    56     0     0     0
SMALL
USER_CHARGES

@<TRIPOS>ATOM
      1 C1         -0.0187    1.5258    0.0104 C.3       1 <0>        -0.1519
      2 C2          0.0021   -0.0041    0.0020 C.3       1 <0>        -0.1162
      3 C3         -1.4333   -0.5336    0.0129 C.3       1 <0>        -0.0700
      4 C4         -1.4129   -2.0405    0.0046 C.ar      1 <0>        -0.1208
      5 C5         -1.4091   -2.7284   -1.1962 C.ar      1 <0>         0.2032
      6 C6         -1.3902   -4.1210   -1.2125 C.ar      1 <0>        -0.2173
      7 C7         -1.3752   -4.8265   -0.0438 C.ar      1 <0>         0.0000
      8 C8         -1.3783   -4.1488    1.1782 C.ar      1 <0>        -0.2155
      9 C9         -1.3920   -2.7433    1.2011 C.ar      1 <0>         0.1313
     10 O1         -1.3852   -2.3679    2.4962 O.3       1 <0>        -0.0553
     11 N1         -1.3616   -3.5187    3.3166 N.2       1 <0>        -0.2276
     12 C10        -1.3657   -4.5850    2.5767 C.2       1 <0>         0.0473
     13 C11        -1.3444   -6.0101    3.0661 C.3       1 <0>         0.5559
     14 F1         -0.0190   -6.4336    3.2112 F         1 <0>        -0.1561
     15 F2         -1.9969   -6.0889    4.3011 F         1 <0>        -0.1573
     16 F3         -1.9976   -6.8309    2.1405 F         1 <0>        -0.1556
     17 O2         -1.4243   -2.0406   -2.3674 O.3       1 <0>        -0.2848
     18 C12        -1.4195   -2.8099   -3.5717 C.3       1 <0>         0.0583
     19 C13        -1.4384   -1.8689   -4.7780 C.3       1 <0>         0.0620
     20 O3         -0.2279   -1.1101   -4.8092 O.3       1 <0>        -0.3129
     21 C14        -0.0838   -0.2193   -5.8266 C.ar      1 <0>         0.0853
     22 C15        -1.0957   -0.0777   -6.7730 C.ar      1 <0>        -0.1896
     23 C16        -0.9662    0.8196   -7.8091 C.ar      1 <0>        -0.0757
     24 C17         0.1833    1.5952   -7.9178 C.ar      1 <0>         0.0884
     25 C18         1.2069    1.4546   -6.9639 C.ar      1 <0>        -0.0747
     26 C19         1.0625    0.5448   -5.9140 C.ar      1 <0>        -0.1100
     27 C20         2.2587    2.3958   -7.3560 C.2       1 <0>        -0.2343
     28 C21         1.8341    3.0195   -8.4663 C.2       1 <0>         0.0797
     29 N2          0.5963    2.5550   -8.8178 N.pl3     1 <0>        -0.4415
     30 C22        -0.1751    3.0088   -9.9777 C.3       1 <0>         0.0318
     31 C23        -1.1340    4.0904   -9.5513 C.2       1 <0>         0.4800
     32 O4         -1.1697    4.4489   -8.3865 O.co2     1 <0>        -0.6709
     33 O5         -1.8740    4.6069  -10.3711 O.co2     1 <0>        -0.6927
     34 H1          1.0039    1.9031    0.0027 H         1 <0>         0.0556
     35 H2         -0.5459    1.8868   -0.8726 H         1 <0>         0.0594
     36 H3         -0.5289    1.8773    0.9072 H         1 <0>         0.0522
     37 H4          0.5123   -0.3556   -0.8948 H         1 <0>         0.0685
     38 H5          0.5293   -0.3651    0.8851 H         1 <0>         0.0570
     39 H6         -1.9435   -0.1821    0.9097 H         1 <0>         0.0739
     40 H7         -1.9605   -0.1726   -0.8702 H         1 <0>         0.0871
     41 H8         -1.3878   -4.6463   -2.1561 H         1 <0>         0.1480
     42 H9         -1.3613   -5.9062   -0.0637 H         1 <0>         0.1434
     43 H10        -0.5210   -3.4260   -3.6056 H         1 <0>         0.0807
     44 H11        -2.3007   -3.4508   -3.5969 H         1 <0>         0.0883
     45 H12        -1.5243   -2.4539   -5.6937 H         1 <0>         0.0849
     46 H13        -2.2893   -1.1925   -4.6978 H         1 <0>         0.0740
     47 H14        -1.9902   -0.6777   -6.6935 H         1 <0>         0.1225
     48 H15        -1.7570    0.9211   -8.5377 H         1 <0>         0.1178
     49 H16         1.8447    0.4370   -5.1771 H         1 <0>         0.1230
     50 H17         3.1977    2.5577   -6.8477 H         1 <0>         0.1411
     51 H18         2.3877    3.7759   -9.0027 H         1 <0>         0.1605
     52 H19         0.5038    3.4026  -10.7340 H         1 <0>         0.0876
     53 H20        -0.7344    2.1703  -10.3927 H         1 <0>         0.0821
@<TRIPOS>BOND
     1    1    2 1
     2    1   34 1
     3    1   35 1
     4    1   36 1
     5    2    3 1
     6    2   37 1
     7    2   38 1
     8    3    4 1
     9    3   39 1
    10    3   40 1
    11    4    9 ar
    12    4    5 ar
    13    5    6 ar
    14    5   17 1
    15    6    7 ar
    16    6   41 1
    17    7    8 ar
    18    7   42 1
    19    8   12 1
    20    8    9 ar
    21    9   10 1
    22   10   11 1
    23   11   12 2
    24   12   13 1
    25   13   14 1
    26   13   15 1
    27   13   16 1
    28   17   18 1
    29   18   19 1
    30   18   43 1
    31   18   44 1
    32   19   20 1
    33   19   45 1
    34   19   46 1
    35   20   21 1
    36   21   26 ar
    37   21   22 ar
    38   22   23 ar
    39   22   47 1
    40   23   24 ar
    41   23   48 1
    42   24   29 1
    43   24   25 ar
    44   25   26 ar
    45   25   27 1
    46   26   49 1
    47   27   28 2
    48   27   50 1
    49   28   29 1
    50   28   51 1
    51   29   30 1
    52   30   31 1
    53   30   52 1
    54   30   53 1
    55   31   32 2
    56   31   33 1
@<TRIPOS>MOLECULE
CHEMBL118251
   69    72     0     0     0
SMALL
USER_CHARGES

@<TRIPOS>ATOM
      1 C1         -0.0187    1.5258    0.0104 C.3       1 <0>        -0.1525
      2 C2          0.0021   -0.0041    0.0020 C.3       1 <0>        -0.1158
      3 C3         -1.4333   -0.5336    0.0129 C.3       1 <0>        -0.0713
      4 C4         -1.4129   -2.0405    0.0046 C.ar      1 <0>        -0.1072
      5 C5         -1.6056   -2.7410    1.1798 C.ar      1 <0>        -0.0778
      6 C6         -1.5864   -4.1233    1.1729 C.ar      1 <0>        -0.1091
      7 C7         -1.3750   -4.8084   -0.0096 C.ar      1 <0>        -0.0791
      8 C8         -1.1823   -4.1127   -1.1871 C.ar      1 <0>        -0.2034
      9 C9         -1.2062   -2.7254   -1.1838 C.ar      1 <0>         0.1266
     10 O1         -1.0225   -2.0387   -2.3421 O.3       1 <0>        -0.3071
     11 C10        -0.8152   -2.8094   -3.5274 C.3       1 <0>         0.0645
     12 C11        -0.6290   -1.8700   -4.7206 C.3       1 <0>        -0.1197
     13 C12        -0.4071   -2.6953   -5.9897 C.3       1 <0>         0.0636
     14 O2         -0.2331   -1.8179   -7.1041 O.3       1 <0>        -0.3076
     15 C13        -0.0238   -2.3947   -8.3167 C.ar      1 <0>         0.1355
     16 C14         0.0075   -3.7770   -8.4325 C.ar      1 <0>        -0.1909
     17 C15         0.2199   -4.3608   -9.6662 C.ar      1 <0>        -0.0733
     18 C16         0.4012   -3.5688  -10.7852 C.ar      1 <0>        -0.1312
     19 C17         0.3708   -2.1913  -10.6724 C.ar      1 <0>        -0.0713
     20 C18         0.1530   -1.6025   -9.4415 C.ar      1 <0>        -0.1182
     21 C19         0.5692   -1.3313  -11.8938 C.3       1 <0>         0.0882
     22 C20        -0.7213   -1.2199  -12.6800 C.2       1 <0>         0.5126
     23 O3         -1.7724   -0.7487  -12.3019 O.2       1 <0>        -0.4339
     24 N1         -0.4545   -1.7547  -13.8891 N.am      1 <0>        -0.6835
     25 C21         0.8150   -2.1763  -13.9522 C.2       1 <0>         0.6500
     26 O4          1.3072   -2.6963  -14.9334 O.2       1 <0>        -0.4649
     27 O5          1.4816   -1.9584  -12.8077 O.3       1 <0>        -0.2873
     28 C22        -1.7959   -4.8849    2.4564 C.3       1 <0>        -0.0389
     29 C23        -0.5212   -5.6944    2.7705 C.3       1 <0>        -0.1073
     30 C24        -0.5157   -6.0268    4.2381 C.3       1 <0>        -0.1196
     31 C25        -1.1228   -7.4122    4.5309 C.3       1 <0>        -0.1178
     32 C26        -2.3893   -7.6970    3.7012 C.3       1 <0>        -0.1196
     33 C27        -3.2993   -6.5020    3.6108 C.3       1 <0>        -0.1173
     34 C28        -2.9706   -5.7324    2.3151 C.3       1 <0>        -0.1115
     35 H1          1.0039    1.9031    0.0027 H         1 <0>         0.0538
     36 H2         -0.5459    1.8868   -0.8726 H         1 <0>         0.0545
     37 H3         -0.5289    1.8773    0.9072 H         1 <0>         0.0531
     38 H4          0.5123   -0.3556   -0.8948 H         1 <0>         0.0641
     39 H5          0.5293   -0.3651    0.8851 H         1 <0>         0.0590
     40 H6         -1.9435   -0.1821    0.9097 H         1 <0>         0.0689
     41 H7         -1.9605   -0.1726   -0.8702 H         1 <0>         0.0743
     42 H8         -1.7709   -2.2083    2.1046 H         1 <0>         0.1269
     43 H9         -1.3601   -5.8883   -0.0123 H         1 <0>         0.1221
     44 H10        -1.0171   -4.6482   -2.1104 H         1 <0>         0.1253
     45 H11         0.0753   -3.4266   -3.4084 H         1 <0>         0.0653
     46 H12        -1.6804   -3.4495   -3.7005 H         1 <0>         0.0650
     47 H13        -1.5195   -1.2528   -4.8396 H         1 <0>         0.0881
     48 H14         0.2362   -1.2300   -4.5475 H         1 <0>         0.0882
     49 H15         0.4834   -3.3125   -5.8706 H         1 <0>         0.0685
     50 H16        -1.2722   -3.3353   -6.1627 H         1 <0>         0.0682
     51 H17        -0.1336   -4.3959   -7.5588 H         1 <0>         0.1341
     52 H18         0.2448   -5.4367   -9.7568 H         1 <0>         0.1343
     53 H19         0.5671   -4.0272  -11.7490 H         1 <0>         0.1252
     54 H20         0.1249   -0.5264   -9.3546 H         1 <0>         0.1417
     55 H21         0.9320   -0.3436  -11.6094 H         1 <0>         0.1633
     56 H22        -1.0949   -1.8241  -14.6143 H         1 <0>         0.4455
     57 H23        -1.9688   -4.1738    3.2641 H         1 <0>         0.0742
     58 H24        -0.5188   -6.6149    2.1866 H         1 <0>         0.0660
     59 H25         0.3594   -5.1003    2.5263 H         1 <0>         0.0637
     60 H26         0.5123   -6.0085    4.6000 H         1 <0>         0.0588
     61 H27        -1.0895   -5.2701    4.7732 H         1 <0>         0.0612
     62 H28        -0.3779   -8.1764    4.3089 H         1 <0>         0.0575
     63 H29        -1.3761   -7.4683    5.5896 H         1 <0>         0.0580
     64 H30        -2.0926   -7.9912    2.6945 H         1 <0>         0.0598
     65 H31        -2.9343   -8.5213    4.1612 H         1 <0>         0.0573
     66 H32        -4.3375   -6.8334    3.5865 H         1 <0>         0.0625
     67 H33        -3.1391   -5.8538    4.4724 H         1 <0>         0.0660
     68 H34        -3.8247   -5.1102    2.0478 H         1 <0>         0.0601
     69 H35        -2.7942   -6.4497    1.5136 H         1 <0>         0.0615
@<TRIPOS>BOND
     1    1    2 1
     2    1   35 1
     3    1   36 1
     4    1   37 1
     5    2    3 1
     6    2   38 1
     7    2   39 1
     8    3    4 1
     9    3   40 1
    10    3   41 1
    11    4    9 ar
    12    4    5 ar
    13    5    6 ar
    14    5   42 1
    15    6    7 ar
    16    6   28 1
    17    7    8 ar
    18    7   43 1
    19    8    9 ar
    20    8   44 1
    21    9   10 1
    22   10   11 1
    23   11   12 1
    24   11   45 1
    25   11   46 1
    26   12   13 1
    27   12   47 1
    28   12   48 1
    29   13   14 1
    30   13   49 1
    31   13   50 1
    32   14   15 1
    33   15   20 ar
    34   15   16 ar
    35   16   17 ar
    36   16   51 1
    37   17   18 ar
    38   17   52 1
    39   18   19 ar
    40   18   53 1
    41   19   20 ar
    42   19   21 1
    43   20   54 1
    44   21   27 1
    45   21   22 1
    46   21   55 1
    47   22   23 2
    48   22   24 am
    49   24   25 am
    50   24   56 1
    51   25   26 2
    52   25   27 1
    53   28   34 1
    54   28   29 1
    55   28   57 1
    56   29   30 1
    57   29   58 1
    58   29   59 1
    59   30   31 1
    60   30   60 1
    61   30   61 1
    62   31   32 1
    63   31   62 1
    64   31   63 1
    65   32   33 1
    66   32   64 1
    67   32   65 1
    68   33   34 1
    69   33   66 1
    70   33   67 1
    71   34   68 1
    72   34   69 1
@<TRIPOS>MOLECULE
CHEMBL118251__1
   69    72     0     0     0
SMALL
USER_CHARGES

@<TRIPOS>ATOM
      1 C1         -0.0187    1.5258    0.0104 C.3       1 <0>        -0.1524
      2 C2          0.0021   -0.0041    0.0020 C.3       1 <0>        -0.1159
      3 C3         -1.4333   -0.5336    0.0129 C.3       1 <0>        -0.0712
      4 C4         -1.4129   -2.0405    0.0046 C.ar      1 <0>        -0.1072
      5 C5         -1.6056   -2.7410    1.1798 C.ar      1 <0>        -0.0778
      6 C6         -1.5864   -4.1233    1.1729 C.ar      1 <0>        -0.1091
      7 C7         -1.3750   -4.8084   -0.0096 C.ar      1 <0>        -0.0791
      8 C8         -1.1823   -4.1127   -1.1871 C.ar      1 <0>        -0.2034
      9 C9         -1.2062   -2.7254   -1.1838 C.ar      1 <0>         0.1266
     10 O1         -1.0225   -2.0387   -2.3421 O.3       1 <0>        -0.3071
     11 C10        -0.8152   -2.8094   -3.5274 C.3       1 <0>         0.0645
     12 C11        -0.6290   -1.8700   -4.7206 C.3       1 <0>        -0.1197
     13 C12        -0.4071   -2.6953   -5.9897 C.3       1 <0>         0.0635
     14 O2         -0.2331   -1.8179   -7.1041 O.3       1 <0>        -0.3076
     15 C13        -0.0238   -2.3947   -8.3167 C.ar      1 <0>         0.1354
     16 C14         0.0075   -3.7770   -8.4325 C.ar      1 <0>        -0.1904
     17 C15         0.2199   -4.3608   -9.6662 C.ar      1 <0>        -0.0731
     18 C16         0.4012   -3.5688  -10.7852 C.ar      1 <0>        -0.1313
     19 C17         0.3708   -2.1913  -10.6724 C.ar      1 <0>        -0.0706
     20 C18         0.1530   -1.6025   -9.4415 C.ar      1 <0>        -0.1175
     21 C19         0.5692   -1.3313  -11.8938 C.3       1 <0>         0.0879
     22 C20         2.0320   -1.2969  -12.2870 C.2       1 <0>         0.5127
     23 O3          2.9598   -0.8820  -11.6261 O.2       1 <0>        -0.4339
     24 N1          2.0850   -1.8257  -13.5266 N.am      1 <0>        -0.6837
     25 C21         0.8626   -2.1777  -13.9455 C.2       1 <0>         0.6498
     26 O4          0.6366   -2.6776  -15.0291 O.2       1 <0>        -0.4648
     27 O5         -0.0844   -1.9146  -13.0312 O.3       1 <0>        -0.2872
     28 C22        -1.7959   -4.8849    2.4564 C.3       1 <0>        -0.0389
     29 C23        -0.5212   -5.6944    2.7705 C.3       1 <0>        -0.1073
     30 C24        -0.5157   -6.0268    4.2381 C.3       1 <0>        -0.1196
     31 C25        -1.1228   -7.4122    4.5309 C.3       1 <0>        -0.1178
     32 C26        -2.3893   -7.6970    3.7012 C.3       1 <0>        -0.1196
     33 C27        -3.2993   -6.5020    3.6108 C.3       1 <0>        -0.1173
     34 C28        -2.9706   -5.7324    2.3151 C.3       1 <0>        -0.1114
     35 H1          1.0039    1.9031    0.0027 H         1 <0>         0.0538
     36 H2         -0.5459    1.8868   -0.8726 H         1 <0>         0.0545
     37 H3         -0.5289    1.8773    0.9072 H         1 <0>         0.0531
     38 H4          0.5123   -0.3556   -0.8948 H         1 <0>         0.0641
     39 H5          0.5293   -0.3651    0.8851 H         1 <0>         0.0590
     40 H6         -1.9435   -0.1821    0.9097 H         1 <0>         0.0689
     41 H7         -1.9605   -0.1726   -0.8702 H         1 <0>         0.0743
     42 H8         -1.7709   -2.2083    2.1046 H         1 <0>         0.1269
     43 H9         -1.3601   -5.8883   -0.0123 H         1 <0>         0.1221
     44 H10        -1.0171   -4.6482   -2.1104 H         1 <0>         0.1253
     45 H11         0.0753   -3.4266   -3.4084 H         1 <0>         0.0652
     46 H12        -1.6804   -3.4495   -3.7005 H         1 <0>         0.0651
     47 H13        -1.5195   -1.2528   -4.8396 H         1 <0>         0.0881
     48 H14         0.2362   -1.2300   -4.5475 H         1 <0>         0.0881
     49 H15         0.4834   -3.3125   -5.8706 H         1 <0>         0.0683
     50 H16        -1.2722   -3.3353   -6.1627 H         1 <0>         0.0685
     51 H17        -0.1336   -4.3959   -7.5588 H         1 <0>         0.1342
     52 H18         0.2448   -5.4367   -9.7568 H         1 <0>         0.1343
     53 H19         0.5671   -4.0272  -11.7490 H         1 <0>         0.1238
     54 H20         0.1249   -0.5264   -9.3546 H         1 <0>         0.1419
     55 H21         0.1960   -0.3230  -11.7145 H         1 <0>         0.1629
     56 H22         2.8978   -1.9363  -14.0442 H         1 <0>         0.4454
     57 H23        -1.9688   -4.1738    3.2641 H         1 <0>         0.0742
     58 H24        -0.5188   -6.6149    2.1866 H         1 <0>         0.0660
     59 H25         0.3594   -5.1003    2.5263 H         1 <0>         0.0637
     60 H26         0.5123   -6.0085    4.6000 H         1 <0>         0.0588
     61 H27        -1.0895   -5.2701    4.7732 H         1 <0>         0.0612
     62 H28        -0.3779   -8.1764    4.3089 H         1 <0>         0.0575
     63 H29        -1.3761   -7.4683    5.5896 H         1 <0>         0.0580
     64 H30        -2.0926   -7.9912    2.6945 H         1 <0>         0.0598
     65 H31        -2.9343   -8.5213    4.1612 H         1 <0>         0.0573
     66 H32        -4.3375   -6.8334    3.5865 H         1 <0>         0.0625
     67 H33        -3.1391   -5.8538    4.4724 H         1 <0>         0.0660
     68 H34        -3.8247   -5.1102    2.0478 H         1 <0>         0.0601
     69 H35        -2.7942   -6.4497    1.5136 H         1 <0>         0.0615
@<TRIPOS>BOND
     1    1    2 1
     2    1   35 1
     3    1   36 1
     4    1   37 1
     5    2    3 1
     6    2   38 1
     7    2   39 1
     8    3    4 1
     9    3   40 1
    10    3   41 1
    11    4    9 ar
    12    4    5 ar
    13    5    6 ar
    14    5   42 1
    15    6    7 ar
    16    6   28 1
    17    7    8 ar
    18    7   43 1
    19    8    9 ar
    20    8   44 1
    21    9   10 1
    22   10   11 1
    23   11   12 1
    24   11   45 1
    25   11   46 1
    26   12   13 1
    27   12   47 1
    28   12   48 1
    29   13   14 1
    30   13   49 1
    31   13   50 1
    32   14   15 1
    33   15   20 ar
    34   15   16 ar
    35   16   17 ar
    36   16   51 1
    37   17   18 ar
    38   17   52 1
    39   18   19 ar
    40   18   53 1
    41   19   20 ar
    42   19   21 1
    43   20   54 1
    44   21   27 1
    45   21   22 1
    46   21   55 1
    47   22   23 2
    48   22   24 am
    49   24   25 am
    50   24   56 1
    51   25   26 2
    52   25   27 1
    53   28   34 1
    54   28   29 1
    55   28   57 1
    56   29   30 1
    57   29   58 1
    58   29   59 1
    59   30   31 1
    60   30   60 1
    61   30   61 1
    62   31   32 1
    63   31   62 1
    64   31   63 1
    65   32   33 1
    66   32   64 1
    67   32   65 1
    68   33   34 1
    69   33   66 1
    70   33   67 1
    71   34   68 1
    72   34   69 1
@<TRIPOS>MOLECULE
CHEMBL393766
   51    54     0     0     0
SMALL
USER_CHARGES

@<TRIPOS>ATOM
      1 C1         -0.0167    1.3779    0.0096 C.ar      1 <0>        -0.1191
      2 C2          1.1711    2.0854    0.0021 C.ar      1 <0>        -0.1151
      3 C3          2.3773    1.4107   -0.0130 C.ar      1 <0>        -0.0929
      4 C4          2.3960    0.0283   -0.0201 C.ar      1 <0>        -0.0786
      5 C5          1.2086   -0.6790   -0.0117 C.ar      1 <0>        -0.0884
      6 C6          0.0021   -0.0041    0.0020 C.ar      1 <0>        -0.0967
      7 C7          1.2291   -2.1858   -0.0204 C.3       1 <0>         0.0959
      8 O1         -0.1116   -2.6804   -0.0091 O.3       1 <0>        -0.3022
      9 C8         -0.2713   -4.0300   -0.0151 C.ar      1 <0>         0.1654
     10 C9          0.8394   -4.8611   -0.0256 C.ar      1 <0>        -0.2105
     11 C10         0.6744   -6.2327   -0.0312 C.ar      1 <0>        -0.0253
     12 C11        -0.5965   -6.7772   -0.0267 C.ar      1 <0>        -0.2249
     13 C12        -1.7052   -5.9511   -0.0167 C.ar      1 <0>        -0.0305
     14 C13        -1.5454   -4.5789   -0.0048 C.ar      1 <0>        -0.1532
     15 C14        -0.7737   -8.2738   -0.0333 C.3       1 <0>         0.5119
     16 F1         -0.8210   -8.7436    1.2836 F         1 <0>        -0.1777
     17 F2         -1.9666   -8.5993   -0.6876 F         1 <0>        -0.1786
     18 F3          0.3021   -8.8678   -0.7020 F         1 <0>        -0.1767
     19 C15         3.7112   -0.7073   -0.0376 C.3       1 <0>         0.0985
     20 O2          4.7846    0.2360   -0.0441 O.3       1 <0>        -0.3075
     21 C16         6.0475   -0.2664   -0.0599 C.ar      1 <0>         0.1428
     22 C17         6.2417   -1.6448   -0.0745 C.ar      1 <0>        -0.2246
     23 C18         7.5058   -2.1641   -0.0904 C.ar      1 <0>        -0.0165
     24 C19         8.6064   -1.3082   -0.0920 C.ar      1 <0>        -0.1385
     25 C20         8.4196    0.0842   -0.0773 C.ar      1 <0>         0.0891
     26 C21         7.1286    0.5963   -0.0669 C.ar      1 <0>        -0.1488
     27 O3          9.6422    0.6524   -0.0826 O.3       1 <0>        -0.1957
     28 C22        10.6066   -0.2851   -0.0998 C.2       1 <0>        -0.0326
     29 C23        10.0610   -1.5085   -0.1066 C.2       1 <0>        -0.0973
     30 C24        10.7929   -2.8257   -0.1249 C.3       1 <0>        -0.1286
     31 C25        10.9163   -3.3121   -1.5459 C.2       1 <0>         0.4952
     32 O4         10.4527   -2.6505   -2.4591 O.co2     1 <0>        -0.6856
     33 O5         11.4795   -4.3672   -1.7823 O.co2     1 <0>        -0.7022
     34 H1         -0.9591    1.9051    0.0259 H         1 <0>         0.1247
     35 H2          1.1565    3.1653    0.0076 H         1 <0>         0.1257
     36 H3          3.3051    1.9634   -0.0196 H         1 <0>         0.1381
     37 H4         -0.9258   -0.5567    0.0079 H         1 <0>         0.1334
     38 H5          1.7384   -2.5371   -0.9178 H         1 <0>         0.0833
     39 H6          1.7571   -2.5471    0.8621 H         1 <0>         0.0824
     40 H7          1.8323   -4.4363   -0.0299 H         1 <0>         0.1417
     41 H8          1.5387   -6.8801   -0.0394 H         1 <0>         0.1411
     42 H9         -2.6968   -6.3788   -0.0135 H         1 <0>         0.1427
     43 H10        -2.4116   -3.9340    0.0075 H         1 <0>         0.1437
     44 H11         3.7867   -1.3376    0.8485 H         1 <0>         0.0775
     45 H12         3.7681   -1.3287   -0.9313 H         1 <0>         0.0786
     46 H13         5.3889   -2.3074   -0.0729 H         1 <0>         0.1276
     47 H14         7.6517   -3.2342   -0.1014 H         1 <0>         0.1289
     48 H15         6.9694    1.6645   -0.0603 H         1 <0>         0.1350
     49 H16        11.6671   -0.0811   -0.1075 H         1 <0>         0.2023
     50 H17        11.7873   -2.6947    0.3019 H         1 <0>         0.0724
     51 H18        10.2388   -3.5575    0.4628 H         1 <0>         0.0705
@<TRIPOS>BOND
     1    1    6 ar
     2    1    2 ar
     3    1   34 1
     4    2    3 ar
     5    2   35 1
     6    3    4 ar
     7    3   36 1
     8    4    5 ar
     9    4   19 1
    10    5    6 ar
    11    5    7 1
    12    6   37 1
    13    7    8 1
    14    7   38 1
    15    7   39 1
    16    8    9 1
    17    9   14 ar
    18    9   10 ar
    19   10   11 ar
    20   10   40 1
    21   11   12 ar
    22   11   41 1
    23   12   13 ar
    24   12   15 1
    25   13   14 ar
    26   13   42 1
    27   14   43 1
    28   15   16 1
    29   15   17 1
    30   15   18 1
    31   19   20 1
    32   19   44 1
    33   19   45 1
    34   20   21 1
    35   21   26 ar
    36   21   22 ar
    37   22   23 ar
    38   22   46 1
    39   23   24 ar
    40   23   47 1
    41   24   29 1
    42   24   25 ar
    43   25   26 ar
    44   25   27 1
    45   26   48 1
    46   27   28 1
    47   28   29 2
    48   28   49 1
    49   29   30 1
    50   30   31 1
    51   30   50 1
    52   30   51 1
    53   31   32 2
    54   31   33 1
@<TRIPOS>MOLECULE
CHEMBL124079
   65    67     0     0     0
SMALL
USER_CHARGES

@<TRIPOS>ATOM
      1 C1         -1.8262   -2.7658    0.6549 C.3       1 <0>        -0.1154
      2 C2         -0.4375   -2.1356    0.5308 C.3       1 <0>         0.0291
      3 C3         -0.5712   -0.7080   -0.0028 C.3       1 <0>        -0.1709
      4 C4          0.2235   -2.1060    1.8848 C.2       1 <0>         0.4819
      5 O1          1.2777   -2.6924    2.0615 O.co2     1 <0>        -0.6670
      6 O2         -0.2960   -1.4955    2.8035 O.co2     1 <0>        -0.6860
      7 O3          0.3576   -2.9086   -0.3705 O.3       1 <0>        -0.3056
      8 C5          1.6541   -2.5327   -0.5274 C.ar      1 <0>         0.1697
      9 C6          2.1514   -1.4435    0.1733 C.ar      1 <0>        -0.1481
     10 C7          3.4698   -1.0637    0.0125 C.ar      1 <0>        -0.0919
     11 C8          4.2935   -1.7678   -0.8463 C.ar      1 <0>        -0.1416
     12 C9          3.8001   -2.8534   -1.5462 C.ar      1 <0>        -0.0869
     13 C10         2.4841   -3.2410   -1.3842 C.ar      1 <0>        -0.1703
     14 C11         5.7312   -1.3510   -1.0202 C.3       1 <0>        -0.0829
     15 C12         6.6016   -2.0820    0.0040 C.3       1 <0>         0.1340
     16 N1          7.9993   -1.6768   -0.1651 N.am      1 <0>        -0.6116
     17 C13         8.5231   -0.5264    0.5755 C.3       1 <0>         0.1440
     18 C14         7.7287    0.7032    0.2274 C.3       1 <0>        -0.1398
     19 C15         8.5895    1.9809    0.2278 C.3       1 <0>        -0.1146
     20 C16         9.5779    2.0350    1.4084 C.3       1 <0>        -0.1215
     21 C17         8.9606    1.5664    2.6981 C.3       1 <0>        -0.1216
     22 C18         9.2754    0.0669    2.8756 C.3       1 <0>        -0.1158
     23 C19         8.3915   -0.7822    2.0908 C.3       1 <0>        -0.1328
     24 C20         8.8031   -2.3623   -1.0019 C.2       1 <0>         0.7083
     25 O4          8.3476   -3.2612   -1.6823 O.2       1 <0>        -0.5615
     26 N2         10.1119   -2.0515   -1.0846 N.am      1 <0>        -0.6798
     27 C21        10.9286   -2.7003   -2.0214 C.ar      1 <0>         0.1393
     28 C22        10.3575   -3.3961   -3.0775 C.ar      1 <0>        -0.0936
     29 C23        11.1637   -4.0345   -4.0000 C.ar      1 <0>        -0.1340
     30 C24        12.5415   -3.9814   -3.8721 C.ar      1 <0>         0.0982
     31 C25        13.1150   -3.2886   -2.8195 C.ar      1 <0>        -0.1658
     32 C26        12.3121   -2.6427   -1.8970 C.ar      1 <0>         0.0832
     33 F1         12.8714   -1.9615   -0.8731 F         1 <0>        -0.1327
     34 F2         13.3273   -4.6071   -4.7756 F         1 <0>        -0.1346
     35 H1         -2.3382   -2.7088   -0.3057 H         1 <0>         0.0503
     36 H2         -1.7262   -3.8098    0.9519 H         1 <0>         0.0565
     37 H3         -2.4034   -2.2279    1.4068 H         1 <0>         0.0777
     38 H4         -1.0533   -0.0828    0.7487 H         1 <0>         0.0737
     39 H5          0.4184   -0.3095   -0.2264 H         1 <0>         0.0660
     40 H6         -1.1739   -0.7145   -0.9110 H         1 <0>         0.0506
     41 H7          1.5082   -0.8928    0.8437 H         1 <0>         0.1356
     42 H8          3.8574   -0.2159    0.5578 H         1 <0>         0.1097
     43 H9          4.4454   -3.4016   -2.2167 H         1 <0>         0.1171
     44 H10         2.1004   -4.0918   -1.9277 H         1 <0>         0.1180
     45 H11         6.0638   -1.6047   -2.0268 H         1 <0>         0.0691
     46 H12         5.8184   -0.2751   -0.8692 H         1 <0>         0.0707
     47 H13         6.2690   -1.8283    1.0105 H         1 <0>         0.0844
     48 H14         6.5144   -3.1580   -0.1471 H         1 <0>         0.0882
     49 H15         9.5715   -0.3730    0.3198 H         1 <0>         0.0813
     50 H16         7.2921    0.5724   -0.7628 H         1 <0>         0.0792
     51 H17         6.9237    0.8200    0.9530 H         1 <0>         0.0748
     52 H18         9.1526    2.0257   -0.7044 H         1 <0>         0.0584
     53 H19         7.9313    2.8482    0.2804 H         1 <0>         0.0656
     54 H20        10.4365    1.4040    1.1787 H         1 <0>         0.0578
     55 H21         9.9210    3.0619    1.5343 H         1 <0>         0.0603
     56 H22         9.3808    2.1299    3.5312 H         1 <0>         0.0634
     57 H23         7.8810    1.7120    2.6615 H         1 <0>         0.0704
     58 H24        10.3051   -0.1163    2.5686 H         1 <0>         0.0589
     59 H25         9.1715   -0.1933    3.9289 H         1 <0>         0.0660
     60 H26         7.3612   -0.5935    2.3925 H         1 <0>         0.0749
     61 H27         8.6315   -1.8257    2.2949 H         1 <0>         0.0679
     62 H28        10.4888   -1.3789   -0.4960 H         1 <0>         0.4101
     63 H29         9.2830   -3.4388   -3.1780 H         1 <0>         0.1860
     64 H30        10.7188   -4.5759   -4.8218 H         1 <0>         0.1460
     65 H31        14.1898   -3.2487   -2.7213 H         1 <0>         0.1501
@<TRIPOS>BOND
     1    1    2 1
     2    1   35 1
     3    1   36 1
     4    1   37 1
     5    2    3 1
     6    2    4 1
     7    2    7 1
     8    3   38 1
     9    3   39 1
    10    3   40 1
    11    4    5 2
    12    4    6 1
    13    7    8 1
    14    8   13 ar
    15    8    9 ar
    16    9   10 ar
    17    9   41 1
    18   10   11 ar
    19   10   42 1
    20   11   12 ar
    21   11   14 1
    22   12   13 ar
    23   12   43 1
    24   13   44 1
    25   14   15 1
    26   14   45 1
    27   14   46 1
    28   15   16 1
    29   15   47 1
    30   15   48 1
    31   16   17 1
    32   16   24 am
    33   17   23 1
    34   17   18 1
    35   17   49 1
    36   18   19 1
    37   18   50 1
    38   18   51 1
    39   19   20 1
    40   19   52 1
    41   19   53 1
    42   20   21 1
    43   20   54 1
    44   20   55 1
    45   21   22 1
    46   21   56 1
    47   21   57 1
    48   22   23 1
    49   22   58 1
    50   22   59 1
    51   23   60 1
    52   23   61 1
    53   24   25 2
    54   24   26 am
    55   26   27 1
    56   26   62 1
    57   27   32 ar
    58   27   28 ar
    59   28   29 ar
    60   28   63 1
    61   29   30 ar
    62   29   64 1
    63   30   31 ar
    64   30   34 1
    65   31   32 ar
    66   31   65 1
    67   32   33 1
@<TRIPOS>MOLECULE
CHEMBL1081223
   58    62     0     0     0
SMALL
USER_CHARGES

@<TRIPOS>ATOM
      1 C1         -0.4926    2.0095   -0.7890 C.3       1 <0>        -0.1055
      2 C2         -0.3840    0.5152   -0.6268 C.ar      1 <0>        -0.0851
      3 C3         -0.3218   -0.2980   -1.7420 C.ar      1 <0>        -0.1078
      4 C4         -0.2214   -1.6730   -1.5927 C.ar      1 <0>         0.0746
      5 C5         -0.1835   -2.2320   -0.3237 C.ar      1 <0>        -0.1693
      6 C6         -0.2457   -1.4191    0.7911 C.ar      1 <0>        -0.1755
      7 C7         -0.3409   -0.0433    0.6418 C.ar      1 <0>         0.1110
      8 O1         -0.3965    0.7575    1.7394 O.3       1 <0>        -0.2773
      9 C8         -0.3472    0.1146    3.0147 C.3       1 <0>        -0.0070
     10 C9         -0.4201    1.1533    4.1041 C.2       1 <0>         0.5011
     11 O2         -0.5062    2.3347    3.8152 O.co2     1 <0>        -0.6704
     12 O3         -0.3928    0.8123    5.2743 O.co2     1 <0>        -0.6881
     13 O4         -0.1605   -2.4734   -2.6904 O.3       1 <0>        -0.3104
     14 C10        -0.0580   -3.8804   -2.4624 C.3       1 <0>         0.1503
     15 C11        -0.0025   -4.6008   -3.7849 C.2       1 <0>         0.0493
     16 N1          1.0539   -4.9156   -4.4876 N.2       1 <0>        -0.4809
     17 C12         0.9541   -5.5549   -5.6423 C.2       1 <0>         0.1189
     18 C13        -0.3395   -5.8666   -6.0545 C.2       1 <0>        -0.1564
     19 S1         -1.2853   -5.1938   -4.6976 S.3       1 <0>         0.1847
     20 C14        -0.8000   -6.5641   -7.2717 C.ar      1 <0>        -0.0221
     21 C15        -0.1998   -7.7638   -7.6609 C.ar      1 <0>        -0.0499
     22 C16        -0.6329   -8.4115   -8.7981 C.ar      1 <0>        -0.1180
     23 C17        -1.6641   -7.8731   -9.5562 C.ar      1 <0>         0.1161
     24 C18        -2.2637   -6.6806   -9.1730 C.ar      1 <0>        -0.1867
     25 C19        -1.8409   -6.0291   -8.0341 C.ar      1 <0>        -0.0552
     26 O5         -2.0876   -8.5147  -10.6768 O.3       1 <0>        -0.3090
     27 C20        -3.1524   -7.9058  -11.4099 C.3       1 <0>         0.6039
     28 F1         -2.7586   -6.6316  -11.8325 F         1 <0>        -0.1633
     29 F2         -3.4604   -8.6924  -12.5250 F         1 <0>        -0.1297
     30 F3         -4.2807   -7.7971  -10.5898 F         1 <0>        -0.1631
     31 C21         2.1442   -5.9160   -6.4468 C.ar      1 <0>        -0.0045
     32 C22         2.1309   -5.7377   -7.8315 C.ar      1 <0>        -0.0717
     33 C23         3.2380   -6.0729   -8.5814 C.ar      1 <0>        -0.0978
     34 C24         4.3666   -6.5884   -7.9603 C.ar      1 <0>         0.0770
     35 C25         4.3868   -6.7694   -6.5764 C.ar      1 <0>         0.0367
     36 C26         3.2789   -6.4283   -5.8206 C.ar      1 <0>        -0.0442
     37 O6          5.6011   -7.2802   -6.2551 O.3       1 <0>        -0.2327
     38 C27         6.3295   -7.4226   -7.3734 C.2       1 <0>         0.6396
     39 O7          7.4644   -7.8565   -7.4214 O.2       1 <0>        -0.4844
     40 N2          5.6086   -7.0105   -8.4348 N.am      1 <0>        -0.6469
     41 H1          5.9000   -7.0082   -9.3600 H         1 <0>         0.4443
     42 H2          0.5062    2.4440   -0.8303 H         1 <0>         0.0695
     43 H3         -1.0262    2.2370   -1.7118 H         1 <0>         0.0613
     44 H4         -1.0363    2.4283    0.0578 H         1 <0>         0.0809
     45 H5         -0.3516    0.1372   -2.7299 H         1 <0>         0.1326
     46 H6         -0.1057   -3.3029   -0.2075 H         1 <0>         0.1251
     47 H7         -0.2170   -1.8544    1.7791 H         1 <0>         0.1325
     48 H8         -1.1897   -0.5706    3.1090 H         1 <0>         0.0580
     49 H9          0.5856   -0.4420    3.1052 H         1 <0>         0.0582
     50 H10         0.8487   -4.0914   -1.8954 H         1 <0>         0.0975
     51 H11        -0.9265   -4.2214   -1.8990 H         1 <0>         0.0905
     52 H12         0.6025   -8.1831   -7.0721 H         1 <0>         0.1424
     53 H13        -0.1692   -9.3390   -9.1000 H         1 <0>         0.1456
     54 H14        -3.0652   -6.2652   -9.7657 H         1 <0>         0.1400
     55 H15        -2.3107   -5.1040   -7.7343 H         1 <0>         0.1396
     56 H16         1.2525   -5.3371   -8.3156 H         1 <0>         0.1421
     57 H17         3.2268   -5.9346   -9.6525 H         1 <0>         0.1424
     58 H18         3.2921   -6.5625   -4.7490 H         1 <0>         0.1475
@<TRIPOS>BOND
     1    1    2 1
     2    1   42 1
     3    1   43 1
     4    1   44 1
     5    2    7 ar
     6    2    3 ar
     7    3    4 ar
     8    3   45 1
     9    4    5 ar
    10    4   13 1
    11    5    6 ar
    12    5   46 1
    13    6    7 ar
    14    6   47 1
    15    7    8 1
    16    8    9 1
    17    9   10 1
    18    9   48 1
    19    9   49 1
    20   10   11 2
    21   10   12 1
    22   13   14 1
    23   14   15 1
    24   14   50 1
    25   14   51 1
    26   15   19 1
    27   15   16 2
    28   16   17 1
    29   17   18 2
    30   17   31 1
    31   18   19 1
    32   18   20 1
    33   20   25 ar
    34   20   21 ar
    35   21   22 ar
    36   21   52 1
    37   22   23 ar
    38   22   53 1
    39   23   24 ar
    40   23   26 1
    41   24   25 ar
    42   24   54 1
    43   25   55 1
    44   26   27 1
    45   27   28 1
    46   27   29 1
    47   27   30 1
    48   31   36 ar
    49   31   32 ar
    50   32   33 ar
    51   32   56 1
    52   33   34 ar
    53   33   57 1
    54   34   40 1
    55   34   35 ar
    56   35   36 ar
    57   35   37 1
    58   36   58 1
    59   37   38 1
    60   38   39 2
    61   38   40 am
    62   40   41 1
@<TRIPOS>MOLECULE
CHEMBL383313
   59    62     0     0     0
SMALL
USER_CHARGES

@<TRIPOS>ATOM
      1 C1         -0.0184    1.5028    0.0103 C.3       1 <0>        -0.1057
      2 C2          0.0021   -0.0041    0.0020 C.ar      1 <0>        -0.0858
      3 C3          0.0058   -0.6883   -1.1982 C.ar      1 <0>        -0.1080
      4 C4          0.0251   -2.0749   -1.2058 C.ar      1 <0>         0.0736
      5 C5          0.0406   -2.7749   -0.0083 C.ar      1 <0>        -0.1674
      6 C6          0.0369   -2.0909    1.1915 C.ar      1 <0>        -0.1759
      7 C7          0.0229   -0.7038    1.1991 C.ar      1 <0>         0.1122
      8 O1          0.0250   -0.0303    2.3804 O.3       1 <0>        -0.2770
      9 C8          0.0470   -0.8150    3.5745 C.3       1 <0>        -0.0073
     10 C9          0.0459    0.0965    4.7746 C.2       1 <0>         0.5011
     11 O2          0.0280    1.3060    4.6215 O.co2     1 <0>        -0.6703
     12 O3          0.0630   -0.3755    5.8986 O.co2     1 <0>        -0.6876
     13 O4          0.0283   -2.7483   -2.3872 O.3       1 <0>        -0.3173
     14 C10         0.0485   -4.1756   -2.3202 C.3       1 <0>         0.1107
     15 C11         0.0491   -4.7440   -3.7159 C.ar      1 <0>         0.1916
     16 C12         0.0375   -3.9014   -4.8146 C.ar      1 <0>        -0.1885
     17 C13         0.0390   -4.4712   -6.0911 C.ar      1 <0>         0.2170
     18 N1          0.0516   -5.7966   -6.2054 N.ar      1 <0>        -0.5020
     19 C14         0.0625   -6.5665   -5.1275 C.ar      1 <0>         0.3661
     20 N2          0.0664   -6.0529   -3.9046 N.ar      1 <0>        -0.5034
     21 C15         0.0763   -8.0404   -5.2924 C.ar      1 <0>        -0.0117
     22 C16         0.0836   -8.6015   -6.5682 C.ar      1 <0>        -0.0726
     23 C17         0.0970   -9.9736   -6.7156 C.ar      1 <0>        -0.0792
     24 C18         0.1032  -10.7917   -5.6002 C.ar      1 <0>        -0.1656
     25 C19         0.0955  -10.2403   -4.3316 C.ar      1 <0>        -0.0778
     26 C20         0.0880   -8.8695   -4.1722 C.ar      1 <0>        -0.0711
     27 C21         0.1178  -12.2893   -5.7678 C.3       1 <0>         0.5076
     28 F1          1.4412  -12.7401   -5.8176 F         1 <0>        -0.1748
     29 F2         -0.5376  -12.8860   -4.6854 F         1 <0>        -0.1751
     30 F3         -0.5367  -12.6320   -6.9558 F         1 <0>        -0.1759
     31 C22         0.0263   -3.6114   -7.2995 C.ar      1 <0>        -0.0259
     32 C23         0.0185   -2.2236   -7.1705 C.ar      1 <0>        -0.0898
     33 C24         0.0072   -1.4285   -8.2984 C.ar      1 <0>        -0.0712
     34 C25         0.0031   -2.0063   -9.5552 C.ar      1 <0>        -0.1671
     35 C26         0.0108   -3.3831   -9.6892 C.ar      1 <0>        -0.0761
     36 C27         0.0279   -4.1881   -8.5684 C.ar      1 <0>        -0.0739
     37 C28        -0.0103   -1.1326  -10.7830 C.3       1 <0>         0.5076
     38 F4          1.3045   -0.8537  -11.1712 F         1 <0>        -0.1745
     39 F5         -0.6719   -1.7973  -11.8211 F         1 <0>        -0.1758
     40 F6         -0.6758    0.0641  -10.4966 F         1 <0>        -0.1746
     41 H1          1.0042    1.8801    0.0026 H         1 <0>         0.0697
     42 H2         -0.5455    1.8639   -0.8728 H         1 <0>         0.0615
     43 H3         -0.5286    1.8543    0.9071 H         1 <0>         0.0810
     44 H4         -0.0067   -0.1432   -2.1305 H         1 <0>         0.1330
     45 H5          0.0553   -3.8548   -0.0143 H         1 <0>         0.1257
     46 H6          0.0483   -2.6360    2.1238 H         1 <0>         0.1325
     47 H7         -0.8341   -1.4560    3.6044 H         1 <0>         0.0582
     48 H8          0.9456   -1.4317    3.5875 H         1 <0>         0.0583
     49 H9          0.9459   -4.5020   -1.7946 H         1 <0>         0.0946
     50 H10        -0.8339   -4.5268   -1.7853 H         1 <0>         0.0947
     51 H11         0.0270   -2.8288   -4.6883 H         1 <0>         0.1650
     52 H12         0.0784   -7.9637   -7.4397 H         1 <0>         0.1489
     53 H13         0.1023  -10.4095   -7.7038 H         1 <0>         0.1425
     54 H14         0.1001  -10.8838   -3.4642 H         1 <0>         0.1434
     55 H15         0.0869   -8.4400   -3.1812 H         1 <0>         0.1511
     56 H16         0.0210   -1.7714   -6.1897 H         1 <0>         0.1456
     57 H17         0.0012   -0.3530   -8.1996 H         1 <0>         0.1449
     58 H18         0.0072   -3.8288  -10.6729 H         1 <0>         0.1423
     59 H19         0.0381   -5.2628   -8.6742 H         1 <0>         0.1484
@<TRIPOS>BOND
     1    1    2 1
     2    1   41 1
     3    1   42 1
     4    1   43 1
     5    2    7 ar
     6    2    3 ar
     7    3    4 ar
     8    3   44 1
     9    4    5 ar
    10    4   13 1
    11    5    6 ar
    12    5   45 1
    13    6    7 ar
    14    6   46 1
    15    7    8 1
    16    8    9 1
    17    9   10 1
    18    9   47 1
    19    9   48 1
    20   10   11 2
    21   10   12 1
    22   13   14 1
    23   14   15 1
    24   14   49 1
    25   14   50 1
    26   15   20 ar
    27   15   16 ar
    28   16   17 ar
    29   16   51 1
    30   17   18 ar
    31   17   31 1
    32   18   19 ar
    33   19   20 ar
    34   19   21 1
    35   21   26 ar
    36   21   22 ar
    37   22   23 ar
    38   22   52 1
    39   23   24 ar
    40   23   53 1
    41   24   25 ar
    42   24   27 1
    43   25   26 ar
    44   25   54 1
    45   26   55 1
    46   27   28 1
    47   27   29 1
    48   27   30 1
    49   31   36 ar
    50   31   32 ar
    51   32   33 ar
    52   32   56 1
    53   33   34 ar
    54   33   57 1
    55   34   35 ar
    56   34   37 1
    57   35   36 ar
    58   35   58 1
    59   36   59 1
    60   37   38 1
    61   37   39 1
    62   37   40 1
@<TRIPOS>MOLECULE
CHEMBL393926
   63    65     0     0     0
SMALL
USER_CHARGES

@<TRIPOS>ATOM
      1 C1          0.2008    1.5012   -0.1339 C.3       1 <0>        -0.1486
      2 C2          0.0004   -0.0096    0.0007 C.3       1 <0>        -0.0798
      3 C3          0.7300   -0.5062    1.2223 C.ar      1 <0>        -0.1187
      4 C4          2.0474   -0.9173    1.1189 C.ar      1 <0>        -0.0751
      5 C5          2.7247   -1.3742    2.2333 C.ar      1 <0>        -0.2067
      6 C6          2.0863   -1.4224    3.4624 C.ar      1 <0>         0.1413
      7 C7          0.7557   -1.0074    3.5700 C.ar      1 <0>        -0.0765
      8 C8          0.0838   -0.5440    2.4411 C.ar      1 <0>        -0.0662
      9 C9          0.0641   -1.0554    4.8813 C.ar      1 <0>        -0.0378
     10 C10         0.1028   -2.2169    5.6503 C.ar      1 <0>        -0.0910
     11 C11        -0.5421   -2.2558    6.8699 C.ar      1 <0>        -0.1213
     12 C12        -1.2261   -1.1447    7.3292 C.ar      1 <0>        -0.1184
     13 C13        -1.2679    0.0109    6.5700 C.ar      1 <0>        -0.1199
     14 C14        -0.6221    0.0628    5.3514 C.ar      1 <0>        -0.1077
     15 O1          2.7510   -1.8718    4.5586 O.3       1 <0>        -0.2987
     16 C15         4.1404   -2.1654    4.3997 C.3       1 <0>         0.0843
     17 H1          4.5827   -1.4601    3.6961 H         1 <0>         0.0768
     18 C16         4.3028   -3.5895    3.8643 C.3       1 <0>        -0.1780
     19 C17         4.8449   -2.0457    5.7526 C.3       1 <0>        -0.1121
     20 C18         4.7901   -0.5929    6.2293 C.3       1 <0>         0.0617
     21 O2          5.4481   -0.4812    7.4929 O.3       1 <0>        -0.3186
     22 C19         5.4890    0.7531    8.0601 C.ar      1 <0>         0.1144
     23 C20         4.9028    1.8335    7.4165 C.ar      1 <0>        -0.2092
     24 C21         4.9454    3.0869    7.9953 C.ar      1 <0>        -0.0788
     25 C22         5.5716    3.2655    9.2153 C.ar      1 <0>        -0.0996
     26 C23         6.1568    2.1908    9.8584 C.ar      1 <0>        -0.0464
     27 C24         6.1120    0.9339    9.2863 C.ar      1 <0>        -0.1507
     28 C25         6.8388    2.3891   11.1875 C.3       1 <0>        -0.1209
     29 C26         5.6165    4.6341    9.8445 C.3       1 <0>        -0.0564
     30 C27         6.9345    5.3202    9.4796 C.3       1 <0>        -0.1754
     31 C28         6.9795    6.6888   10.1088 C.2       1 <0>         0.4892
     32 O3          6.0441    7.0793   10.7864 O.co2     1 <0>        -0.6985
     33 O4          7.9512    7.4056    9.9404 O.co2     1 <0>        -0.7069
     34 H2          1.2642    1.7194   -0.2321 H         1 <0>         0.0555
     35 H3         -0.3269    1.8604   -1.0174 H         1 <0>         0.0569
     36 H4         -0.1922    2.0002    0.7519 H         1 <0>         0.0561
     37 H5         -1.0630   -0.2278    0.0989 H         1 <0>         0.0702
     38 H6          0.3934   -0.5086   -0.8851 H         1 <0>         0.0699
     39 H7          2.5483   -0.8812    0.1627 H         1 <0>         0.1238
     40 H8          3.7525   -1.6944    2.1463 H         1 <0>         0.1314
     41 H9         -0.9431   -0.2185    2.5188 H         1 <0>         0.1287
     42 H10         0.6363   -3.0852    5.2925 H         1 <0>         0.1210
     43 H11        -0.5130   -3.1555    7.4666 H         1 <0>         0.1210
     44 H12        -1.7297   -1.1796    8.2840 H         1 <0>         0.1205
     45 H13        -1.8037    0.8754    6.9334 H         1 <0>         0.1227
     46 H14        -0.6520    0.9669    4.7614 H         1 <0>         0.1211
     47 H15         3.8606   -4.2948    4.5679 H         1 <0>         0.0701
     48 H16         3.8009   -3.6747    2.9005 H         1 <0>         0.0656
     49 H17         5.3627   -3.8134    3.7431 H         1 <0>         0.0747
     50 H18         4.3458   -2.6859    6.4800 H         1 <0>         0.0865
     51 H19         5.8849   -2.3552    5.6493 H         1 <0>         0.0940
     52 H20         5.2892    0.0473    5.5019 H         1 <0>         0.0572
     53 H21         3.7501   -0.2834    6.3326 H         1 <0>         0.0673
     54 H22         4.4139    1.6946    6.4635 H         1 <0>         0.1199
     55 H23         4.4895    3.9282    7.4945 H         1 <0>         0.1228
     56 H24         6.5654    0.0938    9.7912 H         1 <0>         0.1248
     57 H25         6.1173    2.2437   11.9914 H         1 <0>         0.0713
     58 H26         7.6489    1.6672   11.2915 H         1 <0>         0.0631
     59 H27         7.2436    3.3997   11.2409 H         1 <0>         0.0809
     60 H28         4.7821    5.2309    9.4762 H         1 <0>         0.0676
     61 H29         5.5445    4.5384   10.9279 H         1 <0>         0.0720
     62 H30         7.7689    4.7233    9.8479 H         1 <0>         0.0578
     63 H31         7.0065    5.4158    8.3962 H         1 <0>         0.0554
@<TRIPOS>BOND
     1    1    2 1
     2    1   34 1
     3    1   35 1
     4    1   36 1
     5    2    3 1
     6    2   37 1
     7    2   38 1
     8    3    8 ar
     9    3    4 ar
    10    4    5 ar
    11    4   39 1
    12    5    6 ar
    13    5   40 1
    14    6    7 ar
    15    6   15 1
    16    7    8 ar
    17    7    9 1
    18    8   41 1
    19    9   14 ar
    20    9   10 ar
    21   10   11 ar
    22   10   42 1
    23   11   12 ar
    24   11   43 1
    25   12   13 ar
    26   12   44 1
    27   13   14 ar
    28   13   45 1
    29   14   46 1
    30   15   16 1
    31   16   17 1
    32   16   18 1
    33   16   19 1
    34   18   47 1
    35   18   48 1
    36   18   49 1
    37   19   20 1
    38   19   50 1
    39   19   51 1
    40   20   21 1
    41   20   52 1
    42   20   53 1
    43   21   22 1
    44   22   27 ar
    45   22   23 ar
    46   23   24 ar
    47   23   54 1
    48   24   25 ar
    49   24   55 1
    50   25   26 ar
    51   25   29 1
    52   26   27 ar
    53   26   28 1
    54   27   56 1
    55   28   57 1
    56   28   58 1
    57   28   59 1
    58   29   30 1
    59   29   60 1
    60   29   61 1
    61   30   31 1
    62   30   62 1
    63   30   63 1
    64   31   32 2
    65   31   33 1
@<TRIPOS>MOLECULE
CHEMBL501982
   67    70     0     0     0
SMALL
USER_CHARGES

@<TRIPOS>ATOM
      1 C1         -0.7813    0.7599   -0.9543 C.3       1 <0>        -0.1499
      2 C2         -0.6210   -0.7456   -0.7337 C.3       1 <0>        -0.0166
      3 C3          0.1719   -0.9814    0.4839 C.1       1 <0>        -0.1269
      4 C4          0.8042   -1.1694    1.4551 C.1       1 <0>        -0.2045
      5 C5          1.5970   -1.4052    2.6727 C.3       1 <0>         0.1795
      6 O1          1.7468   -2.8113    2.8787 O.3       1 <0>        -0.2858
      7 C6          2.4589   -3.2031    3.9691 C.ar      1 <0>         0.1743
      8 C7          2.9962   -2.2557    4.8245 C.ar      1 <0>        -0.1936
      9 C8          3.7197   -2.6556    5.9332 C.ar      1 <0>        -0.0377
     10 C9          3.9092   -4.0007    6.1919 C.ar      1 <0>        -0.1387
     11 C10         3.3769   -4.9527    5.3434 C.ar      1 <0>        -0.0299
     12 C11         2.6448   -4.5592    4.2317 C.ar      1 <0>        -0.1562
     13 S1          1.9584   -5.7705    3.1518 S.3       1 <0>         0.0027
     14 C12         0.2454   -5.7876    3.5641 C.ar      1 <0>        -0.1473
     15 C13        -0.2128   -5.0320    4.6327 C.ar      1 <0>        -0.0762
     16 C14        -1.5549   -5.0460    4.9561 C.ar      1 <0>        -0.2064
     17 C15        -2.4336   -5.8164    4.2134 C.ar      1 <0>         0.1406
     18 C16        -1.9761   -6.5781    3.1397 C.ar      1 <0>        -0.0986
     19 C17        -0.6410   -6.5571    2.8092 C.ar      1 <0>        -0.0192
     20 C18        -0.0802   -7.3375    1.6493 C.3       1 <0>        -0.0778
     21 C19        -1.0559   -8.4288    1.2139 C.3       1 <0>        -0.1169
     22 C20        -2.4348   -7.7910    1.0081 C.3       1 <0>        -0.1177
     23 C21        -2.9864   -7.3984    2.3812 C.3       1 <0>        -0.0704
     24 O2         -3.7549   -5.8303    4.5348 O.3       1 <0>        -0.2760
     25 C22        -4.1608   -5.0287    5.6460 C.3       1 <0>        -0.0067
     26 C23        -5.6472   -5.1693    5.8506 C.2       1 <0>         0.5020
     27 O3         -6.2986   -5.8892    5.1131 O.co2     1 <0>        -0.6698
     28 O4         -6.1983   -4.5632    6.7536 O.co2     1 <0>        -0.6882
     29 C24         4.3037   -1.6224    6.8619 C.3       1 <0>         0.1094
     30 O5          3.3571   -1.3140    7.8870 O.3       1 <0>        -0.2879
     31 C25         3.7291   -0.3942    8.8125 C.ar      1 <0>         0.3553
     32 C26         2.8540   -0.0567    9.8373 C.ar      1 <0>        -0.1875
     33 C27         3.2457    0.8825   10.7750 C.ar      1 <0>         0.0101
     34 C28         4.5053    1.4537   10.6538 C.ar      1 <0>        -0.2836
     35 C29         5.3229    1.0707    9.6096 C.ar      1 <0>         0.1994
     36 N1          4.9233    0.1684    8.7335 N.ar      1 <0>        -0.5381
     37 C30         4.9747    2.4813   11.6512 C.3       1 <0>         0.5213
     38 F1          5.6271    1.8399   12.7096 F         1 <0>        -0.1750
     39 F2          5.8589    3.3675   11.0268 F         1 <0>        -0.1757
     40 F3          3.8737    3.1905   12.1433 F         1 <0>        -0.1753
     41 H1          0.2016    1.2174   -1.0665 H         1 <0>         0.0570
     42 H2         -1.3684    0.9345   -1.8559 H         1 <0>         0.0673
     43 H3         -1.2914    1.2004   -0.0976 H         1 <0>         0.0611
     44 H4         -1.6040   -1.2030   -0.6214 H         1 <0>         0.0940
     45 H5         -0.1109   -1.1860   -1.5904 H         1 <0>         0.0885
     46 H6          2.5800   -0.9477    2.5604 H         1 <0>         0.0862
     47 H7          1.0870   -0.9647    3.5293 H         1 <0>         0.0863
     48 H8          2.8505   -1.2043    4.6254 H         1 <0>         0.1352
     49 H9          4.4750   -4.3080    7.0590 H         1 <0>         0.1331
     50 H10         3.5271   -6.0026    5.5474 H         1 <0>         0.1443
     51 H11         0.4777   -4.4350    5.2101 H         1 <0>         0.1141
     52 H12        -1.9183   -4.4581    5.7860 H         1 <0>         0.1281
     53 H13         0.0984   -6.6608    0.8136 H         1 <0>         0.0794
     54 H14         0.8626   -7.7963    1.9472 H         1 <0>         0.0758
     55 H15        -0.7147   -8.8749    0.2797 H         1 <0>         0.0649
     56 H16        -1.1176   -9.1955    1.9862 H         1 <0>         0.0660
     57 H17        -2.3403   -6.9079    0.3761 H         1 <0>         0.0635
     58 H18        -3.1053   -8.5099    0.5373 H         1 <0>         0.0665
     59 H19        -3.2252   -8.2942    2.9543 H         1 <0>         0.0761
     60 H20        -3.8933   -6.8106    2.2397 H         1 <0>         0.0828
     61 H21        -3.6376   -5.3598    6.5431 H         1 <0>         0.0581
     62 H22        -3.9183   -3.9845    5.4486 H         1 <0>         0.0570
     63 H23         5.2147   -2.0141    7.3144 H         1 <0>         0.0852
     64 H24         4.5372   -0.7186    6.2991 H         1 <0>         0.0821
     65 H25         1.8809   -0.5208    9.9011 H         1 <0>         0.1579
     66 H26         2.5865    1.1650   11.5825 H         1 <0>         0.1564
     67 H27         6.3037    1.5120    9.5108 H         1 <0>         0.1724
@<TRIPOS>BOND
     1    1    2 1
     2    1   41 1
     3    1   42 1
     4    1   43 1
     5    2    3 1
     6    2   44 1
     7    2   45 1
     8    3    4 3
     9    4    5 1
    10    5    6 1
    11    5   46 1
    12    5   47 1
    13    6    7 1
    14    7   12 ar
    15    7    8 ar
    16    8    9 ar
    17    8   48 1
    18    9   10 ar
    19    9   29 1
    20   10   11 ar
    21   10   49 1
    22   11   12 ar
    23   11   50 1
    24   12   13 1
    25   13   14 1
    26   14   19 ar
    27   14   15 ar
    28   15   16 ar
    29   15   51 1
    30   16   17 ar
    31   16   52 1
    32   17   18 ar
    33   17   24 1
    34   18   23 1
    35   18   19 ar
    36   19   20 1
    37   20   21 1
    38   20   53 1
    39   20   54 1
    40   21   22 1
    41   21   55 1
    42   21   56 1
    43   22   23 1
    44   22   57 1
    45   22   58 1
    46   23   59 1
    47   23   60 1
    48   24   25 1
    49   25   26 1
    50   25   61 1
    51   25   62 1
    52   26   27 2
    53   26   28 1
    54   29   30 1
    55   29   63 1
    56   29   64 1
    57   30   31 1
    58   31   36 ar
    59   31   32 ar
    60   32   33 ar
    61   32   65 1
    62   33   34 ar
    63   33   66 1
    64   34   35 ar
    65   34   37 1
    66   35   36 ar
    67   35   67 1
    68   37   38 1
    69   37   39 1
    70   37   40 1
@<TRIPOS>MOLECULE
CHEMBL193426
   60    63     0     0     0
SMALL
USER_CHARGES

@<TRIPOS>ATOM
      1 C1          0.4538    0.8208   -0.7297 C.3       1 <0>        -0.2210
      2 C2         -0.1000   -0.3189    0.1277 C.3       1 <0>         0.1376
      3 C3          0.9282   -0.7006    1.1945 C.3       1 <0>        -0.1829
      4 N1         -1.3390    0.1161    0.7772 N.am      1 <0>        -0.6268
      5 C4         -2.4816   -0.7969    0.8612 C.3       1 <0>         0.1704
      6 C5         -2.3922   -1.5976    2.1347 C.ar      1 <0>        -0.1364
      7 C6         -1.9015   -2.8912    2.1080 C.ar      1 <0>        -0.0706
      8 C7         -1.8152   -3.6346    3.2719 C.ar      1 <0>        -0.1505
      9 C8         -2.2189   -3.0925    4.4773 C.ar      1 <0>        -0.0694
     10 C9         -2.7127   -1.7938    4.5135 C.ar      1 <0>        -0.1354
     11 C10        -2.7947   -1.0401    3.3335 C.ar      1 <0>         0.1504
     12 O1         -3.2770    0.2272    3.3982 O.3       1 <0>        -0.2886
     13 C11        -4.2923    0.4880    4.3682 C.3       1 <0>         0.1482
     14 C12        -3.8991   -0.0710    5.7100 C.2       1 <0>        -0.1823
     15 C13        -3.1568   -1.1705    5.7789 C.2       1 <0>        -0.0979
     16 C14        -5.6015   -0.1613    3.9152 C.3       1 <0>        -0.1705
     17 C15        -4.4960    1.9994    4.4914 C.3       1 <0>        -0.1349
     18 C16        -1.4277    1.3563    1.2973 C.2       1 <0>         0.5848
     19 O2         -2.4807    1.9619    1.2487 O.2       1 <0>        -0.5013
     20 C17        -0.2454    1.9797    1.9264 C.ar      1 <0>        -0.1439
     21 C18         1.0384    1.6350    1.4966 C.ar      1 <0>        -0.1445
     22 C19         2.1395    2.2169    2.0833 C.ar      1 <0>        -0.1347
     23 C20         1.9736    3.1504    3.1066 C.ar      1 <0>        -0.0173
     24 C21         0.6921    3.4950    3.5369 C.ar      1 <0>        -0.1287
     25 C22        -0.4105    2.9186    2.9477 C.ar      1 <0>        -0.0529
     26 C23         3.1604    3.7765    3.7377 C.ar      1 <0>        -0.0524
     27 C24         4.4422    3.4385    3.3066 C.ar      1 <0>        -0.1075
     28 C25         5.5430    4.0248    3.8974 C.ar      1 <0>        -0.1186
     29 C26         5.3762    4.9463    4.9155 C.ar      1 <0>        -0.1159
     30 C27         4.1066    5.2856    5.3475 C.ar      1 <0>        -0.1182
     31 C28         2.9983    4.7097    4.7605 C.ar      1 <0>        -0.1078
     32 H1          1.4451    0.5522   -1.0949 H         1 <0>         0.0820
     33 H2         -0.2105    0.9944   -1.5763 H         1 <0>         0.0677
     34 H3          0.5213    1.7278   -0.1289 H         1 <0>         0.1023
     35 H4         -0.3051   -1.1827   -0.5047 H         1 <0>         0.0964
     36 H5          0.6238   -0.2883    2.1565 H         1 <0>         0.0771
     37 H6          0.9900   -1.7863    1.2677 H         1 <0>         0.0594
     38 H7          1.9034   -0.2989    0.9194 H         1 <0>         0.0724
     39 H8         -3.4074   -0.2216    0.8580 H         1 <0>         0.0953
     40 H9         -2.4706   -1.4724    0.0058 H         1 <0>         0.0847
     41 H10        -1.5836   -3.3242    1.1711 H         1 <0>         0.1279
     42 H11        -1.4309   -4.6433    3.2381 H         1 <0>         0.1264
     43 H12        -2.1516   -3.6741    5.3848 H         1 <0>         0.1269
     44 H13        -4.2285    0.4168    6.6155 H         1 <0>         0.1305
     45 H14        -2.8752   -1.5894    6.7336 H         1 <0>         0.1306
     46 H15        -5.4583   -1.2373    3.8165 H         1 <0>         0.0585
     47 H16        -6.3792    0.0356    4.6531 H         1 <0>         0.0729
     48 H17        -5.8998    0.2552    2.9531 H         1 <0>         0.0703
     49 H18        -4.7999    2.4049    3.5264 H         1 <0>         0.0736
     50 H19        -5.2705    2.2025    5.2311 H         1 <0>         0.0771
     51 H20        -3.5628    2.4674    4.8046 H         1 <0>         0.0643
     52 H21         1.1671    0.9121    0.7046 H         1 <0>         0.2090
     53 H22         3.1321    1.9504    1.7514 H         1 <0>         0.1284
     54 H23         0.5649    4.2175    4.3294 H         1 <0>         0.1287
     55 H24        -1.4027    3.1888    3.2779 H         1 <0>         0.1310
     56 H25         4.5736    2.7189    2.5120 H         1 <0>         0.1260
     57 H26         6.5366    3.7634    3.5644 H         1 <0>         0.1253
     58 H27         6.2405    5.4023    5.3752 H         1 <0>         0.1237
     59 H28         3.9824    6.0054    6.1430 H         1 <0>         0.1252
     60 H29         2.0074    4.9784    5.0958 H         1 <0>         0.1258
@<TRIPOS>BOND
     1    1    2 1
     2    1   32 1
     3    1   33 1
     4    1   34 1
     5    2    3 1
     6    2    4 1
     7    2   35 1
     8    3   36 1
     9    3   37 1
    10    3   38 1
    11    4    5 1
    12    4   18 am
    13    5    6 1
    14    5   39 1
    15    5   40 1
    16    6   11 ar
    17    6    7 ar
    18    7    8 ar
    19    7   41 1
    20    8    9 ar
    21    8   42 1
    22    9   10 ar
    23    9   43 1
    24   10   15 1
    25   10   11 ar
    26   11   12 1
    27   12   13 1
    28   13   14 1
    29   13   16 1
    30   13   17 1
    31   14   15 2
    32   14   44 1
    33   15   45 1
    34   16   46 1
    35   16   47 1
    36   16   48 1
    37   17   49 1
    38   17   50 1
    39   17   51 1
    40   18   19 2
    41   18   20 1
    42   20   25 ar
    43   20   21 ar
    44   21   22 ar
    45   21   52 1
    46   22   23 ar
    47   22   53 1
    48   23   24 ar
    49   23   26 1
    50   24   25 ar
    51   24   54 1
    52   25   55 1
    53   26   31 ar
    54   26   27 ar
    55   27   28 ar
    56   27   56 1
    57   28   29 ar
    58   28   57 1
    59   29   30 ar
    60   29   58 1
    61   30   31 ar
    62   30   59 1
    63   31   60 1
@<TRIPOS>MOLECULE
CHEMBL270801
   63    65     0     0     0
SMALL
USER_CHARGES

@<TRIPOS>ATOM
      1 C1         -0.0187    1.5258    0.0104 C.3       1 <0>        -0.1448
      2 C2          0.0021   -0.0041    0.0020 C.3       1 <0>        -0.1000
      3 C3          0.7182   -0.4975   -1.2568 C.3       1 <0>        -0.1552
      4 C4          0.6303   -2.0233   -1.3286 C.3       1 <0>        -0.0576
      5 C5          1.2271   -2.5002   -2.6276 C.ar      1 <0>        -0.0957
      6 C6          0.4280   -2.6268   -3.7491 C.ar      1 <0>        -0.0726
      7 C7          0.9725   -3.0641   -4.9407 C.ar      1 <0>        -0.2129
      8 C8          2.3226   -3.3762   -5.0120 C.ar      1 <0>         0.1274
      9 C9          3.1221   -3.2481   -3.8858 C.ar      1 <0>        -0.1418
     10 C10         2.5737   -2.8052   -2.6975 C.ar      1 <0>        -0.0358
     11 C11         4.5888   -3.5862   -3.9598 C.3       1 <0>         0.1753
     12 N1          4.7535   -5.0416   -3.9912 N.am      1 <0>        -0.7109
     13 C12         5.9877   -5.5789   -4.0575 C.2       1 <0>         0.5537
     14 O1          6.9643   -4.8559   -4.0913 O.2       1 <0>        -0.5392
     15 C13         6.1538   -7.0476   -4.0893 C.ar      1 <0>        -0.1308
     16 C14         5.0343   -7.8805   -4.0565 C.ar      1 <0>        -0.0823
     17 C15         5.1963   -9.2502   -4.0868 C.ar      1 <0>        -0.1252
     18 C16         6.4650   -9.7987   -4.1492 C.ar      1 <0>        -0.0556
     19 C17         7.5789   -8.9787   -4.1815 C.ar      1 <0>        -0.1236
     20 C18         7.4306   -7.6073   -4.1580 C.ar      1 <0>        -0.0579
     21 C19         6.6343  -11.2958   -4.1815 C.3       1 <0>        -0.0490
     22 C20         7.4599  -11.7419   -2.9731 C.3       1 <0>        -0.1119
     23 C21         7.6318  -13.2618   -3.0060 C.3       1 <0>        -0.1197
     24 C22         8.3529  -13.6658   -4.2935 C.3       1 <0>        -0.1211
     25 C23         7.5274  -13.2197   -5.5019 C.3       1 <0>        -0.1196
     26 C24         7.3554  -11.6997   -5.4690 C.3       1 <0>        -0.1114
     27 O2          2.8606   -3.8072   -6.1832 O.3       1 <0>        -0.3139
     28 C25         1.9777   -3.9157   -7.3016 C.3       1 <0>         0.0293
     29 C26         2.1652   -0.0794   -1.2080 C.2       1 <0>         0.5055
     30 O3          2.8790   -0.4588   -0.2952 O.co2     1 <0>        -0.7007
     31 O4          2.6222    0.6383   -2.0813 O.co2     1 <0>        -0.6993
     32 H1          1.0039    1.9031    0.0027 H         1 <0>         0.0588
     33 H2         -0.5459    1.8868   -0.8726 H         1 <0>         0.0456
     34 H3         -0.5289    1.8773    0.9072 H         1 <0>         0.0418
     35 H4          0.5293   -0.3651    0.8851 H         1 <0>         0.0634
     36 H5         -1.0205   -0.3814    0.0098 H         1 <0>         0.0431
     37 H6          0.2444   -0.0644   -2.1377 H         1 <0>         0.0574
     38 H7          1.1806   -2.4586   -0.4944 H         1 <0>         0.0740
     39 H8         -0.4142   -2.3300   -1.2744 H         1 <0>         0.0556
     40 H9         -0.6228   -2.3837   -3.6930 H         1 <0>         0.1207
     41 H10         0.3478   -3.1635   -5.8161 H         1 <0>         0.1235
     42 H11         3.1966   -2.7013   -1.8214 H         1 <0>         0.1371
     43 H12         5.0166   -3.1526   -4.8637 H         1 <0>         0.0787
     44 H13         5.0995   -3.1816   -3.0859 H         1 <0>         0.0806
     45 H14         3.9741   -5.6185   -3.9643 H         1 <0>         0.3977
     46 H15         4.0435   -7.4537   -4.0071 H         1 <0>         0.1255
     47 H16         4.3308   -9.8958   -4.0615 H         1 <0>         0.1258
     48 H17         8.5665   -9.4131   -4.2298 H         1 <0>         0.1263
     49 H18         8.3008   -6.9682   -4.1881 H         1 <0>         0.1357
     50 H19         5.6549  -11.7730   -4.1486 H         1 <0>         0.0787
     51 H20         8.4393  -11.2647   -3.0060 H         1 <0>         0.0656
     52 H21         6.9461  -11.4541   -2.0559 H         1 <0>         0.0645
     53 H22         8.2199  -13.5797   -2.1450 H         1 <0>         0.0623
     54 H23         6.6524  -13.7391   -2.9730 H         1 <0>         0.0616
     55 H24         9.3324  -13.1886   -4.3264 H         1 <0>         0.0617
     56 H25         8.4754  -14.7487   -4.3169 H         1 <0>         0.0599
     57 H26         8.0411  -13.5075   -6.4191 H         1 <0>         0.0619
     58 H27         6.5479  -13.6969   -5.4690 H         1 <0>         0.0615
     59 H28         6.7673  -11.3819   -6.3300 H         1 <0>         0.0637
     60 H29         8.3349  -11.2225   -5.5020 H         1 <0>         0.0654
     61 H30         2.5334   -4.2693   -8.1702 H         1 <0>         0.0944
     62 H31         1.1807   -4.6216   -7.0682 H         1 <0>         0.0514
     63 H32         1.5458   -2.9390   -7.5196 H         1 <0>         0.0535
@<TRIPOS>BOND
     1    1    2 1
     2    1   32 1
     3    1   33 1
     4    1   34 1
     5    2    3 1
     6    2   35 1
     7    2   36 1
     8    3    4 1
     9    3   29 1
    10    3   37 1
    11    4    5 1
    12    4   38 1
    13    4   39 1
    14    5   10 ar
    15    5    6 ar
    16    6    7 ar
    17    6   40 1
    18    7    8 ar
    19    7   41 1
    20    8    9 ar
    21    8   27 1
    22    9   10 ar
    23    9   11 1
    24   10   42 1
    25   11   12 1
    26   11   43 1
    27   11   44 1
    28   12   13 am
    29   12   45 1
    30   13   14 2
    31   13   15 1
    32   15   20 ar
    33   15   16 ar
    34   16   17 ar
    35   16   46 1
    36   17   18 ar
    37   17   47 1
    38   18   19 ar
    39   18   21 1
    40   19   20 ar
    41   19   48 1
    42   20   49 1
    43   21   26 1
    44   21   22 1
    45   21   50 1
    46   22   23 1
    47   22   51 1
    48   22   52 1
    49   23   24 1
    50   23   53 1
    51   23   54 1
    52   24   25 1
    53   24   55 1
    54   24   56 1
    55   25   26 1
    56   25   57 1
    57   25   58 1
    58   26   59 1
    59   26   60 1
    60   27   28 1
    61   28   61 1
    62   28   62 1
    63   28   63 1
    64   29   30 2
    65   29   31 1
@<TRIPOS>MOLECULE
CHEMBL270801__1
   63    65     0     0     0
SMALL
USER_CHARGES

@<TRIPOS>ATOM
      1 C1         -0.0187    1.5258    0.0104 C.3       1 <0>        -0.1508
      2 C2          0.0021   -0.0041    0.0020 C.3       1 <0>        -0.0911
      3 C3          0.7182   -0.4975   -1.2568 C.3       1 <0>        -0.1567
      4 C4          0.8493   -2.0210   -1.2049 C.3       1 <0>        -0.0531
      5 C5          1.6611   -2.4957   -2.3824 C.ar      1 <0>        -0.0939
      6 C6          1.0312   -2.8160   -3.5711 C.ar      1 <0>         0.0098
      7 C7          1.7730   -3.2518   -4.6516 C.ar      1 <0>        -0.2139
      8 C8          3.1515   -3.3676   -4.5439 C.ar      1 <0>         0.1303
      9 C9          3.7811   -3.0452   -3.3506 C.ar      1 <0>        -0.1631
     10 C10         3.0350   -2.6048   -2.2743 C.ar      1 <0>        -0.0658
     11 C11         5.2780   -3.1699   -3.2301 C.3       1 <0>         0.1809
     12 N1          5.6427   -4.5842   -3.1162 N.am      1 <0>        -0.7106
     13 C12         6.9375   -4.9388   -2.9968 C.2       1 <0>         0.5543
     14 O1          7.8027   -4.0852   -2.9838 O.2       1 <0>        -0.5435
     15 C13         7.3055   -6.3661   -2.8818 C.ar      1 <0>        -0.1329
     16 C14         6.3149   -7.3492   -2.9023 C.ar      1 <0>        -0.0817
     17 C15         6.6650   -8.6793   -2.7950 C.ar      1 <0>        -0.1249
     18 C16         7.9947   -9.0396   -2.6669 C.ar      1 <0>        -0.0545
     19 C17         8.9816   -8.0700   -2.6455 C.ar      1 <0>        -0.1241
     20 C18         8.6454   -6.7367   -2.7581 C.ar      1 <0>        -0.0583
     21 C19         8.3698  -10.4944   -2.5497 C.3       1 <0>        -0.0496
     22 C20         9.0933  -10.7292   -1.2222 C.3       1 <0>        -0.1115
     23 C21         9.4741  -12.2063   -1.1032 C.3       1 <0>        -0.1198
     24 C22        10.3969  -12.5900   -2.2617 C.3       1 <0>        -0.1211
     25 C23         9.6733  -12.3552   -3.5892 C.3       1 <0>        -0.1198
     26 C24         9.2925  -10.8781   -3.7082 C.3       1 <0>        -0.1114
     27 O2          3.8835   -3.7965   -5.6055 O.3       1 <0>        -0.3180
     28 C25         3.1684   -4.1111   -6.8020 C.3       1 <0>         0.0295
     29 C26        -0.0771   -0.1029   -2.4745 C.2       1 <0>         0.4961
     30 O3         -1.1200    0.5157   -2.3473 O.co2     1 <0>        -0.6951
     31 O4          0.3224   -0.4021   -3.5868 O.co2     1 <0>        -0.6879
     32 H1          1.0039    1.9031    0.0027 H         1 <0>         0.0340
     33 H2         -0.5459    1.8868   -0.8726 H         1 <0>         0.0843
     34 H3         -0.5289    1.8773    0.9072 H         1 <0>         0.0342
     35 H4          0.5293   -0.3651    0.8851 H         1 <0>         0.0346
     36 H5         -1.0205   -0.3814    0.0098 H         1 <0>         0.0574
     37 H6          1.7103   -0.0491   -1.3098 H         1 <0>         0.0604
     38 H7          1.3468   -2.3116   -0.2797 H         1 <0>         0.0558
     39 H8         -0.1422   -2.4724   -1.2416 H         1 <0>         0.0609
     40 H9         -0.0418   -2.7257   -3.6545 H         1 <0>         0.1227
     41 H10         1.2805   -3.5025   -5.5795 H         1 <0>         0.1205
     42 H11         3.5251   -2.3499   -1.3463 H         1 <0>         0.1208
     43 H12         5.7506   -2.7430   -4.1148 H         1 <0>         0.0754
     44 H13         5.6170   -2.6347   -2.3431 H         1 <0>         0.0722
     45 H14         4.9522   -5.2655   -3.1266 H         1 <0>         0.3991
     46 H15         5.2765   -7.0692   -3.0015 H         1 <0>         0.1262
     47 H16         5.8995   -9.4409   -2.8107 H         1 <0>         0.1264
     48 H17        10.0176   -8.3578   -2.5448 H         1 <0>         0.1262
     49 H18         9.4170   -5.9812   -2.7461 H         1 <0>         0.1349
     50 H19         7.4683  -11.1061   -2.5853 H         1 <0>         0.0791
     51 H20         9.9949  -10.1176   -1.1866 H         1 <0>         0.0653
     52 H21         8.4360  -10.4558   -0.3968 H         1 <0>         0.0642
     53 H22         9.9896  -12.3735   -0.1574 H         1 <0>         0.0623
     54 H23         8.5726  -12.8179   -1.1388 H         1 <0>         0.0618
     55 H24        11.2984  -11.9784   -2.2261 H         1 <0>         0.0615
     56 H25        10.6682  -13.6423   -2.1770 H         1 <0>         0.0601
     57 H26        10.3307  -12.6286   -4.4146 H         1 <0>         0.0622
     58 H27         8.7718  -12.9669   -3.6248 H         1 <0>         0.0618
     59 H28         8.7771  -10.7109   -4.6540 H         1 <0>         0.0640
     60 H29        10.1940  -10.2665   -3.6727 H         1 <0>         0.0652
     61 H30         3.8699   -4.4398   -7.5688 H         1 <0>         0.0924
     62 H31         2.4527   -4.9076   -6.5988 H         1 <0>         0.0514
     63 H32         2.6372   -3.2256   -7.1512 H         1 <0>         0.0552
@<TRIPOS>BOND
     1    1    2 1
     2    1   32 1
     3    1   33 1
     4    1   34 1
     5    2    3 1
     6    2   35 1
     7    2   36 1
     8    3    4 1
     9    3   29 1
    10    3   37 1
    11    4    5 1
    12    4   38 1
    13    4   39 1
    14    5   10 ar
    15    5    6 ar
    16    6    7 ar
    17    6   40 1
    18    7    8 ar
    19    7   41 1
    20    8    9 ar
    21    8   27 1
    22    9   10 ar
    23    9   11 1
    24   10   42 1
    25   11   12 1
    26   11   43 1
    27   11   44 1
    28   12   13 am
    29   12   45 1
    30   13   14 2
    31   13   15 1
    32   15   20 ar
    33   15   16 ar
    34   16   17 ar
    35   16   46 1
    36   17   18 ar
    37   17   47 1
    38   18   19 ar
    39   18   21 1
    40   19   20 ar
    41   19   48 1
    42   20   49 1
    43   21   26 1
    44   21   22 1
    45   21   50 1
    46   22   23 1
    47   22   51 1
    48   22   52 1
    49   23   24 1
    50   23   53 1
    51   23   54 1
    52   24   25 1
    53   24   55 1
    54   24   56 1
    55   25   26 1
    56   25   57 1
    57   25   58 1
    58   26   59 1
    59   26   60 1
    60   27   28 1
    61   28   61 1
    62   28   62 1
    63   28   63 1
    64   29   30 2
    65   29   31 1
@<TRIPOS>MOLECULE
CHEMBL1081207
   56    60     0     0     0
SMALL
USER_CHARGES

@<TRIPOS>ATOM
      1 C1          0.7432    0.0247   -1.0618 C.3       1 <0>         0.0256
      2 O1          0.0731   -0.1461    0.1887 O.3       1 <0>        -0.3157
      3 C2         -1.1435   -0.7509    0.1593 C.ar      1 <0>         0.1385
      4 C3         -1.6766   -1.1757   -1.0502 C.ar      1 <0>        -0.2076
      5 C4         -2.9108   -1.7898   -1.0839 C.ar      1 <0>        -0.0509
      6 C5         -3.6236   -1.9843    0.0992 C.ar      1 <0>        -0.0628
      7 C6         -3.0848   -1.5566    1.3126 C.ar      1 <0>        -0.0425
      8 C7         -1.8478   -0.9476    1.3394 C.ar      1 <0>        -0.1531
      9 C8         -4.9500   -2.6431    0.0670 C.2       1 <0>         0.1379
     10 C9         -5.1991   -3.7658   -0.7192 C.2       1 <0>        -0.1822
     11 S1         -6.9156   -4.0638   -0.3278 S.3       1 <0>         0.1818
     12 C10        -7.1384   -2.7898    0.7481 C.2       1 <0>         0.0498
     13 N1         -5.9697   -2.2048    0.7874 N.2       1 <0>        -0.4839
     14 C11        -8.3913   -2.4140    1.4965 C.3       1 <0>         0.1510
     15 O2         -9.1580   -1.4979    0.7123 O.3       1 <0>        -0.3085
     16 C12       -10.3277   -1.0563    1.2468 C.ar      1 <0>         0.0815
     17 C13       -10.7283   -1.4897    2.5021 C.ar      1 <0>        -0.1719
     18 C14       -11.9158   -1.0459    3.0452 C.ar      1 <0>        -0.1128
     19 C15       -12.7235   -0.1584    2.3385 C.ar      1 <0>         0.0909
     20 C16       -12.3105    0.2755    1.0858 C.ar      1 <0>        -0.1370
     21 C17       -11.1243   -0.1651    0.5417 C.ar      1 <0>        -0.0938
     22 C18       -13.3662    1.2389    0.5785 C.3       1 <0>        -0.0848
     23 C19       -14.1597    1.5530    1.8688 C.3       1 <0>         0.0128
     24 O3        -13.9242    0.3885    2.6784 O.3       1 <0>        -0.2739
     25 C20       -15.6285    1.7063    1.5684 C.2       1 <0>         0.5053
     26 O4        -16.4308    0.9115    2.0277 O.co2     1 <0>        -0.6694
     27 O5        -16.0144    2.6251    0.8660 O.co2     1 <0>        -0.6827
     28 C21        -4.2956   -4.5035   -1.6243 C.ar      1 <0>         0.0361
     29 C22        -3.0202   -4.8748   -1.1929 C.ar      1 <0>        -0.0891
     30 C23        -2.1813   -5.5638   -2.0438 C.ar      1 <0>        -0.0656
     31 C24        -2.6006   -5.8868   -3.3224 C.ar      1 <0>        -0.1783
     32 C25        -3.8627   -5.5217   -3.7565 C.ar      1 <0>        -0.0649
     33 C26        -4.7145   -4.8382   -2.9139 C.ar      1 <0>        -0.1038
     34 C27        -1.6782   -6.6393   -4.2464 C.3       1 <0>         0.5083
     35 F1         -1.8767   -8.0147   -4.0850 F         1 <0>        -0.1753
     36 F2         -1.9510   -6.2811   -5.5710 F         1 <0>        -0.1760
     37 F3         -0.3506   -6.3208   -3.9411 F         1 <0>        -0.1765
     38 H1          1.7006    0.5189   -0.8965 H         1 <0>         0.1010
     39 H2          0.9117   -0.9499   -1.5198 H         1 <0>         0.0569
     40 H3          0.1284    0.6355   -1.7230 H         1 <0>         0.0570
     41 H4         -1.1241   -1.0247   -1.9659 H         1 <0>         0.1319
     42 H5         -3.3252   -2.1193   -2.0252 H         1 <0>         0.1251
     43 H6         -3.6341   -1.7054    2.2305 H         1 <0>         0.1346
     44 H7         -1.4283   -0.6196    2.2789 H         1 <0>         0.1351
     45 H8         -8.9818   -3.3097    1.6895 H         1 <0>         0.0913
     46 H9         -8.1223   -1.9452    2.4431 H         1 <0>         0.0979
     47 H10       -10.1073   -2.1775    3.0569 H         1 <0>         0.1307
     48 H11       -12.2209   -1.3885    4.0229 H         1 <0>         0.1302
     49 H12       -10.8166    0.1792   -0.4346 H         1 <0>         0.1298
     50 H13       -12.9078    2.1412    0.1738 H         1 <0>         0.0888
     51 H14       -14.0045    0.7611   -0.1647 H         1 <0>         0.0911
     52 H15       -13.7685    2.4468    2.3548 H         1 <0>         0.0796
     53 H16        -2.6915   -4.6227   -0.1955 H         1 <0>         0.1391
     54 H17        -1.1948   -5.8516   -1.7116 H         1 <0>         0.1410
     55 H18        -4.1834   -5.7767   -4.7558 H         1 <0>         0.1421
     56 H19        -5.7012   -4.5584   -3.2522 H         1 <0>         0.1400
@<TRIPOS>BOND
     1    1    2 1
     2    1   38 1
     3    1   39 1
     4    1   40 1
     5    2    3 1
     6    3    8 ar
     7    3    4 ar
     8    4    5 ar
     9    4   41 1
    10    5    6 ar
    11    5   42 1
    12    6    7 ar
    13    6    9 1
    14    7    8 ar
    15    7   43 1
    16    8   44 1
    17    9   13 1
    18    9   10 2
    19   10   11 1
    20   10   28 1
    21   11   12 1
    22   12   13 2
    23   12   14 1
    24   14   15 1
    25   14   45 1
    26   14   46 1
    27   15   16 1
    28   16   21 ar
    29   16   17 ar
    30   17   18 ar
    31   17   47 1
    32   18   19 ar
    33   18   48 1
    34   19   24 1
    35   19   20 ar
    36   20   21 ar
    37   20   22 1
    38   21   49 1
    39   22   23 1
    40   22   50 1
    41   22   51 1
    42   23   24 1
    43   23   25 1
    44   23   52 1
    45   25   26 2
    46   25   27 1
    47   28   33 ar
    48   28   29 ar
    49   29   30 ar
    50   29   53 1
    51   30   31 ar
    52   30   54 1
    53   31   32 ar
    54   31   34 1
    55   32   33 ar
    56   32   55 1
    57   33   56 1
    58   34   35 1
    59   34   36 1
    60   34   37 1
@<TRIPOS>MOLECULE
CHEMBL1081207__1
   56    60     0     0     0
SMALL
USER_CHARGES

@<TRIPOS>ATOM
      1 C1          0.7432    0.0247   -1.0618 C.3       1 <0>         0.0256
      2 O1          0.0731   -0.1461    0.1887 O.3       1 <0>        -0.3157
      3 C2         -1.1435   -0.7509    0.1593 C.ar      1 <0>         0.1387
      4 C3         -1.6766   -1.1757   -1.0502 C.ar      1 <0>        -0.2077
      5 C4         -2.9108   -1.7898   -1.0839 C.ar      1 <0>        -0.0509
      6 C5         -3.6236   -1.9843    0.0992 C.ar      1 <0>        -0.0632
      7 C6         -3.0848   -1.5566    1.3126 C.ar      1 <0>        -0.0423
      8 C7         -1.8478   -0.9476    1.3394 C.ar      1 <0>        -0.1530
      9 C8         -4.9500   -2.6431    0.0670 C.2       1 <0>         0.1385
     10 C9         -5.1991   -3.7658   -0.7192 C.2       1 <0>        -0.1822
     11 S1         -6.9156   -4.0638   -0.3278 S.3       1 <0>         0.1801
     12 C10        -7.1384   -2.7898    0.7481 C.2       1 <0>         0.0504
     13 N1         -5.9697   -2.2048    0.7874 N.2       1 <0>        -0.4836
     14 C11        -8.3913   -2.4140    1.4965 C.3       1 <0>         0.1510
     15 O2         -9.1580   -1.4979    0.7123 O.3       1 <0>        -0.3085
     16 C12       -10.3277   -1.0563    1.2468 C.ar      1 <0>         0.0814
     17 C13       -10.7283   -1.4897    2.5021 C.ar      1 <0>        -0.1718
     18 C14       -11.9117   -1.0394    3.0487 C.ar      1 <0>        -0.1129
     19 C15       -12.7164   -0.1471    2.3447 C.ar      1 <0>         0.0909
     20 C16       -12.3111    0.2746    1.0853 C.ar      1 <0>        -0.1370
     21 C17       -11.1243   -0.1651    0.5417 C.ar      1 <0>        -0.0937
     22 C18       -13.3853    1.2085    0.5619 C.3       1 <0>        -0.0848
     23 C19       -14.5644    0.9076    1.5171 C.3       1 <0>         0.0130
     24 O3        -13.9017    0.4244    2.6980 O.3       1 <0>        -0.2738
     25 C20       -15.3420    2.1631    1.8173 C.2       1 <0>         0.5050
     26 O4        -15.9462    2.7339    0.9253 O.co2     1 <0>        -0.6827
     27 O5        -15.3670    2.6081    2.9522 O.co2     1 <0>        -0.6692
     28 C21        -4.2956   -4.5035   -1.6243 C.ar      1 <0>         0.0363
     29 C22        -3.0202   -4.8748   -1.1929 C.ar      1 <0>        -0.0891
     30 C23        -2.1813   -5.5638   -2.0438 C.ar      1 <0>        -0.0655
     31 C24        -2.6006   -5.8868   -3.3224 C.ar      1 <0>        -0.1784
     32 C25        -3.8627   -5.5217   -3.7565 C.ar      1 <0>        -0.0650
     33 C26        -4.7145   -4.8382   -2.9139 C.ar      1 <0>        -0.1039
     34 C27        -1.6782   -6.6393   -4.2464 C.3       1 <0>         0.5083
     35 F1         -1.8767   -8.0147   -4.0850 F         1 <0>        -0.1754
     36 F2         -1.9510   -6.2811   -5.5710 F         1 <0>        -0.1760
     37 F3         -0.3506   -6.3208   -3.9411 F         1 <0>        -0.1764
     38 H1          1.7006    0.5189   -0.8965 H         1 <0>         0.1010
     39 H2          0.9117   -0.9499   -1.5198 H         1 <0>         0.0568
     40 H3          0.1284    0.6355   -1.7230 H         1 <0>         0.0570
     41 H4         -1.1241   -1.0247   -1.9659 H         1 <0>         0.1319
     42 H5         -3.3252   -2.1193   -2.0252 H         1 <0>         0.1250
     43 H6         -3.6341   -1.7054    2.2305 H         1 <0>         0.1347
     44 H7         -1.4283   -0.6196    2.2789 H         1 <0>         0.1352
     45 H8         -8.9818   -3.3097    1.6895 H         1 <0>         0.0910
     46 H9         -8.1223   -1.9452    2.4431 H         1 <0>         0.0982
     47 H10       -10.1105   -2.1826    3.0541 H         1 <0>         0.1307
     48 H11       -12.2159   -1.3807    4.0272 H         1 <0>         0.1302
     49 H12       -10.8162    0.1799   -0.4342 H         1 <0>         0.1299
     50 H13       -13.0716    2.2489    0.6460 H         1 <0>         0.0910
     51 H14       -13.6460    0.9638   -0.4678 H         1 <0>         0.0889
     52 H15       -15.2149    0.1401    1.0979 H         1 <0>         0.0797
     53 H16        -2.6915   -4.6227   -0.1955 H         1 <0>         0.1392
     54 H17        -1.1948   -5.8516   -1.7116 H         1 <0>         0.1410
     55 H18        -4.1834   -5.7767   -4.7558 H         1 <0>         0.1421
     56 H19        -5.7012   -4.5584   -3.2522 H         1 <0>         0.1399
@<TRIPOS>BOND
     1    1    2 1
     2    1   38 1
     3    1   39 1
     4    1   40 1
     5    2    3 1
     6    3    8 ar
     7    3    4 ar
     8    4    5 ar
     9    4   41 1
    10    5    6 ar
    11    5   42 1
    12    6    7 ar
    13    6    9 1
    14    7    8 ar
    15    7   43 1
    16    8   44 1
    17    9   13 1
    18    9   10 2
    19   10   11 1
    20   10   28 1
    21   11   12 1
    22   12   13 2
    23   12   14 1
    24   14   15 1
    25   14   45 1
    26   14   46 1
    27   15   16 1
    28   16   21 ar
    29   16   17 ar
    30   17   18 ar
    31   17   47 1
    32   18   19 ar
    33   18   48 1
    34   19   24 1
    35   19   20 ar
    36   20   21 ar
    37   20   22 1
    38   21   49 1
    39   22   23 1
    40   22   50 1
    41   22   51 1
    42   23   24 1
    43   23   25 1
    44   23   52 1
    45   25   26 2
    46   25   27 1
    47   28   33 ar
    48   28   29 ar
    49   29   30 ar
    50   29   53 1
    51   30   31 ar
    52   30   54 1
    53   31   32 ar
    54   31   34 1
    55   32   33 ar
    56   32   55 1
    57   33   56 1
    58   34   35 1
    59   34   36 1
    60   34   37 1
@<TRIPOS>MOLECULE
CHEMBL598371
   37    38     0     0     0
SMALL
USER_CHARGES

@<TRIPOS>ATOM
      1 C1         -0.0167    1.3811    0.0096 C.ar      1 <0>        -0.1096
      2 C2          1.1650    2.0908    0.0022 C.ar      1 <0>        -0.0514
      3 C3          2.3849    1.4112   -0.0132 C.ar      1 <0>        -0.1623
      4 C4          2.3986    0.0123   -0.0208 C.ar      1 <0>         0.1724
      5 C5          1.2058   -0.6862   -0.0132 C.ar      1 <0>        -0.1361
      6 C6          0.0021   -0.0041    0.0020 C.ar      1 <0>        -0.0389
      7 Br1        -1.6252   -0.9673    0.0130 Br        1 <0>        -0.0200
      8 F1          3.5738   -0.6538   -0.0361 F         1 <0>        -0.1040
      9 C7          3.6541    2.1654   -0.0217 C.2       1 <0>         0.5591
     10 O1          4.7145    1.5708   -0.0350 O.2       1 <0>        -0.5085
     11 N1          3.6373    3.5131   -0.0147 N.am      1 <0>        -0.7197
     12 C8          4.8967    4.2614   -0.0232 C.3       1 <0>         0.1309
     13 C9          4.5983    5.7620   -0.0127 C.3       1 <0>        -0.6300
     14 S1          6.1577    6.6887   -0.0233 S.o2      1 <0>         2.5128
     15 O2          6.8486    6.4980    1.2038 O.2       1 <0>        -0.8940
     16 O3          6.8246    6.5105   -1.2654 O.2       1 <0>        -0.9102
     17 C10         5.6772    8.3838   -0.0100 C.ar      1 <0>        -0.4055
     18 C11         5.4738    9.0456   -1.2064 C.ar      1 <0>        -0.0871
     19 C12         5.0959   10.3792   -1.1849 C.ar      1 <0>        -0.0342
     20 C13         4.9361   11.0002    0.0446 C.ar      1 <0>        -0.1873
     21 C14         5.1572   10.2743    1.1994 C.ar      1 <0>         0.1375
     22 N2          5.5107    9.0050    1.1411 N.ar      1 <0>        -0.3860
     23 C15         4.5269   12.4486    0.1205 C.3       1 <0>         0.5137
     24 F2          3.1313   12.5374    0.1605 F         1 <0>        -0.1677
     25 F3          5.0642   13.0250    1.2764 F         1 <0>        -0.1671
     26 F4          5.0053   13.1279   -1.0051 F         1 <0>        -0.1690
     27 H1         -0.9601    1.9066    0.0260 H         1 <0>         0.1495
     28 H2          1.1475    3.1707    0.0078 H         1 <0>         0.1456
     29 H3          1.2134   -1.7661   -0.0191 H         1 <0>         0.1563
     30 H4          2.7913    3.9875   -0.0041 H         1 <0>         0.4045
     31 H5          5.4801    4.0008    0.8598 H         1 <0>         0.0937
     32 H6          5.4628    4.0098   -0.9201 H         1 <0>         0.0930
     33 H7          4.0148    6.0226   -0.8958 H         1 <0>         0.1475
     34 H8          4.0322    6.0136    0.8841 H         1 <0>         0.1513
     35 H9          5.6078    8.5303   -2.1460 H         1 <0>         0.1720
     36 H10         4.9303   10.9217   -2.1040 H         1 <0>         0.1645
     37 H11         5.0349   10.7506    2.1610 H         1 <0>         0.1843
@<TRIPOS>BOND
     1    1    6 ar
     2    1    2 ar
     3    1   27 1
     4    2    3 ar
     5    2   28 1
     6    3    4 ar
     7    3    9 1
     8    4    5 ar
     9    4    8 1
    10    5    6 ar
    11    5   29 1
    12    6    7 1
    13    9   10 2
    14    9   11 am
    15   11   12 1
    16   11   30 1
    17   12   13 1
    18   12   31 1
    19   12   32 1
    20   13   14 1
    21   13   33 1
    22   13   34 1
    23   14   15 2
    24   14   16 2
    25   14   17 1
    26   17   22 ar
    27   17   18 ar
    28   18   19 ar
    29   18   35 1
    30   19   20 ar
    31   19   36 1
    32   20   21 ar
    33   20   23 1
    34   21   22 ar
    35   21   37 1
    36   23   24 1
    37   23   25 1
    38   23   26 1
@<TRIPOS>MOLECULE
CHEMBL522224
   51    54     0     0     0
SMALL
USER_CHARGES

@<TRIPOS>ATOM
      1 C1          3.5843    1.0981   -6.5215 C.3       1 <0>        -0.1037
      2 C2          3.0233   -0.0284   -5.6924 C.ar      1 <0>        -0.1275
      3 C3          2.3101   -1.0467   -6.3057 C.ar      1 <0>        -0.1047
      4 C4          1.7910   -2.0847   -5.5591 C.ar      1 <0>        -0.1442
      5 C5          1.9803   -2.1154   -4.1835 C.ar      1 <0>         0.1693
      6 C6          2.7024   -1.0854   -3.5585 C.ar      1 <0>        -0.1637
      7 C7          3.2268   -0.0435   -4.3305 C.ar      1 <0>        -0.0638
      8 C8          2.9101   -1.1050   -2.1020 C.2       1 <0>         0.5279
      9 O1          3.4309   -0.1479   -1.5455 O.co2     1 <0>        -0.6756
     10 O2          2.5621   -2.0783   -1.4475 O.co2     1 <0>        -0.6920
     11 N1          1.4574   -3.1599   -3.4289 N.am      1 <0>        -0.6311
     12 C9          1.2590   -4.3668   -3.9952 C.2       1 <0>         0.5488
     13 O3          1.6486   -4.5786   -5.1269 O.2       1 <0>        -0.5287
     14 C10         0.5678   -5.4328   -3.2400 C.ar      1 <0>        -0.1416
     15 C11         0.1139   -5.1911   -1.9420 C.ar      1 <0>        -0.0145
     16 C12        -0.5309   -6.1901   -1.2429 C.ar      1 <0>        -0.1394
     17 C13        -0.7279   -7.4299   -1.8252 C.ar      1 <0>         0.0045
     18 C14        -0.2807   -7.6761   -3.1110 C.ar      1 <0>        -0.6920
     19 C15         0.3607   -6.6838   -3.8234 C.ar      1 <0>         0.0372
     20 S1         -0.5366   -9.2583   -3.8429 S.o2      1 <0>         2.6767
     21 O4         -0.0007   -9.1894   -5.1572 O.2       1 <0>        -0.9203
     22 O5         -0.1015  -10.2208   -2.8923 O.2       1 <0>        -0.9304
     23 N2         -2.1716   -9.4624   -4.0086 N.pl3     1 <0>        -0.8254
     24 C16        -2.9346  -10.3269   -3.2717 C.2       1 <0>         0.0422
     25 C17        -4.2181  -10.2466   -3.6564 C.2       1 <0>        -0.1557
     26 C18        -4.2827   -9.2490   -4.7273 C.ar      1 <0>        -0.0870
     27 C19        -2.9668   -8.7832   -4.9043 C.ar      1 <0>         0.0967
     28 C20        -2.7119   -7.8101   -5.8648 C.ar      1 <0>        -0.0753
     29 C21        -3.7469   -7.3127   -6.6264 C.ar      1 <0>        -0.0971
     30 C22        -5.0437   -7.7728   -6.4454 C.ar      1 <0>        -0.1252
     31 C23        -5.3152   -8.7347   -5.5133 C.ar      1 <0>        -0.0838
     32 C24        -1.3087   -7.3010   -6.0715 C.3       1 <0>        -0.1437
     33 H1          4.5881    0.8373   -6.8571 H         1 <0>         0.0622
     34 H2          2.9439    1.2658   -7.3874 H         1 <0>         0.0588
     35 H3          3.6269    2.0059   -5.9197 H         1 <0>         0.0621
     36 H4          2.1593   -1.0274   -7.3749 H         1 <0>         0.1165
     37 H5          1.2366   -2.8740   -6.0449 H         1 <0>         0.1362
     38 H6          3.7870    0.7501   -3.8586 H         1 <0>         0.1290
     39 H7          1.2354   -3.0200   -2.4951 H         1 <0>         0.4257
     40 H8          0.2676   -4.2241   -1.4861 H         1 <0>         0.1494
     41 H9         -0.8825   -6.0044   -0.2388 H         1 <0>         0.1458
     42 H10        -1.2327   -8.2090   -1.2733 H         1 <0>         0.1386
     43 H11         0.7054   -6.8758   -4.8288 H         1 <0>         0.1669
     44 H12        -2.5595  -10.9778   -2.4958 H         1 <0>         0.1909
     45 H13        -5.0461  -10.8106   -3.2532 H         1 <0>         0.1579
     46 H14        -3.5470   -6.5568   -7.3715 H         1 <0>         0.1329
     47 H15        -5.8436   -7.3722   -7.0505 H         1 <0>         0.1277
     48 H16        -6.3270   -9.0871   -5.3771 H         1 <0>         0.1267
     49 H17        -0.8186   -7.8909   -6.8460 H         1 <0>         0.0975
     50 H18        -1.3428   -6.2556   -6.3780 H         1 <0>         0.0771
     51 H19        -0.7496   -7.3884   -5.1398 H         1 <0>         0.0614
@<TRIPOS>BOND
     1    1    2 1
     2    1   33 1
     3    1   34 1
     4    1   35 1
     5    2    7 ar
     6    2    3 ar
     7    3    4 ar
     8    3   36 1
     9    4    5 ar
    10    4   37 1
    11    5    6 ar
    12    5   11 1
    13    6    7 ar
    14    6    8 1
    15    7   38 1
    16    8    9 2
    17    8   10 1
    18   11   12 am
    19   11   39 1
    20   12   13 2
    21   12   14 1
    22   14   19 ar
    23   14   15 ar
    24   15   16 ar
    25   15   40 1
    26   16   17 ar
    27   16   41 1
    28   17   18 ar
    29   17   42 1
    30   18   19 ar
    31   18   20 1
    32   19   43 1
    33   20   21 2
    34   20   22 2
    35   20   23 1
    36   23   27 1
    37   23   24 1
    38   24   25 2
    39   24   44 1
    40   25   26 1
    41   25   45 1
    42   26   31 ar
    43   26   27 ar
    44   27   28 ar
    45   28   29 ar
    46   28   32 1
    47   29   30 ar
    48   29   46 1
    49   30   31 ar
    50   30   47 1
    51   31   48 1
    52   32   49 1
    53   32   50 1
    54   32   51 1
@<TRIPOS>MOLECULE
CHEMBL309778
   49    51     0     0     0
SMALL
USER_CHARGES

@<TRIPOS>ATOM
      1 C1         -0.0187    1.5258    0.0104 C.3       1 <0>        -0.1439
      2 C2          0.0021   -0.0041    0.0020 C.3       1 <0>         0.0903
      3 C3          0.7421   -0.5109    1.2415 C.3       1 <0>        -0.1663
      4 O1         -1.3386   -0.4987    0.0122 O.3       1 <0>        -0.3607
      5 C4         -1.4988   -1.7570   -0.6458 C.3       1 <0>         0.0326
      6 C5         -2.9073   -1.8480   -1.2364 C.3       1 <0>        -0.0630
      7 C6         -3.0669   -0.8098   -2.3171 C.ar      1 <0>        -0.0901
      8 C7         -3.5267    0.4543   -1.9972 C.ar      1 <0>        -0.0610
      9 C8         -3.6743    1.4076   -2.9861 C.ar      1 <0>        -0.1443
     10 C9         -3.3603    1.0958   -4.3009 C.ar      1 <0>         0.1089
     11 C10        -2.8987   -0.1732   -4.6192 C.ar      1 <0>        -0.2059
     12 C11        -2.7479   -1.1213   -3.6259 C.ar      1 <0>        -0.0811
     13 O2         -3.5050    2.0317   -5.2756 O.3       1 <0>        -0.3109
     14 C12        -3.1627    1.6405   -6.6067 C.3       1 <0>         0.1472
     15 C13        -3.3856    2.7994   -7.5439 C.2       1 <0>         0.2613
     16 N1         -4.5243    3.0669   -8.1869 N.2       1 <0>        -0.5113
     17 C14        -4.3820    4.1468   -8.9219 C.2       1 <0>         0.3323
     18 O3         -3.1261    4.5978   -8.7590 O.3       1 <0>        -0.0880
     19 N2         -2.4994    3.7036   -7.8516 N.2       1 <0>        -0.3036
     20 C15        -5.4207    4.7585   -9.7777 C.ar      1 <0>         0.0157
     21 C16        -6.6922    4.1881   -9.8518 C.ar      1 <0>        -0.1005
     22 C17        -7.6596    4.7644  -10.6531 C.ar      1 <0>         0.1325
     23 C18        -7.3689    5.9061  -11.3819 C.ar      1 <0>        -0.1585
     24 C19        -6.1084    6.4764  -11.3121 C.ar      1 <0>         0.1324
     25 C20        -5.1350    5.9116  -10.5099 C.ar      1 <0>        -0.1183
     26 F1         -5.8316    7.5896  -12.0259 F         1 <0>        -0.1207
     27 F2         -8.8908    4.2130  -10.7261 F         1 <0>        -0.1191
     28 C21        -1.2975   -2.8725    0.3473 C.2       1 <0>         0.4772
     29 O4         -1.1313   -2.6153    1.5275 O.co2     1 <0>        -0.6719
     30 O5         -1.3010   -4.0320   -0.0293 O.co2     1 <0>        -0.7020
     31 H1          1.0039    1.9031    0.0027 H         1 <0>         0.0585
     32 H2         -0.5459    1.8868   -0.8726 H         1 <0>         0.0530
     33 H3         -0.5289    1.8773    0.9072 H         1 <0>         0.0593
     34 H4          0.5123   -0.3556   -0.8948 H         1 <0>         0.0422
     35 H5          1.7647   -0.1336    1.2338 H         1 <0>         0.0380
     36 H6          0.2319   -0.1594    2.1383 H         1 <0>         0.0578
     37 H7          0.7568   -1.6008    1.2356 H         1 <0>         0.0777
     38 H8         -0.7632   -1.8453   -1.4453 H         1 <0>         0.0477
     39 H9         -3.0600   -2.8404   -1.6606 H         1 <0>         0.0870
     40 H10        -3.6426   -1.6713   -0.4514 H         1 <0>         0.0748
     41 H11        -3.7710    0.6965   -0.9735 H         1 <0>         0.1333
     42 H12        -4.0342    2.3946   -2.7358 H         1 <0>         0.1264
     43 H13        -2.6536   -0.4183   -5.6421 H         1 <0>         0.1235
     44 H14        -2.3844   -2.1080   -3.8724 H         1 <0>         0.1266
     45 H15        -2.1146    1.3430   -6.6397 H         1 <0>         0.0976
     46 H16        -3.7884    0.8015   -6.9110 H         1 <0>         0.1039
     47 H17        -6.9197    3.2979   -9.2843 H         1 <0>         0.1651
     48 H18        -8.1278    6.3529  -12.0071 H         1 <0>         0.1596
     49 H19        -4.1540    6.3596  -10.4528 H         1 <0>         0.1588
@<TRIPOS>BOND
     1    1    2 1
     2    1   31 1
     3    1   32 1
     4    1   33 1
     5    2    3 1
     6    2    4 1
     7    2   34 1
     8    3   35 1
     9    3   36 1
    10    3   37 1
    11    4    5 1
    12    5    6 1
    13    5   28 1
    14    5   38 1
    15    6    7 1
    16    6   39 1
    17    6   40 1
    18    7   12 ar
    19    7    8 ar
    20    8    9 ar
    21    8   41 1
    22    9   10 ar
    23    9   42 1
    24   10   11 ar
    25   10   13 1
    26   11   12 ar
    27   11   43 1
    28   12   44 1
    29   13   14 1
    30   14   15 1
    31   14   45 1
    32   14   46 1
    33   15   19 2
    34   15   16 1
    35   16   17 2
    36   17   18 1
    37   17   20 1
    38   18   19 1
    39   20   25 ar
    40   20   21 ar
    41   21   22 ar
    42   21   47 1
    43   22   23 ar
    44   22   27 1
    45   23   24 ar
    46   23   48 1
    47   24   25 ar
    48   24   26 1
    49   25   49 1
    50   28   29 2
    51   28   30 1
@<TRIPOS>MOLECULE
CHEMBL309778__1
   49    51     0     0     0
SMALL
USER_CHARGES

@<TRIPOS>ATOM
      1 C1         -0.0187    1.5258    0.0104 C.3       1 <0>        -0.1420
      2 C2          0.0021   -0.0041    0.0020 C.3       1 <0>         0.0897
      3 C3          0.7421   -0.5109    1.2415 C.3       1 <0>        -0.1686
      4 O1         -1.3386   -0.4987    0.0122 O.3       1 <0>        -0.3593
      5 C4         -1.4988   -1.7570   -0.6458 C.3       1 <0>         0.0334
      6 C5         -2.6458   -2.5313    0.0067 C.3       1 <0>        -0.0627
      7 C6         -2.2788   -2.8690    1.4288 C.ar      1 <0>        -0.0890
      8 C7         -1.6203   -4.0519    1.7094 C.ar      1 <0>        -0.0814
      9 C8         -1.2832   -4.3639    3.0123 C.ar      1 <0>        -0.1444
     10 C9         -1.6056   -3.4890    4.0395 C.ar      1 <0>         0.1091
     11 C10        -2.2660   -2.3025    3.7553 C.ar      1 <0>        -0.2055
     12 C11        -2.5963   -1.9927    2.4501 C.ar      1 <0>        -0.0598
     13 O2         -1.2755   -3.7939    5.3220 O.3       1 <0>        -0.3112
     14 C12        -1.6387   -2.8464    6.3282 C.3       1 <0>         0.1473
     15 C13        -1.1951   -3.3510    7.6771 C.2       1 <0>         0.2614
     16 N1         -1.9216   -4.1162    8.4946 N.2       1 <0>        -0.5113
     17 C14        -1.2410   -4.3780    9.5877 C.2       1 <0>         0.3321
     18 O3         -0.0444   -3.7736    9.4870 O.3       1 <0>        -0.0881
     19 N2         -0.0388   -3.1149    8.2293 N.2       1 <0>        -0.3035
     20 C15        -1.7090   -5.1940   10.7281 C.ar      1 <0>         0.0158
     21 C16        -2.9788   -5.7720   10.7012 C.ar      1 <0>        -0.1005
     22 C17        -3.4111   -6.5343   11.7698 C.ar      1 <0>         0.1325
     23 C18        -2.5863   -6.7251   12.8664 C.ar      1 <0>        -0.1585
     24 C19        -1.3248   -6.1535   12.8985 C.ar      1 <0>         0.1324
     25 C20        -0.8803   -5.3938   11.8330 C.ar      1 <0>        -0.1183
     26 F1         -0.5257   -6.3432   13.9712 F         1 <0>        -0.1207
     27 F2         -4.6404   -7.0942   11.7453 F         1 <0>        -0.1192
     28 C21        -1.8128   -1.5263   -2.1016 C.2       1 <0>         0.4767
     29 O4         -1.8975   -2.4735   -2.8645 O.co2     1 <0>        -0.7006
     30 O5         -1.9820   -0.3924   -2.5164 O.co2     1 <0>        -0.6788
     31 H1          1.0039    1.9031    0.0027 H         1 <0>         0.0555
     32 H2         -0.5459    1.8868   -0.8726 H         1 <0>         0.0676
     33 H3         -0.5289    1.8773    0.9072 H         1 <0>         0.0532
     34 H4          0.5123   -0.3556   -0.8948 H         1 <0>         0.0523
     35 H5          1.7647   -0.1336    1.2338 H         1 <0>         0.0542
     36 H6          0.2319   -0.1594    2.1383 H         1 <0>         0.0557
     37 H7          0.7568   -1.6008    1.2356 H         1 <0>         0.0507
     38 H8         -0.5769   -2.3321   -0.5597 H         1 <0>         0.0488
     39 H9         -3.5477   -1.9193   -0.0003 H         1 <0>         0.0742
     40 H10        -2.8264   -3.4509   -0.5500 H         1 <0>         0.0874
     41 H11        -1.3695   -4.7327    0.9094 H         1 <0>         0.1305
     42 H12        -0.7694   -5.2884    3.2310 H         1 <0>         0.1261
     43 H13        -2.5181   -1.6197    4.5532 H         1 <0>         0.1231
     44 H14        -3.1064   -1.0671    2.2278 H         1 <0>         0.1287
     45 H15        -1.1549   -1.8920    6.1202 H         1 <0>         0.0979
     46 H16        -2.7206   -2.7129    6.3280 H         1 <0>         0.1039
     47 H17        -3.6228   -5.6237    9.8469 H         1 <0>         0.1651
     48 H18        -2.9282   -7.3212   13.6996 H         1 <0>         0.1596
     49 H19         0.1051   -4.9524   11.8571 H         1 <0>         0.1587
@<TRIPOS>BOND
     1    1    2 1
     2    1   31 1
     3    1   32 1
     4    1   33 1
     5    2    3 1
     6    2    4 1
     7    2   34 1
     8    3   35 1
     9    3   36 1
    10    3   37 1
    11    4    5 1
    12    5    6 1
    13    5   28 1
    14    5   38 1
    15    6    7 1
    16    6   39 1
    17    6   40 1
    18    7   12 ar
    19    7    8 ar
    20    8    9 ar
    21    8   41 1
    22    9   10 ar
    23    9   42 1
    24   10   11 ar
    25   10   13 1
    26   11   12 ar
    27   11   43 1
    28   12   44 1
    29   13   14 1
    30   14   15 1
    31   14   45 1
    32   14   46 1
    33   15   19 2
    34   15   16 1
    35   16   17 2
    36   17   18 1
    37   17   20 1
    38   18   19 1
    39   20   25 ar
    40   20   21 ar
    41   21   22 ar
    42   21   47 1
    43   22   23 ar
    44   22   27 1
    45   23   24 ar
    46   23   48 1
    47   24   25 ar
    48   24   26 1
    49   25   49 1
    50   28   29 2
    51   28   30 1
@<TRIPOS>MOLECULE
CHEMBL525262
   72    75     0     0     0
SMALL
USER_CHARGES

@<TRIPOS>ATOM
      1 C1         -3.1349    0.1840   -6.6245 C.3       1 <0>        -0.1053
      2 C2         -2.9220   -0.9581   -5.6646 C.ar      1 <0>        -0.1119
      3 C3         -1.7073   -1.1042   -5.0242 C.ar      1 <0>        -0.0289
      4 C4         -1.5115   -2.1567   -4.1391 C.ar      1 <0>        -0.1409
      5 C5         -2.5383   -3.0616   -3.8993 C.ar      1 <0>        -0.0766
      6 C6         -3.7519   -2.9136   -4.5406 C.ar      1 <0>        -0.2039
      7 C7         -3.9481   -1.8589   -5.4204 C.ar      1 <0>         0.1424
      8 O1         -5.1456   -1.7111   -6.0477 O.3       1 <0>        -0.2764
      9 C8         -6.1576   -2.6750   -5.7495 C.3       1 <0>        -0.0063
     10 C9         -7.4048   -2.3522   -6.5313 C.2       1 <0>         0.5017
     11 O2         -7.4253   -1.3863   -7.2750 O.co2     1 <0>        -0.6700
     12 O3         -8.3935   -3.0570   -6.4201 O.co2     1 <0>        -0.6882
     13 S1          0.0381   -2.3447   -3.3217 S.3       1 <0>         0.0080
     14 C10        -0.1196   -3.8705   -2.4548 C.ar      1 <0>        -0.1584
     15 C11        -0.2976   -3.8738   -1.0782 C.ar      1 <0>        -0.0311
     16 C12        -0.4210   -5.0719   -0.4008 C.ar      1 <0>        -0.1427
     17 C13        -0.3670   -6.2690   -1.0908 C.ar      1 <0>        -0.0376
     18 C14        -0.1894   -6.2739   -2.4623 C.ar      1 <0>        -0.1961
     19 C15        -0.0716   -5.0775   -3.1500 C.ar      1 <0>         0.1760
     20 O4          0.0970   -5.0807   -4.4995 O.3       1 <0>        -0.2713
     21 C16         0.1366   -6.3548   -5.1454 C.3       1 <0>         0.0630
     22 C17         0.3310   -6.1579   -6.6502 C.3       1 <0>         0.0556
     23 N1          1.6407   -5.5404   -6.8980 N.3       1 <0>        -0.5255
     24 C18         1.6859   -4.9171   -8.2287 C.3       1 <0>         0.0192
     25 C19         3.0434   -4.2360   -8.4214 C.3       1 <0>         0.0641
     26 O5          4.0846   -5.1994   -8.2392 O.3       1 <0>        -0.3869
     27 C20         4.0708   -5.8258   -6.9536 C.3       1 <0>         0.0650
     28 C21         2.7237   -6.5230   -6.7460 C.3       1 <0>         0.0150
     29 C22        -0.5017   -7.5722   -0.3461 C.3       1 <0>         0.0978
     30 O6         -1.8799   -7.9448   -0.2833 O.3       1 <0>        -0.2982
     31 C23        -2.1768   -9.1046    0.3597 C.ar      1 <0>         0.1656
     32 C24        -1.1631   -9.8656    0.9237 C.ar      1 <0>        -0.2137
     33 C25        -1.4676  -11.0440    1.5772 C.ar      1 <0>        -0.0281
     34 C26        -2.7812  -11.4654    1.6690 C.ar      1 <0>        -0.2263
     35 C27        -3.7932  -10.7091    1.1073 C.ar      1 <0>        -0.0286
     36 C28        -3.4946   -9.5268    0.4581 C.ar      1 <0>        -0.1510
     37 C29        -3.1105  -12.7516    2.3821 C.3       1 <0>         0.5124
     38 F1         -3.3456  -12.4874    3.7356 F         1 <0>        -0.1777
     39 F2         -4.2544  -13.3210    1.8125 F         1 <0>        -0.1772
     40 F3         -2.0370  -13.6404    2.2601 F         1 <0>        -0.1791
     41 C30        -0.5944   -0.1223   -5.2857 C.3       1 <0>        -0.1162
     42 H1         -3.5187    1.0479   -6.0818 H         1 <0>         0.0666
     43 H2         -2.1874    0.4432   -7.0967 H         1 <0>         0.0632
     44 H3         -3.8527   -0.1130   -7.3891 H         1 <0>         0.0770
     45 H4         -2.3871   -3.8805   -3.2116 H         1 <0>         0.1130
     46 H5         -4.5500   -3.6170   -4.3546 H         1 <0>         0.1268
     47 H6         -5.8043   -3.6692   -6.0231 H         1 <0>         0.0568
     48 H7         -6.3806   -2.6494   -4.6828 H         1 <0>         0.0579
     49 H8         -0.3394   -2.9403   -0.5367 H         1 <0>         0.1424
     50 H9         -0.5594   -5.0733    0.6703 H         1 <0>         0.1312
     51 H10        -0.1471   -7.2108   -2.9979 H         1 <0>         0.1316
     52 H11         0.9651   -6.9393   -4.7454 H         1 <0>         0.0621
     53 H12        -0.8002   -6.8824   -4.9660 H         1 <0>         0.0678
     54 H13         0.2842   -7.1243   -7.1521 H         1 <0>         0.0609
     55 H14        -0.4553   -5.5094   -7.0363 H         1 <0>         0.0918
     56 H15         1.5504   -5.6817   -8.9936 H         1 <0>         0.0419
     57 H16         0.8916   -4.1751   -8.3102 H         1 <0>         0.0913
     58 H17         3.1031   -3.8215   -9.4278 H         1 <0>         0.0986
     59 H18         3.1561   -3.4356   -7.6902 H         1 <0>         0.0634
     60 H19         4.8735   -6.5611   -6.8984 H         1 <0>         0.0956
     61 H20         4.2134   -5.0716   -6.1797 H         1 <0>         0.0612
     62 H21         2.6869   -6.9532   -5.7452 H         1 <0>         0.0822
     63 H22         2.6048   -7.3133   -7.4872 H         1 <0>         0.0421
     64 H23         0.0610   -8.3476   -0.8659 H         1 <0>         0.0762
     65 H24        -0.1106   -7.4552    0.6646 H         1 <0>         0.0799
     66 H25        -0.1368   -9.5371    0.8517 H         1 <0>         0.1400
     67 H26        -0.6788  -11.6367    2.0165 H         1 <0>         0.1384
     68 H27        -4.8185  -11.0406    1.1801 H         1 <0>         0.1439
     69 H28        -4.2859   -8.9342    0.0234 H         1 <0>         0.1459
     70 H29        -0.6629    0.7021   -4.5759 H         1 <0>         0.0732
     71 H30         0.3668   -0.6230   -5.1693 H         1 <0>         0.0704
     72 H31        -0.6821    0.2643   -6.3011 H         1 <0>         0.0751
@<TRIPOS>BOND
     1    1    2 1
     2    1   42 1
     3    1   43 1
     4    1   44 1
     5    2    7 ar
     6    2    3 ar
     7    3    4 ar
     8    3   41 1
     9    4    5 ar
    10    4   13 1
    11    5    6 ar
    12    5   45 1
    13    6    7 ar
    14    6   46 1
    15    7    8 1
    16    8    9 1
    17    9   10 1
    18    9   47 1
    19    9   48 1
    20   10   11 2
    21   10   12 1
    22   13   14 1
    23   14   19 ar
    24   14   15 ar
    25   15   16 ar
    26   15   49 1
    27   16   17 ar
    28   16   50 1
    29   17   18 ar
    30   17   29 1
    31   18   19 ar
    32   18   51 1
    33   19   20 1
    34   20   21 1
    35   21   22 1
    36   21   52 1
    37   21   53 1
    38   22   23 1
    39   22   54 1
    40   22   55 1
    41   23   28 1
    42   23   24 1
    43   24   25 1
    44   24   56 1
    45   24   57 1
    46   25   26 1
    47   25   58 1
    48   25   59 1
    49   26   27 1
    50   27   28 1
    51   27   60 1
    52   27   61 1
    53   28   62 1
    54   28   63 1
    55   29   30 1
    56   29   64 1
    57   29   65 1
    58   30   31 1
    59   31   36 ar
    60   31   32 ar
    61   32   33 ar
    62   32   66 1
    63   33   34 ar
    64   33   67 1
    65   34   35 ar
    66   34   37 1
    67   35   36 ar
    68   35   68 1
    69   36   69 1
    70   37   38 1
    71   37   39 1
    72   37   40 1
    73   41   70 1
    74   41   71 1
    75   41   72 1
@<TRIPOS>MOLECULE
CHEMBL525262__1
   73    76     0     0     0
SMALL
USER_CHARGES

@<TRIPOS>ATOM
      1 C1         -3.1184    0.5112   -5.4996 C.3       1 <0>        -0.1097
      2 C2         -2.8302   -0.8173   -4.8491 C.ar      1 <0>        -0.1099
      3 C3         -1.5825   -1.0668   -4.3123 C.ar      1 <0>        -0.0271
      4 C4         -1.3173   -2.2913   -3.7123 C.ar      1 <0>        -0.1569
      5 C5         -2.3080   -3.2638   -3.6531 C.ar      1 <0>        -0.0770
      6 C6         -3.5546   -3.0122   -4.1904 C.ar      1 <0>        -0.2069
      7 C7         -3.8200   -1.7868   -4.7847 C.ar      1 <0>         0.1512
      8 O1         -5.0499   -1.5381   -5.3090 O.3       1 <0>        -0.2721
      9 C8         -6.0214   -2.5812   -5.2077 C.3       1 <0>        -0.0073
     10 C9         -7.3128   -2.1279   -5.8382 C.2       1 <0>         0.4999
     11 O2         -7.3939   -1.0147   -6.3289 O.co2     1 <0>        -0.6670
     12 O3         -8.2767   -2.8743   -5.8577 O.co2     1 <0>        -0.6831
     13 S1          0.2743   -2.6112   -3.0275 S.3       1 <0>         0.0007
     14 C10         0.1042   -4.1957   -2.2758 C.ar      1 <0>        -0.1484
     15 C11        -0.0225   -4.3023   -0.8977 C.ar      1 <0>        -0.0269
     16 C12        -0.1557   -5.5462   -0.3107 C.ar      1 <0>        -0.1237
     17 C13        -0.1626   -6.6865   -1.0929 C.ar      1 <0>        -0.0320
     18 C14        -0.0364   -6.5884   -2.4666 C.ar      1 <0>        -0.1881
     19 C15         0.0908   -5.3453   -3.0638 C.ar      1 <0>         0.1577
     20 O4          0.2089   -5.2470   -4.4150 O.3       1 <0>        -0.3074
     21 C16         0.1870   -6.4670   -5.1587 C.3       1 <0>         0.0218
     22 C17         0.3310   -6.1579   -6.6502 C.3       1 <0>        -0.0003
     23 N1          1.6407   -5.5404   -6.8980 N.4       1 <0>        -0.3868
     24 C18         1.7231   -5.1130   -8.3015 C.3       1 <0>        -0.0441
     25 C19         3.0884   -4.4698   -8.5571 C.3       1 <0>         0.0361
     26 O5          4.1193   -5.4065   -8.2318 O.3       1 <0>        -0.3574
     27 C20         4.0666   -5.8713   -6.8801 C.3       1 <0>         0.0377
     28 C21         2.7031   -6.5171   -6.6214 C.3       1 <0>        -0.0493
     29 C22        -0.3077   -8.0401   -0.4466 C.3       1 <0>         0.0941
     30 O6         -1.6930   -8.3799   -0.3586 O.3       1 <0>        -0.3004
     31 C23        -1.9997   -9.5784    0.2039 C.ar      1 <0>         0.1595
     32 C24        -0.9885  -10.4078    0.6670 C.ar      1 <0>        -0.2127
     33 C25        -1.3030  -11.6254    1.2388 C.ar      1 <0>        -0.0279
     34 C26        -2.6241  -12.0179    1.3494 C.ar      1 <0>        -0.2197
     35 C27        -3.6337  -11.1934    0.8882 C.ar      1 <0>        -0.0273
     36 C28        -3.3248   -9.9721    0.3212 C.ar      1 <0>        -0.1487
     37 C29        -2.9642  -13.3470    1.9731 C.3       1 <0>         0.5112
     38 F1         -3.1410  -13.1837    3.3513 F         1 <0>        -0.1756
     39 F2         -4.1448  -13.8395    1.4066 F         1 <0>        -0.1759
     40 F3         -1.9226  -14.2515    1.7405 F         1 <0>        -0.1781
     41 C30        -0.5089   -0.0113   -4.3778 C.3       1 <0>        -0.1168
     42 H1         -3.4972    1.2075   -4.7514 H         1 <0>         0.0713
     43 H2         -2.2017    0.9090   -5.9349 H         1 <0>         0.0644
     44 H3         -3.8646    0.3780   -6.2828 H         1 <0>         0.0799
     45 H4         -2.1028   -4.2163   -3.1872 H         1 <0>         0.1122
     46 H5         -4.3247   -3.7680   -4.1447 H         1 <0>         0.1294
     47 H6         -5.6566   -3.4689   -5.7246 H         1 <0>         0.0567
     48 H7         -6.1930   -2.8172   -4.1575 H         1 <0>         0.0601
     49 H8         -0.0166   -3.4134   -0.2843 H         1 <0>         0.1495
     50 H9         -0.2542   -5.6281    0.7617 H         1 <0>         0.1395
     51 H10        -0.0416   -7.4812   -3.0743 H         1 <0>         0.1340
     52 H11         1.0124   -7.1028   -4.8380 H         1 <0>         0.0865
     53 H12        -0.7575   -6.9822   -4.9839 H         1 <0>         0.1125
     54 H13         0.2511   -7.0823   -7.2222 H         1 <0>         0.1512
     55 H14        -0.4582   -5.4715   -6.9568 H         1 <0>         0.1482
     56 H15         1.6012   -5.9784   -8.9529 H         1 <0>         0.1394
     57 H16         0.9355   -4.3884   -8.5078 H         1 <0>         0.1461
     58 H17         3.1684   -4.1909   -9.6078 H         1 <0>         0.1429
     59 H18         3.1944   -3.5812   -7.9348 H         1 <0>         0.0835
     60 H19         4.8545   -6.6066   -6.7171 H         1 <0>         0.1405
     61 H20         4.2061   -5.0306   -6.2005 H         1 <0>         0.0824
     62 H21         2.6429   -6.8347   -5.5804 H         1 <0>         0.1382
     63 H22         2.5808   -7.3819   -7.2734 H         1 <0>         0.1399
     64 H23         0.2122   -8.7869   -1.0466 H         1 <0>         0.0771
     65 H24         0.1240   -8.0131    0.5539 H         1 <0>         0.0835
     66 H25         0.0436  -10.1019    0.5802 H         1 <0>         0.1389
     67 H26        -0.5162  -12.2713    1.5994 H         1 <0>         0.1403
     68 H27        -4.6648  -11.5025    0.9754 H         1 <0>         0.1463
     69 H28        -4.1140   -9.3265   -0.0349 H         1 <0>         0.1461
     70 H29        -0.5639    0.6185   -3.4898 H         1 <0>         0.0789
     71 H30         0.4692   -0.4902   -4.4236 H         1 <0>         0.0643
     72 H31        -0.6555    0.6014   -5.2673 H         1 <0>         0.0782
     73 H32         1.7546   -4.7395   -6.2950 H         1 <0>         0.4332
@<TRIPOS>BOND
     1    1    2 1
     2    1   42 1
     3    1   43 1
     4    1   44 1
     5    2    7 ar
     6    2    3 ar
     7    3    4 ar
     8    3   41 1
     9    4    5 ar
    10    4   13 1
    11    5    6 ar
    12    5   45 1
    13    6    7 ar
    14    6   46 1
    15    7    8 1
    16    8    9 1
    17    9   10 1
    18    9   47 1
    19    9   48 1
    20   10   11 2
    21   10   12 1
    22   13   14 1
    23   14   19 ar
    24   14   15 ar
    25   15   16 ar
    26   15   49 1
    27   16   17 ar
    28   16   50 1
    29   17   18 ar
    30   17   29 1
    31   18   19 ar
    32   18   51 1
    33   19   20 1
    34   20   21 1
    35   21   22 1
    36   21   52 1
    37   21   53 1
    38   22   23 1
    39   22   54 1
    40   22   55 1
    41   23   28 1
    42   23   24 1
    43   23   73 1
    44   24   25 1
    45   24   56 1
    46   24   57 1
    47   25   26 1
    48   25   58 1
    49   25   59 1
    50   26   27 1
    51   27   28 1
    52   27   60 1
    53   27   61 1
    54   28   62 1
    55   28   63 1
    56   29   30 1
    57   29   64 1
    58   29   65 1
    59   30   31 1
    60   31   36 ar
    61   31   32 ar
    62   32   33 ar
    63   32   66 1
    64   33   34 ar
    65   33   67 1
    66   34   35 ar
    67   34   37 1
    68   35   36 ar
    69   35   68 1
    70   36   69 1
    71   37   38 1
    72   37   39 1
    73   37   40 1
    74   41   70 1
    75   41   71 1
    76   41   72 1
@<TRIPOS>MOLECULE
CHEMBL392063
   60    62     0     0     0
SMALL
USER_CHARGES

@<TRIPOS>ATOM
      1 C1         -0.2535    1.4936   -0.1070 C.3       1 <0>        -0.1485
      2 C2          0.0017   -0.0108    0.0044 C.3       1 <0>        -0.0798
      3 C3          0.7073   -0.4939   -1.2365 C.ar      1 <0>        -0.1178
      4 C4         -0.0298   -0.9277   -2.3240 C.ar      1 <0>        -0.0762
      5 C5          0.6087   -1.3721   -3.4667 C.ar      1 <0>        -0.2058
      6 C6          1.9925   -1.3851   -3.5279 C.ar      1 <0>         0.1400
      7 C7          2.7399   -0.9475   -2.4308 C.ar      1 <0>        -0.0590
      8 C8          2.0869   -0.4968   -1.2863 C.ar      1 <0>        -0.0667
      9 C9          4.2226   -0.9584   -2.4872 C.2       1 <0>        -0.0779
     10 C10         4.9565    0.1686   -2.1302 C.2       1 <0>        -0.1452
     11 C11         6.3064    0.1201   -2.1947 C.2       1 <0>        -0.1723
     12 S1          6.5979   -1.5437   -2.7707 S.3       1 <0>         0.0340
     13 C12         4.8985   -2.0774   -2.8856 C.2       1 <0>        -0.1443
     14 O1          2.6212   -1.8222   -4.6506 O.3       1 <0>        -0.2993
     15 C13         1.7969   -2.1402   -5.7737 C.3       1 <0>         0.0844
     16 H1          0.9490   -1.4561   -5.8074 H         1 <0>         0.0767
     17 C14         1.2880   -3.5771   -5.6424 C.3       1 <0>        -0.1780
     18 C15         2.6134   -2.0040   -7.0605 C.3       1 <0>        -0.1121
     19 C16         3.0171   -0.5412   -7.2559 C.3       1 <0>         0.0618
     20 O2          3.7797   -0.4140   -8.4576 O.3       1 <0>        -0.3186
     21 C17         4.2194    0.8308   -8.7805 C.ar      1 <0>         0.1144
     22 C18         3.9278    1.9068   -7.9544 C.ar      1 <0>        -0.2092
     23 C19         4.3762    3.1708   -8.2845 C.ar      1 <0>        -0.0789
     24 C20         5.1152    3.3644   -9.4372 C.ar      1 <0>        -0.0995
     25 C21         5.4067    2.2941  -10.2621 C.ar      1 <0>        -0.0463
     26 C22         4.9654    1.0267   -9.9334 C.ar      1 <0>        -0.1505
     27 C23         6.2119    2.5087  -11.5178 C.3       1 <0>        -0.1209
     28 C24         5.6032    4.7446   -9.7949 C.3       1 <0>        -0.0564
     29 C25         4.6116    5.4029  -10.7562 C.3       1 <0>        -0.1754
     30 C26         5.0996    6.7831  -11.1140 C.2       1 <0>         0.4892
     31 O3          6.1437    7.2014  -10.6436 O.co2     1 <0>        -0.6984
     32 O4          4.4502    7.4814  -11.8737 O.co2     1 <0>        -0.7069
     33 H2          0.6971    2.0166   -0.2113 H         1 <0>         0.0560
     34 H3         -0.8756    1.6930   -0.9796 H         1 <0>         0.0555
     35 H4         -0.7639    1.8430    0.7905 H         1 <0>         0.0568
     36 H5          0.6237   -0.2102    0.8770 H         1 <0>         0.0700
     37 H6         -0.9489   -0.5339    0.1087 H         1 <0>         0.0699
     38 H7         -1.1089   -0.9193   -2.2798 H         1 <0>         0.1236
     39 H8          0.0281   -1.7098   -4.3124 H         1 <0>         0.1312
     40 H9          2.6592   -0.1537   -0.4370 H         1 <0>         0.1281
     41 H10         4.4554    1.0690   -1.8066 H         1 <0>         0.1331
     42 H11         7.0245    0.8914   -1.9584 H         1 <0>         0.1860
     43 H12         4.5061   -3.0359   -3.1917 H         1 <0>         0.1829
     44 H13         0.7063   -3.6741   -4.7257 H         1 <0>         0.0657
     45 H14         0.6592   -3.8196   -6.4991 H         1 <0>         0.0746
     46 H15         2.1359   -4.2612   -5.6088 H         1 <0>         0.0700
     47 H16         3.5087   -2.6216   -6.9897 H         1 <0>         0.0865
     48 H17         2.0122   -2.3314   -7.9087 H         1 <0>         0.0940
     49 H18         2.1218    0.0765   -7.3266 H         1 <0>         0.0571
     50 H19         3.6183   -0.2138   -6.4076 H         1 <0>         0.0671
     51 H20         3.3503    1.7561   -7.0543 H         1 <0>         0.1198
     52 H21         4.1492    4.0087   -7.6420 H         1 <0>         0.1227
     53 H22         5.1972    0.1901  -10.5759 H         1 <0>         0.1249
     54 H23         7.2722    2.3907  -11.2941 H         1 <0>         0.0714
     55 H24         5.9154    1.7768  -12.2691 H         1 <0>         0.0632
     56 H25         6.0306    3.5139  -11.8983 H         1 <0>         0.0809
     57 H26         5.6862    5.3465   -8.8900 H         1 <0>         0.0676
     58 H27         6.5797    4.6719  -10.2737 H         1 <0>         0.0720
     59 H28         4.5286    4.8010  -11.6612 H         1 <0>         0.0578
     60 H29         3.6351    5.4756  -10.2774 H         1 <0>         0.0553
@<TRIPOS>BOND
     1    1    2 1
     2    1   33 1
     3    1   34 1
     4    1   35 1
     5    2    3 1
     6    2   36 1
     7    2   37 1
     8    3    8 ar
     9    3    4 ar
    10    4    5 ar
    11    4   38 1
    12    5    6 ar
    13    5   39 1
    14    6    7 ar
    15    6   14 1
    16    7    8 ar
    17    7    9 1
    18    8   40 1
    19    9   13 2
    20    9   10 1
    21   10   11 2
    22   10   41 1
    23   11   12 1
    24   11   42 1
    25   12   13 1
    26   13   43 1
    27   14   15 1
    28   15   16 1
    29   15   17 1
    30   15   18 1
    31   17   44 1
    32   17   45 1
    33   17   46 1
    34   18   19 1
    35   18   47 1
    36   18   48 1
    37   19   20 1
    38   19   49 1
    39   19   50 1
    40   20   21 1
    41   21   26 ar
    42   21   22 ar
    43   22   23 ar
    44   22   51 1
    45   23   24 ar
    46   23   52 1
    47   24   25 ar
    48   24   28 1
    49   25   26 ar
    50   25   27 1
    51   26   53 1
    52   27   54 1
    53   27   55 1
    54   27   56 1
    55   28   29 1
    56   28   57 1
    57   28   58 1
    58   29   30 1
    59   29   59 1
    60   29   60 1
    61   30   31 2
    62   30   32 1
@<TRIPOS>MOLECULE
CHEMBL230177
   54    55     0     0     0
SMALL
USER_CHARGES

@<TRIPOS>ATOM
      1 C1         -0.6682    1.4676   -0.3908 C.3       1 <0>        -0.1509
      2 C2         -0.6129   -0.0608   -0.4348 C.3       1 <0>         0.0566
      3 O1          0.5992   -0.4755   -1.0679 O.3       1 <0>        -0.3701
      4 C3          0.7482   -1.8934   -1.1658 C.3       1 <0>         0.1102
      5 C4          1.9910   -2.3305   -0.3879 C.3       1 <0>        -0.1193
      6 C5          1.7903   -2.0378    1.1004 C.3       1 <0>        -0.0841
      7 C6          2.9594   -2.5805    1.8812 C.ar      1 <0>        -0.0457
      8 C7          2.9274   -3.8758    2.3629 C.ar      1 <0>        -0.1191
      9 C8          3.9999   -4.3735    3.0792 C.ar      1 <0>        -0.0675
     10 C9          5.1045   -3.5761    3.3133 C.ar      1 <0>        -0.1896
     11 C10         5.1369   -2.2811    2.8308 C.ar      1 <0>        -0.0673
     12 C11         4.0662   -1.7848    2.1109 C.ar      1 <0>        -0.1164
     13 C12         6.2732   -4.1184    4.0950 C.3       1 <0>         0.5081
     14 F1          7.1834   -4.7174    3.2175 F         1 <0>        -0.1761
     15 F2          6.9032   -3.0724    4.7779 F         1 <0>        -0.1778
     16 F3          5.8181   -5.0688    5.0152 F         1 <0>        -0.1779
     17 C13         0.9008   -2.2899   -2.6356 C.3       1 <0>        -0.1184
     18 S1         -0.5727   -1.7716   -3.5579 S.3       1 <0>        -0.1205
     19 C14        -0.2471   -2.2925   -5.2093 C.ar      1 <0>        -0.1340
     20 C15         0.9415   -2.9460   -5.5106 C.ar      1 <0>        -0.0941
     21 C16         1.1957   -3.3537   -6.8050 C.ar      1 <0>        -0.1963
     22 C17         0.2650   -3.1107   -7.8047 C.ar      1 <0>         0.1394
     23 C18        -0.9218   -2.4585   -7.5052 C.ar      1 <0>        -0.1067
     24 C19        -1.1808   -2.0553   -6.2099 C.ar      1 <0>        -0.0612
     25 C20        -1.9315   -2.1948   -8.5923 C.3       1 <0>        -0.1048
     26 O2          0.5168   -3.5119   -9.0796 O.3       1 <0>        -0.2754
     27 C21         1.7589   -4.1774   -9.3169 C.3       1 <0>        -0.0081
     28 C22         1.8615   -4.5446  -10.7749 C.2       1 <0>         0.5015
     29 O3          0.9550   -4.2626  -11.5398 O.co2     1 <0>        -0.6698
     30 O4          2.8511   -5.1238  -11.1895 O.co2     1 <0>        -0.6873
     31 H1          0.1843    1.8459    0.1733 H         1 <0>         0.0604
     32 H2         -0.6355    1.8617   -1.4065 H         1 <0>         0.0662
     33 H3         -1.5928    1.7840    0.0921 H         1 <0>         0.0689
     34 H4         -0.6456   -0.4549    0.5809 H         1 <0>         0.0455
     35 H5         -1.4654   -0.4391   -0.9990 H         1 <0>         0.0528
     36 H6         -0.1324   -2.3809   -0.7475 H         1 <0>         0.0741
     37 H7          2.1511   -3.3993   -0.5296 H         1 <0>         0.0794
     38 H8          2.8594   -1.7816   -0.7522 H         1 <0>         0.0795
     39 H9          1.7201   -0.9608    1.2527 H         1 <0>         0.0844
     40 H10         0.8718   -2.5139    1.4437 H         1 <0>         0.0758
     41 H11         2.0644   -4.4988    2.1800 H         1 <0>         0.1350
     42 H12         3.9746   -5.3853    3.4561 H         1 <0>         0.1356
     43 H13         5.9998   -1.6580    3.0140 H         1 <0>         0.1357
     44 H14         4.0931   -0.7742    1.7307 H         1 <0>         0.1360
     45 H15         1.7814   -1.8023   -3.0539 H         1 <0>         0.0939
     46 H16         1.0144   -3.3714   -2.7102 H         1 <0>         0.0952
     47 H17         1.6665   -3.1347   -4.7326 H         1 <0>         0.1183
     48 H18         2.1195   -3.8616   -7.0394 H         1 <0>         0.1313
     49 H19        -2.1070   -1.5514   -5.9759 H         1 <0>         0.1284
     50 H20        -2.6223   -3.0353   -8.6582 H         1 <0>         0.0679
     51 H21        -2.4864   -1.2858   -8.3601 H         1 <0>         0.0604
     52 H22        -1.4161   -2.0724   -9.5450 H         1 <0>         0.0797
     53 H23         2.5826   -3.5153   -9.0501 H         1 <0>         0.0590
     54 H24         1.8084   -5.0815   -8.7101 H         1 <0>         0.0590
@<TRIPOS>BOND
     1    1    2 1
     2    1   31 1
     3    1   32 1
     4    1   33 1
     5    2    3 1
     6    2   34 1
     7    2   35 1
     8    3    4 1
     9    4    5 1
    10    4   17 1
    11    4   36 1
    12    5    6 1
    13    5   37 1
    14    5   38 1
    15    6    7 1
    16    6   39 1
    17    6   40 1
    18    7   12 ar
    19    7    8 ar
    20    8    9 ar
    21    8   41 1
    22    9   10 ar
    23    9   42 1
    24   10   11 ar
    25   10   13 1
    26   11   12 ar
    27   11   43 1
    28   12   44 1
    29   13   14 1
    30   13   15 1
    31   13   16 1
    32   17   18 1
    33   17   45 1
    34   17   46 1
    35   18   19 1
    36   19   24 ar
    37   19   20 ar
    38   20   21 ar
    39   20   47 1
    40   21   22 ar
    41   21   48 1
    42   22   23 ar
    43   22   26 1
    44   23   24 ar
    45   23   25 1
    46   24   49 1
    47   25   50 1
    48   25   51 1
    49   25   52 1
    50   26   27 1
    51   27   28 1
    52   27   53 1
    53   27   54 1
    54   28   29 2
    55   28   30 1
@<TRIPOS>MOLECULE
CHEMBL230177__1
   54    55     0     0     0
SMALL
USER_CHARGES

@<TRIPOS>ATOM
      1 C1         -0.0187    1.5258    0.0104 C.3       1 <0>        -0.1484
      2 C2          0.0021   -0.0041    0.0020 C.3       1 <0>         0.0473
      3 O1          0.6709   -0.4649   -1.1737 O.3       1 <0>        -0.3734
      4 C3          0.7457   -1.8880   -1.2798 C.3       1 <0>         0.1103
      5 C4          0.7554   -2.2896   -2.7561 C.3       1 <0>        -0.1060
      6 C5         -0.5793   -1.9054   -3.3979 C.3       1 <0>        -0.0834
      7 C6         -0.5698   -2.3010   -4.8520 C.ar      1 <0>        -0.0458
      8 C7         -0.1127   -1.4122   -5.8070 C.ar      1 <0>        -0.1161
      9 C8         -0.1040   -1.7750   -7.1409 C.ar      1 <0>        -0.0676
     10 C9         -0.5519   -3.0267   -7.5197 C.ar      1 <0>        -0.1899
     11 C10        -1.0081   -3.9158   -6.5645 C.ar      1 <0>        -0.0679
     12 C11        -1.0128   -3.5546   -5.2302 C.ar      1 <0>        -0.1192
     13 C12        -0.5433   -3.4219   -8.9739 C.3       1 <0>         0.5081
     14 F1          0.6808   -4.0228   -9.2867 F         1 <0>        -0.1763
     15 F2         -1.5825   -4.3263   -9.2176 F         1 <0>        -0.1780
     16 F3         -0.7202   -2.2835   -9.7676 F         1 <0>        -0.1779
     17 C13         2.0284   -2.3828   -0.6083 C.3       1 <0>        -0.1313
     18 S1          1.9513   -2.0376    1.1709 S.3       1 <0>        -0.1263
     19 C14         3.4791   -2.6579    1.7920 C.ar      1 <0>        -0.1404
     20 C15         4.3971   -3.2390    0.9260 C.ar      1 <0>        -0.0927
     21 C16         5.5939   -3.7248    1.4138 C.ar      1 <0>        -0.1969
     22 C17         5.8799   -3.6332    2.7682 C.ar      1 <0>         0.1399
     23 C18         4.9643   -3.0533    3.6337 C.ar      1 <0>        -0.1074
     24 C19         3.7691   -2.5611    3.1470 C.ar      1 <0>        -0.0611
     25 C20         5.2762   -2.9550    5.1048 C.3       1 <0>        -0.1048
     26 O2          7.0587   -4.1128    3.2478 O.3       1 <0>        -0.2754
     27 C21         7.9546   -4.6977    2.3004 C.3       1 <0>        -0.0081
     28 C22         9.1978   -5.1693    3.0096 C.2       1 <0>         0.5015
     29 O3          9.3066   -5.0187    4.2146 O.co2     1 <0>        -0.6698
     30 O4         10.0949   -5.7017    2.3784 O.co2     1 <0>        -0.6871
     31 H1          1.0039    1.9031    0.0027 H         1 <0>         0.0644
     32 H2         -0.5459    1.8868   -0.8726 H         1 <0>         0.0590
     33 H3         -0.5289    1.8773    0.9072 H         1 <0>         0.0701
     34 H4          0.5293   -0.3651    0.8851 H         1 <0>         0.0710
     35 H5         -1.0205   -0.3814    0.0098 H         1 <0>         0.0459
     36 H6         -0.1179   -2.3349   -0.7873 H         1 <0>         0.0722
     37 H7          1.5669   -1.7723   -3.2680 H         1 <0>         0.0795
     38 H8          0.9017   -3.3665   -2.8387 H         1 <0>         0.0819
     39 H9         -1.3908   -2.4227   -2.8859 H         1 <0>         0.0766
     40 H10        -0.7256   -0.8285   -3.3152 H         1 <0>         0.0873
     41 H11         0.2372   -0.4343   -5.5111 H         1 <0>         0.1364
     42 H12         0.2524   -1.0804   -7.8871 H         1 <0>         0.1355
     43 H13        -1.3584   -4.8936   -6.8605 H         1 <0>         0.1353
     44 H14        -1.3658   -4.2506   -4.4836 H         1 <0>         0.1351
     45 H15         2.1302   -3.4565   -0.7660 H         1 <0>         0.0949
     46 H16         2.8867   -1.8690   -1.0412 H         1 <0>         0.0953
     47 H17         4.1744   -3.3111   -0.1284 H         1 <0>         0.1182
     48 H18         6.3075   -4.1766    0.7407 H         1 <0>         0.1312
     49 H19         3.0582   -2.1055    3.8204 H         1 <0>         0.1280
     50 H20         5.7873   -2.0134    5.3057 H         1 <0>         0.0680
     51 H21         4.3488   -2.9940    5.6762 H         1 <0>         0.0603
     52 H22         5.9180   -3.7863    5.3965 H         1 <0>         0.0797
     53 H23         7.4690   -5.5449    1.8162 H         1 <0>         0.0590
     54 H24         8.2243   -3.9554    1.5492 H         1 <0>         0.0592
@<TRIPOS>BOND
     1    1    2 1
     2    1   31 1
     3    1   32 1
     4    1   33 1
     5    2    3 1
     6    2   34 1
     7    2   35 1
     8    3    4 1
     9    4    5 1
    10    4   17 1
    11    4   36 1
    12    5    6 1
    13    5   37 1
    14    5   38 1
    15    6    7 1
    16    6   39 1
    17    6   40 1
    18    7   12 ar
    19    7    8 ar
    20    8    9 ar
    21    8   41 1
    22    9   10 ar
    23    9   42 1
    24   10   11 ar
    25   10   13 1
    26   11   12 ar
    27   11   43 1
    28   12   44 1
    29   13   14 1
    30   13   15 1
    31   13   16 1
    32   17   18 1
    33   17   45 1
    34   17   46 1
    35   18   19 1
    36   19   24 ar
    37   19   20 ar
    38   20   21 ar
    39   20   47 1
    40   21   22 ar
    41   21   48 1
    42   22   23 ar
    43   22   26 1
    44   23   24 ar
    45   23   25 1
    46   24   49 1
    47   25   50 1
    48   25   51 1
    49   25   52 1
    50   26   27 1
    51   27   28 1
    52   27   53 1
    53   27   54 1
    54   28   29 2
    55   28   30 1
@<TRIPOS>MOLECULE
CHEMBL231690
   37    39     0     0     0
SMALL
USER_CHARGES

@<TRIPOS>ATOM
      1 C1         -0.0184    1.5028    0.0103 C.3       1 <0>        -0.0833
      2 C2          0.0021   -0.0041    0.0020 C.2       1 <0>         0.0769
      3 C3          0.0059   -0.7076   -1.1591 C.2       1 <0>        -0.1557
      4 S1          0.0324   -2.3789   -0.5312 S.3       1 <0>         0.2344
      5 C4          0.0357   -2.0088    1.1107 C.2       1 <0>        -0.0907
      6 N1          0.0226   -0.6992    1.1217 N.2       1 <0>        -0.4515
      7 C5          0.0549   -2.9548    2.2837 C.3       1 <0>         0.5716
      8 F1         -0.0641   -2.2264    3.4722 F         1 <0>        -0.1528
      9 F2         -1.0138   -3.8514    2.1772 F         1 <0>        -0.1614
     10 F3          1.2603   -3.6647    2.2905 F         1 <0>        -0.1605
     11 C6         -0.0083   -0.2146   -2.5831 C.3       1 <0>        -0.0258
     12 S2          1.6961    0.0070   -3.1633 S.3       1 <0>        -0.1078
     13 C7          1.5116    0.5784   -4.8198 C.ar      1 <0>        -0.1271
     14 C8          0.2363    0.7548   -5.3563 C.ar      1 <0>        -0.1222
     15 C9          0.0754    1.2004   -6.6485 C.ar      1 <0>        -0.0926
     16 C10         1.1902    1.4791   -7.4328 C.ar      1 <0>         0.1172
     17 C11         2.4779    1.3027   -6.8961 C.ar      1 <0>        -0.0958
     18 C12         2.6316    0.8559   -5.5818 C.ar      1 <0>        -0.0450
     19 C13         3.4148    1.6757   -7.9587 C.2       1 <0>        -0.2264
     20 C14         2.6795    2.0376   -9.0220 C.2       1 <0>         0.0761
     21 N2          1.3482    1.9270   -8.7280 N.pl3     1 <0>        -0.4402
     22 C15         0.2536    2.2379   -9.6507 C.3       1 <0>         0.0303
     23 C16        -0.2132    3.6518   -9.4182 C.2       1 <0>         0.4804
     24 O1          0.3192    4.3364   -8.5611 O.co2     1 <0>        -0.6712
     25 O2         -1.1231    4.1112  -10.0871 O.co2     1 <0>        -0.6909
     26 H1          1.0042    1.8801    0.0026 H         1 <0>         0.0867
     27 H2         -0.5455    1.8639   -0.8728 H         1 <0>         0.0818
     28 H3         -0.5286    1.8543    0.9071 H         1 <0>         0.0799
     29 H4         -0.5152   -0.9438   -3.2150 H         1 <0>         0.1096
     30 H5         -0.5357    0.7380   -2.6326 H         1 <0>         0.1200
     31 H6         -0.6328    0.5394   -4.7524 H         1 <0>         0.1175
     32 H7         -0.9167    1.3335   -7.0539 H         1 <0>         0.1193
     33 H8          3.6190    0.7235   -5.1648 H         1 <0>         0.1220
     34 H9          4.4930    1.6625   -7.8980 H         1 <0>         0.1427
     35 H10         3.0799    2.3677   -9.9692 H         1 <0>         0.1621
     36 H11         0.6039    2.1352  -10.6777 H         1 <0>         0.0890
     37 H12        -0.5736    1.5493   -9.4784 H         1 <0>         0.0835
@<TRIPOS>BOND
     1    1    2 1
     2    1   26 1
     3    1   27 1
     4    1   28 1
     5    2    6 1
     6    2    3 2
     7    3    4 1
     8    3   11 1
     9    4    5 1
    10    5    6 2
    11    5    7 1
    12    7    8 1
    13    7    9 1
    14    7   10 1
    15   11   12 1
    16   11   29 1
    17   11   30 1
    18   12   13 1
    19   13   18 ar
    20   13   14 ar
    21   14   15 ar
    22   14   31 1
    23   15   16 ar
    24   15   32 1
    25   16   21 1
    26   16   17 ar
    27   17   18 ar
    28   17   19 1
    29   18   33 1
    30   19   20 2
    31   19   34 1
    32   20   21 1
    33   20   35 1
    34   21   22 1
    35   22   23 1
    36   22   36 1
    37   22   37 1
    38   23   24 2
    39   23   25 1
@<TRIPOS>MOLECULE
CHEMBL393373
   49    52     0     0     0
SMALL
USER_CHARGES

@<TRIPOS>ATOM
      1 C1          0.1375    1.3164   -1.0121 C.ar      1 <0>        -0.0549
      2 C2          1.2724    2.0442   -0.7117 C.ar      1 <0>        -0.1963
      3 C3          2.4305    1.3898   -0.3167 C.ar      1 <0>         0.1239
      4 C4          2.4451    0.0054   -0.2246 C.ar      1 <0>        -0.1445
      5 C5          1.3074   -0.7177   -0.5261 C.ar      1 <0>        -0.0569
      6 C6          0.1547   -0.0631   -0.9195 C.ar      1 <0>        -0.1151
      7 C7         -1.0851   -0.8545   -1.2474 C.3       1 <0>         0.1047
      8 O1         -1.0849   -1.1862   -2.6373 O.3       1 <0>        -0.3143
      9 C8         -2.1422   -1.9050   -3.1008 C.ar      1 <0>         0.0857
     10 C9         -3.1629   -2.2773   -2.2296 C.ar      1 <0>        -0.1892
     11 C10        -4.2407   -3.0046   -2.6822 C.ar      1 <0>        -0.0759
     12 C11        -4.3172   -3.3744   -4.0210 C.ar      1 <0>         0.0876
     13 C12        -3.2882   -3.0001   -4.9032 C.ar      1 <0>        -0.0748
     14 C13        -2.2021   -2.2577   -4.4340 C.ar      1 <0>        -0.1126
     15 C14        -3.6638   -3.5344   -6.2144 C.2       1 <0>        -0.2347
     16 C15        -4.8370   -4.1683   -6.0591 C.2       1 <0>         0.0792
     17 N1         -5.2438   -4.0839   -4.7557 N.pl3     1 <0>        -0.4418
     18 C16        -6.4790   -4.6616   -4.2202 C.3       1 <0>         0.0320
     19 C17        -7.5628   -3.6145   -4.2161 C.2       1 <0>         0.4801
     20 O2         -7.3254   -2.4899   -4.6228 O.co2     1 <0>        -0.6713
     21 O3         -8.6770   -3.8919   -3.8061 O.co2     1 <0>        -0.6930
     22 O4          3.5484    2.1034   -0.0210 O.3       1 <0>        -0.2601
     23 C18         3.4853    3.4573   -0.1181 C.ar      1 <0>         0.1210
     24 C19         3.1078    4.2161    0.9806 C.ar      1 <0>        -0.1275
     25 C20         3.0443    5.5922    0.8792 C.ar      1 <0>        -0.0553
     26 C21         3.3562    6.2137   -0.3160 C.ar      1 <0>        -0.1846
     27 C22         3.7322    5.4599   -1.4125 C.ar      1 <0>        -0.0546
     28 C23         3.8037    4.0839   -1.3145 C.ar      1 <0>        -0.1267
     29 C24         3.2856    7.7152   -0.4238 C.3       1 <0>         0.5098
     30 F1          4.5257    8.2660   -0.0831 F         1 <0>        -0.1750
     31 F2          2.9610    8.0737   -1.7366 F         1 <0>        -0.1747
     32 F3          2.3047    8.1998    0.4481 F         1 <0>        -0.1751
     33 H1         -0.7655    1.8255   -1.3153 H         1 <0>         0.1314
     34 H2          1.2585    3.1217   -0.7845 H         1 <0>         0.1284
     35 H3          3.3452   -0.5064    0.0823 H         1 <0>         0.1357
     36 H4          1.3182   -1.7953   -0.4546 H         1 <0>         0.1360
     37 H5         -1.0991   -1.7697   -0.6555 H         1 <0>         0.0685
     38 H6         -1.9682   -0.2588   -1.0161 H         1 <0>         0.0686
     39 H7         -3.1083   -1.9931   -1.1891 H         1 <0>         0.1233
     40 H8         -5.0265   -3.2884   -1.9978 H         1 <0>         0.1177
     41 H9         -1.4119   -1.9648   -5.1095 H         1 <0>         0.1227
     42 H10        -3.1034   -3.4364   -7.1324 H         1 <0>         0.1408
     43 H11        -5.3793   -4.6706   -6.8465 H         1 <0>         0.1603
     44 H12        -6.7873   -5.5012   -4.8432 H         1 <0>         0.0874
     45 H13        -6.3058   -5.0092   -3.2018 H         1 <0>         0.0822
     46 H14         2.8634    3.7311    1.9141 H         1 <0>         0.1453
     47 H15         2.7506    6.1833    1.7340 H         1 <0>         0.1451
     48 H16         3.9749    5.9478   -2.3450 H         1 <0>         0.1455
     49 H17         4.1021    3.4959   -2.1699 H         1 <0>         0.1460
@<TRIPOS>BOND
     1    1    6 ar
     2    1    2 ar
     3    1   33 1
     4    2    3 ar
     5    2   34 1
     6    3    4 ar
     7    3   22 1
     8    4    5 ar
     9    4   35 1
    10    5    6 ar
    11    5   36 1
    12    6    7 1
    13    7    8 1
    14    7   37 1
    15    7   38 1
    16    8    9 1
    17    9   14 ar
    18    9   10 ar
    19   10   11 ar
    20   10   39 1
    21   11   12 ar
    22   11   40 1
    23   12   17 1
    24   12   13 ar
    25   13   14 ar
    26   13   15 1
    27   14   41 1
    28   15   16 2
    29   15   42 1
    30   16   17 1
    31   16   43 1
    32   17   18 1
    33   18   19 1
    34   18   44 1
    35   18   45 1
    36   19   20 2
    37   19   21 1
    38   22   23 1
    39   23   28 ar
    40   23   24 ar
    41   24   25 ar
    42   24   46 1
    43   25   26 ar
    44   25   47 1
    45   26   27 ar
    46   26   29 1
    47   27   28 ar
    48   27   48 1
    49   28   49 1
    50   29   30 1
    51   29   31 1
    52   29   32 1
@<TRIPOS>MOLECULE
CHEMBL231689
   52    55     0     0     0
SMALL
USER_CHARGES

@<TRIPOS>ATOM
      1 C1         -0.0167    1.3779    0.0096 C.ar      1 <0>        -0.1258
      2 C2          1.1711    2.0854    0.0021 C.ar      1 <0>        -0.0875
      3 C3          2.3773    1.4107   -0.0130 C.ar      1 <0>        -0.1058
      4 C4          2.3960    0.0283   -0.0201 C.ar      1 <0>        -0.0683
      5 C5          1.2086   -0.6790   -0.0117 C.ar      1 <0>        -0.0891
      6 C6          0.0021   -0.0041    0.0020 C.ar      1 <0>        -0.0817
      7 C7          1.2291   -2.1858   -0.0204 C.3       1 <0>         0.1017
      8 O1          1.2497   -2.6697    1.3240 O.3       1 <0>        -0.3132
      9 C8          1.2698   -4.0188    1.4944 C.ar      1 <0>         0.0852
     10 C9          1.2755   -4.8581    0.3830 C.ar      1 <0>        -0.1894
     11 C10         1.2963   -6.2261    0.5375 C.ar      1 <0>        -0.0758
     12 C11         1.3118   -6.7817    1.8126 C.ar      1 <0>         0.0878
     13 C12         1.3061   -5.9370    2.9367 C.ar      1 <0>        -0.0747
     14 C13         1.2903   -4.5505    2.7681 C.ar      1 <0>        -0.1118
     15 C14         1.3258   -6.8185    4.1065 C.2       1 <0>        -0.2345
     16 C15         1.3415   -8.0801    3.6477 C.2       1 <0>         0.0793
     17 N1          1.3334   -8.0790    2.2798 N.pl3     1 <0>        -0.4417
     18 C16         1.3452   -9.2772    1.4369 C.3       1 <0>         0.0320
     19 C17         2.7627   -9.5966    1.0375 C.2       1 <0>         0.4800
     20 O2          3.6784   -8.8889    1.4213 O.co2     1 <0>        -0.6712
     21 O3          2.9940  -10.5626    0.3306 O.co2     1 <0>        -0.6929
     22 C18         3.6720    2.1819   -0.0222 C.3       1 <0>         0.1012
     23 O4          4.0945    2.4194    1.3220 O.3       1 <0>        -0.2996
     24 C19         5.2538    3.1080    1.4918 C.ar      1 <0>         0.1670
     25 C20         5.9669    3.5512    0.3874 C.ar      1 <0>        -0.2136
     26 C21         7.1448    4.2514    0.5627 C.ar      1 <0>        -0.0275
     27 C22         7.6133    4.5103    1.8375 C.ar      1 <0>        -0.2277
     28 C23         6.9047    4.0693    2.9399 C.ar      1 <0>        -0.0293
     29 C24         5.7231    3.3740    2.7700 C.ar      1 <0>        -0.1525
     30 C25         8.8988    5.2739    2.0258 C.3       1 <0>         0.5124
     31 F1          8.6210    6.6429    2.1023 F         1 <0>        -0.1787
     32 F2          9.5198    4.8572    3.2081 F         1 <0>        -0.1775
     33 F3          9.7489    5.0305    0.9417 F         1 <0>        -0.1785
     34 H1         -0.9591    1.9051    0.0259 H         1 <0>         0.1282
     35 H2          1.1565    3.1653    0.0076 H         1 <0>         0.1247
     36 H3          3.3385   -0.4989   -0.0326 H         1 <0>         0.1281
     37 H4         -0.9258   -0.5567    0.0079 H         1 <0>         0.1283
     38 H5          0.3388   -2.5583   -0.5270 H         1 <0>         0.0692
     39 H6          2.1185   -2.5341   -0.5456 H         1 <0>         0.0692
     40 H7          1.2631   -4.4319   -0.6092 H         1 <0>         0.1231
     41 H8          1.3001   -6.8676   -0.3313 H         1 <0>         0.1178
     42 H9          1.2900   -3.8985    3.6290 H         1 <0>         0.1230
     43 H10         1.3280   -6.5116    5.1420 H         1 <0>         0.1410
     44 H11         1.3580   -8.9648    4.2670 H         1 <0>         0.1604
     45 H12         0.9264  -10.1163    1.9925 H         1 <0>         0.0875
     46 H13         0.7473   -9.0986    0.5432 H         1 <0>         0.0821
     47 H14         4.4344    1.6057   -0.5463 H         1 <0>         0.0768
     48 H15         3.5236    3.1349   -0.5302 H         1 <0>         0.0757
     49 H16         5.6017    3.3486   -0.6086 H         1 <0>         0.1404
     50 H17         7.7003    4.5965   -0.2968 H         1 <0>         0.1383
     51 H18         7.2730    4.2725    3.9346 H         1 <0>         0.1428
     52 H19         5.1677    3.0337    3.6314 H         1 <0>         0.1448
@<TRIPOS>BOND
     1    1    6 ar
     2    1    2 ar
     3    1   34 1
     4    2    3 ar
     5    2   35 1
     6    3    4 ar
     7    3   22 1
     8    4    5 ar
     9    4   36 1
    10    5    6 ar
    11    5    7 1
    12    6   37 1
    13    7    8 1
    14    7   38 1
    15    7   39 1
    16    8    9 1
    17    9   14 ar
    18    9   10 ar
    19   10   11 ar
    20   10   40 1
    21   11   12 ar
    22   11   41 1
    23   12   17 1
    24   12   13 ar
    25   13   14 ar
    26   13   15 1
    27   14   42 1
    28   15   16 2
    29   15   43 1
    30   16   17 1
    31   16   44 1
    32   17   18 1
    33   18   19 1
    34   18   45 1
    35   18   46 1
    36   19   20 2
    37   19   21 1
    38   22   23 1
    39   22   47 1
    40   22   48 1
    41   23   24 1
    42   24   29 ar
    43   24   25 ar
    44   25   26 ar
    45   25   49 1
    46   26   27 ar
    47   26   50 1
    48   27   28 ar
    49   27   30 1
    50   28   29 ar
    51   28   51 1
    52   29   52 1
    53   30   31 1
    54   30   32 1
    55   30   33 1
@<TRIPOS>MOLECULE
CHEMBL231688
   52    55     0     0     0
SMALL
USER_CHARGES

@<TRIPOS>ATOM
      1 C1         -0.0167    1.3779    0.0096 C.ar      1 <0>        -0.1208
      2 C2          1.1711    2.0854    0.0021 C.ar      1 <0>        -0.1158
      3 C3          2.3773    1.4107   -0.0130 C.ar      1 <0>        -0.0923
      4 C4          2.3960    0.0283   -0.0201 C.ar      1 <0>        -0.0761
      5 C5          1.2086   -0.6790   -0.0117 C.ar      1 <0>        -0.0899
      6 C6          0.0021   -0.0041    0.0020 C.ar      1 <0>        -0.0975
      7 C7          1.2291   -2.1858   -0.0204 C.3       1 <0>         0.0965
      8 O1         -0.1116   -2.6804   -0.0091 O.3       1 <0>        -0.3022
      9 C8         -0.2713   -4.0300   -0.0151 C.ar      1 <0>         0.1660
     10 C9          0.8394   -4.8611   -0.0256 C.ar      1 <0>        -0.2105
     11 C10         0.6744   -6.2327   -0.0312 C.ar      1 <0>        -0.0253
     12 C11        -0.5965   -6.7772   -0.0267 C.ar      1 <0>        -0.2255
     13 C12        -1.7052   -5.9511   -0.0167 C.ar      1 <0>        -0.0306
     14 C13        -1.5454   -4.5789   -0.0048 C.ar      1 <0>        -0.1535
     15 C14        -0.7737   -8.2738   -0.0333 C.3       1 <0>         0.5120
     16 F1         -0.8210   -8.7436    1.2836 F         1 <0>        -0.1779
     17 F2         -1.9666   -8.5993   -0.6876 F         1 <0>        -0.1787
     18 F3          0.3021   -8.8678   -0.7020 F         1 <0>        -0.1768
     19 C15         3.7112   -0.7073   -0.0376 C.3       1 <0>         0.0993
     20 O2          4.7846    0.2360   -0.0441 O.3       1 <0>        -0.3135
     21 C16         6.0481   -0.2667   -0.0599 C.ar      1 <0>         0.0848
     22 C17         6.2460   -1.6451   -0.0746 C.ar      1 <0>        -0.1894
     23 C18         7.5184   -2.1708   -0.0911 C.ar      1 <0>        -0.0750
     24 C19         8.6211   -1.3229   -0.0932 C.ar      1 <0>         0.0888
     25 C20         8.4246    0.0694   -0.0783 C.ar      1 <0>        -0.0747
     26 C21         7.1292    0.5916   -0.0669 C.ar      1 <0>        -0.1101
     27 C22         9.7618    0.6677   -0.0848 C.2       1 <0>        -0.2343
     28 C23        10.6447   -0.3435   -0.1024 C.2       1 <0>         0.0800
     29 N1          9.9827   -1.5407   -0.1076 N.pl3     1 <0>        -0.4413
     30 C24        10.6245   -2.8575   -0.1251 C.3       1 <0>         0.0316
     31 C25        10.7203   -3.3508   -1.5459 C.2       1 <0>         0.4801
     32 O3         10.2921   -2.6659   -2.4591 O.co2     1 <0>        -0.6712
     33 O4         11.2260   -4.4348   -1.7820 O.co2     1 <0>        -0.6923
     34 H1         -0.9591    1.9051    0.0259 H         1 <0>         0.1238
     35 H2          1.1565    3.1653    0.0076 H         1 <0>         0.1250
     36 H3          3.3051    1.9634   -0.0196 H         1 <0>         0.1385
     37 H4         -0.9258   -0.5567    0.0079 H         1 <0>         0.1324
     38 H5          1.7384   -2.5371   -0.9178 H         1 <0>         0.0831
     39 H6          1.7571   -2.5471    0.8621 H         1 <0>         0.0822
     40 H7          1.8323   -4.4363   -0.0299 H         1 <0>         0.1419
     41 H8          1.5387   -6.8801   -0.0394 H         1 <0>         0.1408
     42 H9         -2.6968   -6.3788   -0.0135 H         1 <0>         0.1425
     43 H10        -2.4116   -3.9340    0.0075 H         1 <0>         0.1436
     44 H11         3.7867   -1.3376    0.8485 H         1 <0>         0.0730
     45 H12         3.7681   -1.3287   -0.9313 H         1 <0>         0.0741
     46 H13         5.3933   -2.3080   -0.0728 H         1 <0>         0.1212
     47 H14         7.6603   -3.2414   -0.1021 H         1 <0>         0.1182
     48 H15         6.9744    1.6604   -0.0596 H         1 <0>         0.1237
     49 H16         9.9935    1.7225   -0.0775 H         1 <0>         0.1414
     50 H17        11.7185   -0.2288   -0.1110 H         1 <0>         0.1608
     51 H18        11.6249   -2.7798    0.3007 H         1 <0>         0.0878
     52 H19        10.0324   -3.5581    0.4636 H         1 <0>         0.0823
@<TRIPOS>BOND
     1    1    6 ar
     2    1    2 ar
     3    1   34 1
     4    2    3 ar
     5    2   35 1
     6    3    4 ar
     7    3   36 1
     8    4    5 ar
     9    4   19 1
    10    5    6 ar
    11    5    7 1
    12    6   37 1
    13    7    8 1
    14    7   38 1
    15    7   39 1
    16    8    9 1
    17    9   14 ar
    18    9   10 ar
    19   10   11 ar
    20   10   40 1
    21   11   12 ar
    22   11   41 1
    23   12   13 ar
    24   12   15 1
    25   13   14 ar
    26   13   42 1
    27   14   43 1
    28   15   16 1
    29   15   17 1
    30   15   18 1
    31   19   20 1
    32   19   44 1
    33   19   45 1
    34   20   21 1
    35   21   26 ar
    36   21   22 ar
    37   22   23 ar
    38   22   46 1
    39   23   24 ar
    40   23   47 1
    41   24   29 1
    42   24   25 ar
    43   25   26 ar
    44   25   27 1
    45   26   48 1
    46   27   28 2
    47   27   49 1
    48   28   29 1
    49   28   50 1
    50   29   30 1
    51   30   31 1
    52   30   51 1
    53   30   52 1
    54   31   32 2
    55   31   33 1
@<TRIPOS>MOLECULE
CHEMBL393767
   44    47     0     0     0
SMALL
USER_CHARGES

@<TRIPOS>ATOM
      1 C1         -0.0169    1.3914    0.0097 C.ar      1 <0>        -0.0893
      2 C2          1.1702    2.0944    0.0021 C.ar      1 <0>        -0.0698
      3 C3          2.3776    1.4189   -0.0130 C.ar      1 <0>        -0.1700
      4 C4          2.4033    0.0357   -0.0212 C.ar      1 <0>        -0.0677
      5 C5          1.2234   -0.6793   -0.0142 C.ar      1 <0>        -0.0844
      6 C6          0.0021   -0.0041    0.0020 C.ar      1 <0>        -0.0019
      7 C7         -1.2662   -0.7638    0.0105 C.2       1 <0>         0.0953
      8 C8         -1.3901   -2.1189    0.0100 C.2       1 <0>        -0.2302
      9 C9         -2.7579   -2.4288    0.0197 C.2       1 <0>         0.1126
     10 N1         -3.4305   -1.3118    0.0259 N.2       1 <0>        -0.3017
     11 O1         -2.5059   -0.2393    0.0261 O.3       1 <0>        -0.0678
     12 C10        -3.3489   -3.8151    0.0218 C.3       1 <0>         0.1331
     13 O2         -2.2964   -4.7817    0.0122 O.3       1 <0>        -0.3134
     14 C11        -2.6612   -6.0917    0.0127 C.ar      1 <0>         0.0837
     15 C12        -4.0107   -6.4358    0.0164 C.ar      1 <0>        -0.1892
     16 C13        -4.3975   -7.7572    0.0165 C.ar      1 <0>        -0.0736
     17 C14        -3.4367   -8.7630    0.0129 C.ar      1 <0>         0.0902
     18 C15        -2.0733   -8.4189    0.0091 C.ar      1 <0>        -0.0756
     19 C16        -1.6925   -7.0750    0.0037 C.ar      1 <0>        -0.1059
     20 C17        -1.3357   -9.6845    0.0059 C.2       1 <0>        -0.2335
     21 C18        -2.2468  -10.6704    0.0078 C.2       1 <0>         0.0804
     22 N2         -3.5078  -10.1402    0.0120 N.pl3     1 <0>        -0.4407
     23 C19        -4.7486  -10.9191    0.0158 C.3       1 <0>         0.0312
     24 C20        -5.2449  -11.0801   -1.3980 C.2       1 <0>         0.4801
     25 O3         -4.6202  -10.5897   -2.3230 O.co2     1 <0>        -0.6713
     26 O4         -6.2713  -11.7008   -1.6168 O.co2     1 <0>        -0.6921
     27 C21         3.6704    2.1934   -0.0212 C.3       1 <0>         0.5084
     28 F1          4.0830    2.4259    1.2952 F         1 <0>        -0.1744
     29 F2          4.6510    1.4566   -0.6941 F         1 <0>        -0.1745
     30 F3          3.4772    3.4164   -0.6723 F         1 <0>        -0.1754
     31 H1         -0.9586    1.9198    0.0260 H         1 <0>         0.1462
     32 H2          1.1570    3.1743    0.0077 H         1 <0>         0.1443
     33 H3          3.3491   -0.4856   -0.0333 H         1 <0>         0.1467
     34 H4          1.2448   -1.7590   -0.0213 H         1 <0>         0.1481
     35 H5         -0.5779   -2.8307    0.0029 H         1 <0>         0.1711
     36 H6         -3.9574   -3.9494    0.9161 H         1 <0>         0.0936
     37 H7         -3.9708   -3.9463   -0.8638 H         1 <0>         0.0946
     38 H8         -4.7609   -5.6588    0.0196 H         1 <0>         0.1244
     39 H9         -5.4469   -8.0127    0.0198 H         1 <0>         0.1196
     40 H10        -0.6463   -6.8069   -0.0033 H         1 <0>         0.1248
     41 H11        -0.2621   -9.8021    0.0021 H         1 <0>         0.1418
     42 H12        -2.0180  -11.7259    0.0063 H         1 <0>         0.1611
     43 H13        -4.5596  -11.9014    0.4486 H         1 <0>         0.0882
     44 H14        -5.5018  -10.3998    0.6083 H         1 <0>         0.0829
@<TRIPOS>BOND
     1    1    6 ar
     2    1    2 ar
     3    1   31 1
     4    2    3 ar
     5    2   32 1
     6    3    4 ar
     7    3   27 1
     8    4    5 ar
     9    4   33 1
    10    5    6 ar
    11    5   34 1
    12    6    7 1
    13    7   11 1
    14    7    8 2
    15    8    9 1
    16    8   35 1
    17    9   10 2
    18    9   12 1
    19   10   11 1
    20   12   13 1
    21   12   36 1
    22   12   37 1
    23   13   14 1
    24   14   19 ar
    25   14   15 ar
    26   15   16 ar
    27   15   38 1
    28   16   17 ar
    29   16   39 1
    30   17   22 1
    31   17   18 ar
    32   18   19 ar
    33   18   20 1
    34   19   40 1
    35   20   21 2
    36   20   41 1
    37   21   22 1
    38   21   42 1
    39   22   23 1
    40   23   24 1
    41   23   43 1
    42   23   44 1
    43   24   25 2
    44   24   26 1
    45   27   28 1
    46   27   29 1
    47   27   30 1
@<TRIPOS>MOLECULE
CHEMBL331071
   62    65     0     0     0
SMALL
USER_CHARGES

@<TRIPOS>ATOM
      1 C1         -0.8597    0.9065    1.0588 C.3       1 <0>        -0.1530
      2 C2         -0.6303   -0.5593    0.6849 C.3       1 <0>        -0.1170
      3 C3          0.2966   -0.6367   -0.5299 C.3       1 <0>        -0.0727
      4 C4          0.5226   -2.0804   -0.8981 C.ar      1 <0>        -0.1234
      5 C5          1.6271   -2.7475   -0.4181 C.ar      1 <0>        -0.0403
      6 C6          1.8358   -4.0871   -0.7604 C.ar      1 <0>        -0.1991
      7 C7          0.9204   -4.7435   -1.5897 C.ar      1 <0>        -0.0208
      8 C8         -0.1811   -4.0690   -2.0651 C.ar      1 <0>        -0.2197
      9 C9         -0.3877   -2.7384   -1.7175 C.ar      1 <0>         0.1672
     10 O1         -1.4779   -2.0788   -2.1839 O.3       1 <0>        -0.3005
     11 C10        -2.3724   -2.8145   -3.0208 C.3       1 <0>         0.0604
     12 C11        -3.5323   -1.9117   -3.4455 C.3       1 <0>        -0.1199
     13 C12        -4.4901   -2.6994   -4.3416 C.3       1 <0>         0.0632
     14 O2         -5.5735   -1.8562   -4.7383 O.3       1 <0>        -0.3079
     15 C13        -6.5206   -2.4060   -5.5429 C.ar      1 <0>         0.1356
     16 C14        -6.4126   -3.7317   -5.9379 C.ar      1 <0>        -0.1912
     17 C15        -7.3769   -4.2884   -6.7553 C.ar      1 <0>        -0.0707
     18 C16        -8.4492   -3.5255   -7.1801 C.ar      1 <0>        -0.1319
     19 C17        -8.5589   -2.2043   -6.7884 C.ar      1 <0>        -0.0408
     20 C18        -7.6000   -1.6444   -5.9661 C.ar      1 <0>        -0.1184
     21 C19        -9.7285   -1.3757   -7.2536 C.3       1 <0>        -0.0338
     22 C20       -11.0506   -2.0741   -6.9679 C.2       1 <0>         0.5342
     23 O3        -11.4159   -2.3344   -5.8415 O.2       1 <0>        -0.4482
     24 N1        -11.7730   -2.3777   -8.0331 N.am      1 <0>        -0.6896
     25 C21       -11.3899   -2.1001   -9.2931 C.2       1 <0>         0.5628
     26 O4        -11.9832   -2.3390  -10.3270 O.2       1 <0>        -0.4134
     27 S1         -9.8059   -1.2981   -9.0917 S.3       1 <0>        -0.1362
     28 C22         3.0178   -4.8056   -0.2490 C.2       1 <0>         0.4424
     29 O5          3.2724   -5.9232   -0.6546 O.2       1 <0>        -0.4501
     30 C23         3.8928   -4.1672    0.7564 C.ar      1 <0>        -0.1556
     31 C24         3.3480   -3.3197    1.7235 C.ar      1 <0>        -0.0874
     32 C25         4.1704   -2.7276    2.6591 C.ar      1 <0>        -0.1277
     33 C26         5.5325   -2.9713    2.6408 C.ar      1 <0>        -0.0929
     34 C27         6.0790   -3.8100    1.6854 C.ar      1 <0>        -0.1264
     35 C28         5.2675   -4.4133    0.7473 C.ar      1 <0>        -0.0673
     36 H1          0.0951    1.3737    1.3000 H         1 <0>         0.0543
     37 H2         -1.3176    1.4284    0.2185 H         1 <0>         0.0552
     38 H3         -1.5201    0.9617    1.9242 H         1 <0>         0.0548
     39 H4         -0.1724   -1.0812    1.5252 H         1 <0>         0.0603
     40 H5         -1.5851   -1.0264    0.4437 H         1 <0>         0.0639
     41 H6         -0.1613   -0.1148   -1.3701 H         1 <0>         0.0784
     42 H7          1.2514   -0.1695   -0.2887 H         1 <0>         0.0730
     43 H8          2.3316   -2.2367    0.2217 H         1 <0>         0.1464
     44 H9          1.0780   -5.7780   -1.8569 H         1 <0>         0.1375
     45 H10        -0.8882   -4.5750   -2.7057 H         1 <0>         0.1355
     46 H11        -1.8393   -3.1616   -3.9059 H         1 <0>         0.0699
     47 H12        -2.7616   -3.6719   -2.4716 H         1 <0>         0.0699
     48 H13        -4.0655   -1.5646   -2.5604 H         1 <0>         0.0892
     49 H14        -3.1432   -1.0544   -3.9948 H         1 <0>         0.0892
     50 H15        -3.9570   -3.0465   -5.2267 H         1 <0>         0.0691
     51 H16        -4.8793   -3.5568   -3.7924 H         1 <0>         0.0688
     52 H17        -5.5751   -4.3278   -5.6067 H         1 <0>         0.1337
     53 H18        -7.2931   -5.3201   -7.0633 H         1 <0>         0.1339
     54 H19        -9.2021   -3.9626   -7.8193 H         1 <0>         0.1210
     55 H20        -7.6885   -0.6135   -5.6567 H         1 <0>         0.1407
     56 H21        -9.7032   -0.3781   -6.8152 H         1 <0>         0.1697
     57 H22       -12.6236   -2.8243   -7.8993 H         1 <0>         0.4204
     58 H23         2.2852   -3.1280    1.7384 H         1 <0>         0.1349
     59 H24         3.7504   -2.0719    3.4076 H         1 <0>         0.1306
     60 H25         6.1720   -2.5045    3.3754 H         1 <0>         0.1284
     61 H26         7.1429   -3.9957    1.6766 H         1 <0>         0.1304
     62 H27         5.6948   -5.0712    0.0050 H         1 <0>         0.1310
@<TRIPOS>BOND
     1    1    2 1
     2    1   36 1
     3    1   37 1
     4    1   38 1
     5    2    3 1
     6    2   39 1
     7    2   40 1
     8    3    4 1
     9    3   41 1
    10    3   42 1
    11    4    9 ar
    12    4    5 ar
    13    5    6 ar
    14    5   43 1
    15    6    7 ar
    16    6   28 1
    17    7    8 ar
    18    7   44 1
    19    8    9 ar
    20    8   45 1
    21    9   10 1
    22   10   11 1
    23   11   12 1
    24   11   46 1
    25   11   47 1
    26   12   13 1
    27   12   48 1
    28   12   49 1
    29   13   14 1
    30   13   50 1
    31   13   51 1
    32   14   15 1
    33   15   20 ar
    34   15   16 ar
    35   16   17 ar
    36   16   52 1
    37   17   18 ar
    38   17   53 1
    39   18   19 ar
    40   18   54 1
    41   19   20 ar
    42   19   21 1
    43   20   55 1
    44   21   27 1
    45   21   22 1
    46   21   56 1
    47   22   23 2
    48   22   24 am
    49   24   25 am
    50   24   57 1
    51   25   26 2
    52   25   27 1
    53   28   29 2
    54   28   30 1
    55   30   35 ar
    56   30   31 ar
    57   31   32 ar
    58   31   58 1
    59   32   33 ar
    60   32   59 1
    61   33   34 ar
    62   33   60 1
    63   34   35 ar
    64   34   61 1
    65   35   62 1
@<TRIPOS>MOLECULE
CHEMBL331071__1
   62    65     0     0     0
SMALL
USER_CHARGES

@<TRIPOS>ATOM
      1 C1         -0.8597    0.9065    1.0588 C.3       1 <0>        -0.1530
      2 C2         -0.6303   -0.5593    0.6849 C.3       1 <0>        -0.1170
      3 C3          0.2966   -0.6367   -0.5299 C.3       1 <0>        -0.0727
      4 C4          0.5226   -2.0804   -0.8981 C.ar      1 <0>        -0.1234
      5 C5          1.6271   -2.7475   -0.4181 C.ar      1 <0>        -0.0403
      6 C6          1.8358   -4.0871   -0.7604 C.ar      1 <0>        -0.1991
      7 C7          0.9204   -4.7435   -1.5897 C.ar      1 <0>        -0.0208
      8 C8         -0.1811   -4.0690   -2.0651 C.ar      1 <0>        -0.2197
      9 C9         -0.3877   -2.7384   -1.7175 C.ar      1 <0>         0.1672
     10 O1         -1.4779   -2.0788   -2.1839 O.3       1 <0>        -0.3005
     11 C10        -2.3724   -2.8145   -3.0208 C.3       1 <0>         0.0604
     12 C11        -3.5323   -1.9117   -3.4455 C.3       1 <0>        -0.1199
     13 C12        -4.4901   -2.6994   -4.3416 C.3       1 <0>         0.0632
     14 O2         -5.5735   -1.8562   -4.7383 O.3       1 <0>        -0.3079
     15 C13        -6.5206   -2.4060   -5.5429 C.ar      1 <0>         0.1356
     16 C14        -6.4126   -3.7317   -5.9379 C.ar      1 <0>        -0.1913
     17 C15        -7.3769   -4.2884   -6.7553 C.ar      1 <0>        -0.0706
     18 C16        -8.4492   -3.5255   -7.1801 C.ar      1 <0>        -0.1319
     19 C17        -8.5589   -2.2043   -6.7884 C.ar      1 <0>        -0.0407
     20 C18        -7.6000   -1.6444   -5.9661 C.ar      1 <0>        -0.1185
     21 C19        -9.7285   -1.3757   -7.2536 C.3       1 <0>        -0.0337
     22 C20        -9.8898   -1.4447   -8.7657 C.2       1 <0>         0.5343
     23 O3         -9.0359   -1.0441   -9.5274 O.2       1 <0>        -0.4481
     24 N1        -11.0253   -1.9723   -9.1911 N.am      1 <0>        -0.6896
     25 C21       -11.9882   -2.4245   -8.3665 C.2       1 <0>         0.5629
     26 O4        -13.0570   -2.9219   -8.6635 O.2       1 <0>        -0.4134
     27 S1        -11.3287   -2.1237   -6.7332 S.3       1 <0>        -0.1365
     28 C22         3.0178   -4.8056   -0.2490 C.2       1 <0>         0.4424
     29 O5          3.2724   -5.9232   -0.6546 O.2       1 <0>        -0.4501
     30 C23         3.8928   -4.1672    0.7564 C.ar      1 <0>        -0.1556
     31 C24         3.3480   -3.3197    1.7235 C.ar      1 <0>        -0.0874
     32 C25         4.1704   -2.7276    2.6591 C.ar      1 <0>        -0.1276
     33 C26         5.5325   -2.9713    2.6408 C.ar      1 <0>        -0.0929
     34 C27         6.0790   -3.8100    1.6854 C.ar      1 <0>        -0.1264
     35 C28         5.2675   -4.4133    0.7473 C.ar      1 <0>        -0.0673
     36 H1          0.0951    1.3737    1.3000 H         1 <0>         0.0543
     37 H2         -1.3176    1.4284    0.2185 H         1 <0>         0.0552
     38 H3         -1.5201    0.9617    1.9242 H         1 <0>         0.0548
     39 H4         -0.1724   -1.0812    1.5252 H         1 <0>         0.0603
     40 H5         -1.5851   -1.0264    0.4437 H         1 <0>         0.0639
     41 H6         -0.1613   -0.1148   -1.3701 H         1 <0>         0.0784
     42 H7          1.2514   -0.1695   -0.2887 H         1 <0>         0.0730
     43 H8          2.3316   -2.2367    0.2217 H         1 <0>         0.1464
     44 H9          1.0780   -5.7780   -1.8569 H         1 <0>         0.1375
     45 H10        -0.8882   -4.5750   -2.7057 H         1 <0>         0.1355
     46 H11        -1.8393   -3.1616   -3.9059 H         1 <0>         0.0698
     47 H12        -2.7616   -3.6719   -2.4716 H         1 <0>         0.0700
     48 H13        -4.0655   -1.5646   -2.5604 H         1 <0>         0.0892
     49 H14        -3.1432   -1.0544   -3.9948 H         1 <0>         0.0892
     50 H15        -3.9570   -3.0465   -5.2267 H         1 <0>         0.0689
     51 H16        -4.8793   -3.5568   -3.7924 H         1 <0>         0.0690
     52 H17        -5.5751   -4.3278   -5.6067 H         1 <0>         0.1338
     53 H18        -7.2931   -5.3201   -7.0633 H         1 <0>         0.1339
     54 H19        -9.2021   -3.9626   -7.8193 H         1 <0>         0.1210
     55 H20        -7.6885   -0.6135   -5.6567 H         1 <0>         0.1407
     56 H21        -9.6422   -0.3449   -6.9098 H         1 <0>         0.1697
     57 H22       -11.1721   -2.0366  -10.1477 H         1 <0>         0.4204
     58 H23         2.2852   -3.1280    1.7384 H         1 <0>         0.1349
     59 H24         3.7504   -2.0719    3.4076 H         1 <0>         0.1306
     60 H25         6.1720   -2.5045    3.3754 H         1 <0>         0.1284
     61 H26         7.1429   -3.9957    1.6766 H         1 <0>         0.1304
     62 H27         5.6948   -5.0712    0.0050 H         1 <0>         0.1310
@<TRIPOS>BOND
     1    1    2 1
     2    1   36 1
     3    1   37 1
     4    1   38 1
     5    2    3 1
     6    2   39 1
     7    2   40 1
     8    3    4 1
     9    3   41 1
    10    3   42 1
    11    4    9 ar
    12    4    5 ar
    13    5    6 ar
    14    5   43 1
    15    6    7 ar
    16    6   28 1
    17    7    8 ar
    18    7   44 1
    19    8    9 ar
    20    8   45 1
    21    9   10 1
    22   10   11 1
    23   11   12 1
    24   11   46 1
    25   11   47 1
    26   12   13 1
    27   12   48 1
    28   12   49 1
    29   13   14 1
    30   13   50 1
    31   13   51 1
    32   14   15 1
    33   15   20 ar
    34   15   16 ar
    35   16   17 ar
    36   16   52 1
    37   17   18 ar
    38   17   53 1
    39   18   19 ar
    40   18   54 1
    41   19   20 ar
    42   19   21 1
    43   20   55 1
    44   21   27 1
    45   21   22 1
    46   21   56 1
    47   22   23 2
    48   22   24 am
    49   24   25 am
    50   24   57 1
    51   25   26 2
    52   25   27 1
    53   28   29 2
    54   28   30 1
    55   30   35 ar
    56   30   31 ar
    57   31   32 ar
    58   31   58 1
    59   32   33 ar
    60   32   59 1
    61   33   34 ar
    62   33   60 1
    63   34   35 ar
    64   34   61 1
    65   35   62 1
@<TRIPOS>MOLECULE
CHEMBL501979
   65    68     0     0     0
SMALL
USER_CHARGES

@<TRIPOS>ATOM
      1 C1          3.8097    0.3140   -4.2922 C.3       1 <0>        -0.1060
      2 C2          3.4089   -1.0607   -3.8226 C.ar      1 <0>        -0.1107
      3 C3          2.0859   -1.3335   -3.5353 C.ar      1 <0>        -0.0286
      4 C4          1.7167   -2.6009   -3.1029 C.ar      1 <0>        -0.1434
      5 C5          2.6792   -3.5929   -2.9599 C.ar      1 <0>        -0.0779
      6 C6          4.0011   -3.3179   -3.2477 C.ar      1 <0>        -0.2045
      7 C7          4.3680   -2.0532   -3.6846 C.ar      1 <0>         0.1441
      8 O1          5.6697   -1.7849   -3.9728 O.3       1 <0>        -0.2755
      9 C8          6.6041   -2.8535   -3.8084 C.3       1 <0>        -0.0065
     10 C9          7.9855   -2.3731   -4.1717 C.2       1 <0>         0.5015
     11 O2          8.1542   -1.2224   -4.5376 O.co2     1 <0>        -0.6693
     12 O3          8.9345   -3.1353   -4.0999 O.co2     1 <0>        -0.6880
     13 S1          0.0293   -2.9503   -2.7354 S.3       1 <0>         0.0039
     14 C10         0.0157   -4.6796   -2.3978 C.ar      1 <0>        -0.1561
     15 C11        -0.0729   -5.1325   -1.0887 C.ar      1 <0>        -0.0301
     16 C12        -0.0833   -6.4893   -0.8268 C.ar      1 <0>        -0.1390
     17 C13        -0.0052   -7.3982   -1.8659 C.ar      1 <0>        -0.0359
     18 C14         0.0838   -6.9546   -3.1728 C.ar      1 <0>        -0.1935
     19 C15         0.0881   -5.5966   -3.4448 C.ar      1 <0>         0.1734
     20 O4          0.1694   -5.1591   -4.7299 O.3       1 <0>        -0.2832
     21 C16         0.2406   -6.1558   -5.7514 C.3       1 <0>         0.0970
     22 C17         0.3249   -5.4882   -7.0998 C.ar      1 <0>        -0.0511
     23 C18        -0.8242   -5.1744   -7.8094 C.ar      1 <0>        -0.1485
     24 C19        -0.7078   -4.5624   -9.0431 C.ar      1 <0>         0.0959
     25 N1          0.4777   -4.2777   -9.5456 N.ar      1 <0>        -0.4764
     26 C20         1.5913   -4.5615   -8.8990 C.ar      1 <0>         0.1015
     27 C21         1.5531   -5.1679   -7.6577 C.ar      1 <0>        -0.1432
     28 C22        -0.0165   -8.8765   -1.5735 C.3       1 <0>         0.0963
     29 O5         -1.3640   -9.3521   -1.5749 O.3       1 <0>        -0.2995
     30 C23        -1.5518  -10.6748   -1.3258 C.ar      1 <0>         0.1652
     31 C24        -0.4618  -11.4970   -1.0794 C.ar      1 <0>        -0.2123
     32 C25        -0.6554  -12.8411   -0.8260 C.ar      1 <0>        -0.0266
     33 C26        -1.9340  -13.3673   -0.8183 C.ar      1 <0>        -0.2258
     34 C27        -3.0218  -12.5501   -1.0641 C.ar      1 <0>        -0.0297
     35 C28        -2.8341  -11.2041   -1.3119 C.ar      1 <0>        -0.1526
     36 C29        -2.1421  -14.8341   -0.5421 C.3       1 <0>         0.5122
     37 F1         -2.3045  -15.0311    0.8334 F         1 <0>        -0.1775
     38 F2         -3.2857  -15.2776   -1.2149 F         1 <0>        -0.1780
     39 F3         -1.0294  -15.5552   -0.9884 F         1 <0>        -0.1780
     40 C30         1.0433   -0.2565   -3.6904 C.3       1 <0>        -0.1149
     41 H1          3.7495    0.3584   -5.3796 H         1 <0>         0.0670
     42 H2          3.1376    1.0557   -3.8605 H         1 <0>         0.0638
     43 H3          4.8318    0.5223   -3.9761 H         1 <0>         0.0781
     44 H4          2.3933   -4.5785   -2.6235 H         1 <0>         0.1130
     45 H5          4.7494   -4.0886   -3.1363 H         1 <0>         0.1277
     46 H6          6.5965   -3.1863   -2.7705 H         1 <0>         0.0578
     47 H7          6.3253   -3.6831   -4.4580 H         1 <0>         0.0571
     48 H8         -0.1333   -4.4248   -0.2752 H         1 <0>         0.1443
     49 H9         -0.1523   -6.8407    0.1921 H         1 <0>         0.1332
     50 H10         0.1454   -7.6674   -3.9818 H         1 <0>         0.1344
     51 H11         1.1254   -6.7731   -5.5957 H         1 <0>         0.0768
     52 H12        -0.6508   -6.7818   -5.7109 H         1 <0>         0.0776
     53 H13        -1.7979   -5.4057   -7.4034 H         1 <0>         0.1362
     54 H14        -1.5980   -4.3147   -9.6021 H         1 <0>         0.1583
     55 H15         2.5442   -4.3135   -9.3428 H         1 <0>         0.1612
     56 H16         2.4685   -5.3934   -7.1308 H         1 <0>         0.1379
     57 H17         0.5552   -9.4026   -2.3380 H         1 <0>         0.0784
     58 H18         0.4315   -9.0571   -0.5963 H         1 <0>         0.0819
     59 H19         0.5371  -11.0866   -1.0859 H         1 <0>         0.1413
     60 H20         0.1928  -13.4816   -0.6341 H         1 <0>         0.1395
     61 H21        -4.0196  -12.9635   -1.0579 H         1 <0>         0.1431
     62 H22        -3.6845  -10.5653   -1.4994 H         1 <0>         0.1442
     63 H23         0.6396   -0.2847   -4.7024 H         1 <0>         0.0746
     64 H24         0.2392   -0.4234   -2.9737 H         1 <0>         0.0671
     65 H25         1.4970    0.7175   -3.5071 H         1 <0>         0.0765
@<TRIPOS>BOND
     1    1    2 1
     2    1   41 1
     3    1   42 1
     4    1   43 1
     5    2    7 ar
     6    2    3 ar
     7    3    4 ar
     8    3   40 1
     9    4    5 ar
    10    4   13 1
    11    5    6 ar
    12    5   44 1
    13    6    7 ar
    14    6   45 1
    15    7    8 1
    16    8    9 1
    17    9   10 1
    18    9   46 1
    19    9   47 1
    20   10   11 2
    21   10   12 1
    22   13   14 1
    23   14   19 ar
    24   14   15 ar
    25   15   16 ar
    26   15   48 1
    27   16   17 ar
    28   16   49 1
    29   17   18 ar
    30   17   28 1
    31   18   19 ar
    32   18   50 1
    33   19   20 1
    34   20   21 1
    35   21   22 1
    36   21   51 1
    37   21   52 1
    38   22   27 ar
    39   22   23 ar
    40   23   24 ar
    41   23   53 1
    42   24   25 ar
    43   24   54 1
    44   25   26 ar
    45   26   27 ar
    46   26   55 1
    47   27   56 1
    48   28   29 1
    49   28   57 1
    50   28   58 1
    51   29   30 1
    52   30   35 ar
    53   30   31 ar
    54   31   32 ar
    55   31   59 1
    56   32   33 ar
    57   32   60 1
    58   33   34 ar
    59   33   36 1
    60   34   35 ar
    61   34   61 1
    62   35   62 1
    63   36   37 1
    64   36   38 1
    65   36   39 1
    66   40   63 1
    67   40   64 1
    68   40   65 1
@<TRIPOS>MOLECULE
CHEMBL40614
   47    49     0     0     0
SMALL
USER_CHARGES

@<TRIPOS>ATOM
      1 C1         -0.0184    1.5028    0.0103 C.3       1 <0>        -0.1189
      2 C2          0.0021   -0.0041    0.0020 C.ar      1 <0>        -0.0417
      3 C3          0.0057   -0.6870   -1.1930 C.ar      1 <0>        -0.1468
      4 C4          0.0245   -2.0772   -1.2021 C.ar      1 <0>         0.1136
      5 C5          0.0393   -2.7853   -0.0051 C.ar      1 <0>        -0.2095
      6 C6          0.0353   -2.1126    1.1952 C.ar      1 <0>        -0.0760
      7 C7          0.0232   -0.7119    1.2101 C.ar      1 <0>        -0.0682
      8 C8          0.0259    0.0115    2.4881 C.2       1 <0>        -0.1146
      9 C9          0.0463   -0.6750    3.6541 C.2       1 <0>        -0.1681
     10 C10         0.0490    0.0213    4.8843 C.2       1 <0>         0.4999
     11 O1          0.0328    1.2464    4.8948 O.co2     1 <0>        -0.6954
     12 O2          0.0675   -0.6003    5.9400 O.co2     1 <0>        -0.6999
     13 O3          0.0281   -2.7456   -2.3832 O.3       1 <0>        -0.3105
     14 C11         0.0477   -4.1731   -2.3206 C.3       1 <0>         0.1517
     15 C12         0.0488   -4.7371   -3.7181 C.2       1 <0>        -0.1740
     16 C13         1.0957   -5.0531   -4.5260 C.2       1 <0>         0.0848
     17 N1          0.8733   -5.5394   -5.7244 N.2       1 <0>        -0.4851
     18 C14        -0.3597   -5.7321   -6.1711 C.2       1 <0>         0.1367
     19 S1         -1.3265   -5.1838   -4.7705 S.3       1 <0>         0.0517
     20 C15        -0.8134   -6.2631   -7.4745 C.ar      1 <0>         0.0224
     21 C16        -2.1770   -6.3800   -7.7472 C.ar      1 <0>        -0.0946
     22 C17        -2.5937   -6.8763   -8.9651 C.ar      1 <0>        -0.0658
     23 C18        -1.6631   -7.2576   -9.9152 C.ar      1 <0>        -0.1701
     24 C19        -0.3097   -7.1442   -9.6511 C.ar      1 <0>        -0.0685
     25 C20         0.1201   -6.6441   -8.4392 C.ar      1 <0>        -0.0729
     26 C21        -2.1254   -7.7993  -11.2433 C.3       1 <0>         0.5087
     27 F1         -2.2745   -6.7449  -12.1506 F         1 <0>        -0.1741
     28 F2         -1.1784   -8.7053  -11.7326 F         1 <0>        -0.1751
     29 F3         -3.3527   -8.4506  -11.0795 F         1 <0>        -0.1752
     30 C22         2.5090   -4.8447   -4.0463 C.3       1 <0>        -0.0899
     31 H1          1.0042    1.8801    0.0026 H         1 <0>         0.0742
     32 H2         -0.5455    1.8639   -0.8728 H         1 <0>         0.0648
     33 H3         -0.5286    1.8543    0.9071 H         1 <0>         0.0796
     34 H4         -0.0064   -0.1420   -2.1253 H         1 <0>         0.1275
     35 H5          0.0535   -3.8651   -0.0178 H         1 <0>         0.1243
     36 H6          0.0461   -2.6634    2.1241 H         1 <0>         0.1312
     37 H7          0.0117    1.0913    2.4973 H         1 <0>         0.1314
     38 H8          0.0606   -1.7549    3.6449 H         1 <0>         0.0984
     39 H9          0.9447   -4.5015   -1.7956 H         1 <0>         0.0926
     40 H10        -0.8351   -4.5256   -1.7873 H         1 <0>         0.0815
     41 H11        -2.9045   -6.0830   -7.0062 H         1 <0>         0.1408
     42 H12        -3.6488   -6.9676   -9.1773 H         1 <0>         0.1459
     43 H13         0.4118   -7.4436  -10.3968 H         1 <0>         0.1454
     44 H14         1.1768   -6.5516   -8.2360 H         1 <0>         0.1496
     45 H15         2.8595   -5.7472   -3.5454 H         1 <0>         0.0787
     46 H16         3.1537   -4.6283   -4.8982 H         1 <0>         0.0793
     47 H17         2.5361   -4.0080   -3.3483 H         1 <0>         0.0800
@<TRIPOS>BOND
     1    1    2 1
     2    1   31 1
     3    1   32 1
     4    1   33 1
     5    2    7 ar
     6    2    3 ar
     7    3    4 ar
     8    3   34 1
     9    4    5 ar
    10    4   13 1
    11    5    6 ar
    12    5   35 1
    13    6    7 ar
    14    6   36 1
    15    7    8 1
    16    8    9 2
    17    8   37 1
    18    9   10 1
    19    9   38 1
    20   10   11 2
    21   10   12 1
    22   13   14 1
    23   14   15 1
    24   14   39 1
    25   14   40 1
    26   15   19 1
    27   15   16 2
    28   16   17 1
    29   16   30 1
    30   17   18 2
    31   18   19 1
    32   18   20 1
    33   20   25 ar
    34   20   21 ar
    35   21   22 ar
    36   21   41 1
    37   22   23 ar
    38   22   42 1
    39   23   24 ar
    40   23   26 1
    41   24   25 ar
    42   24   43 1
    43   25   44 1
    44   26   27 1
    45   26   28 1
    46   26   29 1
    47   30   45 1
    48   30   46 1
    49   30   47 1
@<TRIPOS>MOLECULE
CHEMBL1075682
   69    73     0     0     0
SMALL
USER_CHARGES

@<TRIPOS>ATOM
      1 C1          0.1019    1.4232    0.2826 C.3       1 <0>        -0.1054
      2 C2          0.0162   -0.0795    0.2074 C.ar      1 <0>        -0.0850
      3 C3          0.1284   -0.7176   -1.0127 C.ar      1 <0>        -0.1082
      4 C4          0.0501   -2.1004   -1.0818 C.ar      1 <0>         0.0754
      5 C5         -0.1411   -2.8429    0.0743 C.ar      1 <0>        -0.1696
      6 C6         -0.2533   -2.2050    1.2941 C.ar      1 <0>        -0.1754
      7 C7         -0.1696   -0.8220    1.3638 C.ar      1 <0>         0.1104
      8 O1         -0.2745   -0.1943    2.5655 O.3       1 <0>        -0.2774
      9 C8         -0.4648   -1.0214    3.7151 C.3       1 <0>        -0.0069
     10 C9         -0.5582   -0.1570    4.9460 C.2       1 <0>         0.5012
     11 O2         -0.4700    1.0551    4.8478 O.co2     1 <0>        -0.6704
     12 O3         -0.7220   -0.6696    6.0400 O.co2     1 <0>        -0.6883
     13 O4          0.1601   -2.7286   -2.2828 O.3       1 <0>        -0.3104
     14 C10         0.0700   -4.1547   -2.2798 C.3       1 <0>         0.1518
     15 C11         0.2130   -4.6701   -3.6886 C.2       1 <0>         0.0472
     16 N1          1.3084   -5.0149   -4.3135 N.2       1 <0>        -0.4823
     17 C12         1.2860   -5.4547   -5.5617 C.2       1 <0>         0.1293
     18 C13         0.0295   -5.5249   -6.1590 C.2       1 <0>        -0.1662
     19 S1         -1.0004   -4.9429   -4.8215 S.3       1 <0>         0.1704
     20 C14        -0.3465   -5.9640   -7.5176 C.ar      1 <0>        -0.0158
     21 C15         0.1686   -7.1539   -8.0367 C.ar      1 <0>        -0.0492
     22 C16        -0.1851   -7.5601   -9.3057 C.ar      1 <0>        -0.1183
     23 C17        -1.0521   -6.7880  -10.0675 C.ar      1 <0>         0.1129
     24 C18        -1.5666   -5.6043   -9.5554 C.ar      1 <0>        -0.1867
     25 C19        -1.2228   -5.1935   -8.2852 C.ar      1 <0>        -0.0585
     26 O5         -1.3979   -7.1919  -11.3182 O.3       1 <0>        -0.3092
     27 C20        -2.2937   -6.3505  -12.0472 C.3       1 <0>         0.6037
     28 F1         -1.7194   -5.0848  -12.2063 F         1 <0>        -0.1637
     29 F2         -2.5413   -6.9116  -13.3046 F         1 <0>        -0.1303
     30 F3         -3.4975   -6.2314  -11.3445 F         1 <0>        -0.1633
     31 C21         2.5209   -5.8475   -6.2793 C.ar      1 <0>        -0.0608
     32 C22         2.7166   -5.4514   -7.6024 C.ar      1 <0>        -0.0508
     33 C23         3.8675   -5.8190   -8.2674 C.ar      1 <0>        -0.2088
     34 C24         4.8304   -6.5827   -7.6217 C.ar      1 <0>         0.1426
     35 C25         4.6387   -6.9791   -6.3051 C.ar      1 <0>        -0.1543
     36 C26         3.4934   -6.6096   -5.6318 C.ar      1 <0>        -0.0432
     37 O6          5.9631   -6.9435   -8.2803 O.3       1 <0>        -0.3053
     38 C27         6.0414   -6.6094   -9.6674 C.3       1 <0>         0.0774
     39 C28         6.6320   -5.1893   -9.8505 C.3       1 <0>        -0.1491
     40 C29         7.1978   -5.2375  -11.2915 C.3       1 <0>        -0.1242
     41 C30         7.7801   -6.6601  -11.4219 C.3       1 <0>        -0.1226
     42 C31         7.0449   -7.5324  -10.3893 C.3       1 <0>        -0.1204
     43 H1          1.1409    1.7213    0.4231 H         1 <0>         0.0695
     44 H2         -0.2782    1.8555   -0.6431 H         1 <0>         0.0612
     45 H3         -0.4951    1.7797    1.1220 H         1 <0>         0.0809
     46 H4          0.2769   -0.1395   -1.9128 H         1 <0>         0.1324
     47 H5         -0.2025   -3.9198    0.0205 H         1 <0>         0.1250
     48 H6         -0.4028   -2.7830    2.1940 H         1 <0>         0.1323
     49 H7         -1.3855   -1.5939    3.6024 H         1 <0>         0.0579
     50 H8          0.3783   -1.7051    3.8144 H         1 <0>         0.0580
     51 H9          0.8654   -4.5677   -1.6593 H         1 <0>         0.0963
     52 H10        -0.8975   -4.4568   -1.8788 H         1 <0>         0.0894
     53 H11         0.8433   -7.7548   -7.4450 H         1 <0>         0.1421
     54 H12         0.2130   -8.4799   -9.7080 H         1 <0>         0.1446
     55 H13        -2.2407   -5.0069  -10.1514 H         1 <0>         0.1391
     56 H14        -1.6269   -4.2749   -7.8860 H         1 <0>         0.1382
     57 H15         1.9677   -4.8578   -8.1056 H         1 <0>         0.1248
     58 H16         4.0197   -5.5126   -9.2918 H         1 <0>         0.1315
     59 H17         5.3896   -7.5738   -5.8061 H         1 <0>         0.1339
     60 H18         3.3471   -6.9143   -4.6060 H         1 <0>         0.1334
     61 H19         5.0576   -6.6783  -10.1316 H         1 <0>         0.0812
     62 H20         5.8518   -4.4327   -9.7669 H         1 <0>         0.0727
     63 H21         7.4281   -5.0060   -9.1288 H         1 <0>         0.0811
     64 H22         6.4014   -5.0831  -12.0194 H         1 <0>         0.0688
     65 H23         7.9820   -4.4912  -11.4186 H         1 <0>         0.0720
     66 H24         7.6058   -7.0443  -12.4269 H         1 <0>         0.0687
     67 H25         8.8486   -6.6474  -11.2067 H         1 <0>         0.0694
     68 H26         7.7565   -7.9429   -9.6730 H         1 <0>         0.0802
     69 H27         6.5137   -8.3398  -10.8932 H         1 <0>         0.0735
@<TRIPOS>BOND
     1    1    2 1
     2    1   43 1
     3    1   44 1
     4    1   45 1
     5    2    7 ar
     6    2    3 ar
     7    3    4 ar
     8    3   46 1
     9    4    5 ar
    10    4   13 1
    11    5    6 ar
    12    5   47 1
    13    6    7 ar
    14    6   48 1
    15    7    8 1
    16    8    9 1
    17    9   10 1
    18    9   49 1
    19    9   50 1
    20   10   11 2
    21   10   12 1
    22   13   14 1
    23   14   15 1
    24   14   51 1
    25   14   52 1
    26   15   19 1
    27   15   16 2
    28   16   17 1
    29   17   18 2
    30   17   31 1
    31   18   19 1
    32   18   20 1
    33   20   25 ar
    34   20   21 ar
    35   21   22 ar
    36   21   53 1
    37   22   23 ar
    38   22   54 1
    39   23   24 ar
    40   23   26 1
    41   24   25 ar
    42   24   55 1
    43   25   56 1
    44   26   27 1
    45   27   28 1
    46   27   29 1
    47   27   30 1
    48   31   36 ar
    49   31   32 ar
    50   32   33 ar
    51   32   57 1
    52   33   34 ar
    53   33   58 1
    54   34   35 ar
    55   34   37 1
    56   35   36 ar
    57   35   59 1
    58   36   60 1
    59   37   38 1
    60   38   42 1
    61   38   39 1
    62   38   61 1
    63   39   40 1
    64   39   62 1
    65   39   63 1
    66   40   41 1
    67   40   64 1
    68   40   65 1
    69   41   42 1
    70   41   66 1
    71   41   67 1
    72   42   68 1
    73   42   69 1
@<TRIPOS>MOLECULE
CHEMBL221755
   49    51     0     0     0
SMALL
USER_CHARGES

@<TRIPOS>ATOM
      1 C1         -0.0184    1.5028    0.0103 C.3       1 <0>        -0.1049
      2 C2          0.0021   -0.0041    0.0020 C.ar      1 <0>        -0.1228
      3 C3          0.0057   -0.6889   -1.1980 C.ar      1 <0>        -0.0775
      4 C4          0.0240   -2.0712   -1.2062 C.ar      1 <0>        -0.1422
      5 C5          0.0391   -2.7720   -0.0142 C.ar      1 <0>        -0.0783
      6 C6          0.0359   -2.0920    1.1881 C.ar      1 <0>        -0.2121
      7 C7          0.0230   -0.7046    1.1991 C.ar      1 <0>         0.1397
      8 O1          0.0255   -0.0332    2.3806 O.3       1 <0>        -0.2776
      9 C8          0.0475   -0.8196    3.5736 C.3       1 <0>        -0.0072
     10 C9          0.0471    0.0902    4.7750 C.2       1 <0>         0.5012
     11 O2          0.0296    1.2998    4.6237 O.co2     1 <0>        -0.6704
     12 O3          0.0642   -0.3835    5.8983 O.co2     1 <0>        -0.6877
     13 C10         0.0269   -2.8156   -2.5165 C.3       1 <0>        -0.0610
     14 C11         1.4703   -3.0485   -2.9676 C.3       1 <0>        -0.0302
     15 C12         1.4732   -3.7929   -4.2779 C.2       1 <0>        -0.1415
     16 C13         1.4658   -3.3121   -5.5496 C.2       1 <0>         0.0469
     17 N1          1.4707   -4.1450   -6.5636 N.2       1 <0>        -0.4771
     18 C14         1.4829   -5.4573   -6.3764 C.2       1 <0>         0.1199
     19 S1          1.4955   -5.5536   -4.5910 S.3       1 <0>         0.0220
     20 C15         1.4901   -6.5477   -7.3752 C.ar      1 <0>         0.0291
     21 C16         1.4968   -7.8795   -6.9585 C.ar      1 <0>        -0.0981
     22 C17         1.5036   -8.8922   -7.8954 C.ar      1 <0>        -0.0652
     23 C18         1.5038   -8.5896   -9.2455 C.ar      1 <0>        -0.1738
     24 C19         1.4973   -7.2713   -9.6651 C.ar      1 <0>        -0.0678
     25 C20         1.4846   -6.2493   -8.7384 C.ar      1 <0>        -0.0771
     26 C21         1.5118   -9.7009  -10.2633 C.3       1 <0>         0.5088
     27 F1          0.1953  -10.0524  -10.5803 F         1 <0>        -0.1747
     28 F2          2.1705   -9.2695  -11.4197 F         1 <0>        -0.1755
     29 F3          2.1769  -10.8125   -9.7350 F         1 <0>        -0.1756
     30 C22         1.4514   -1.8252   -5.7942 C.3       1 <0>        -0.0845
     31 H1          1.0042    1.8801    0.0026 H         1 <0>         0.0654
     32 H2         -0.5455    1.8639   -0.8728 H         1 <0>         0.0583
     33 H3         -0.5286    1.8543    0.9071 H         1 <0>         0.0770
     34 H4         -0.0060   -0.1439   -2.1303 H         1 <0>         0.1227
     35 H5          0.0529   -3.8519   -0.0233 H         1 <0>         0.1174
     36 H6          0.0477   -2.6398    2.1188 H         1 <0>         0.1277
     37 H7         -0.8338   -1.4603    3.6027 H         1 <0>         0.0586
     38 H8          0.9459   -1.4367    3.5855 H         1 <0>         0.0587
     39 H9         -0.4736   -3.7756   -2.3901 H         1 <0>         0.0702
     40 H10        -0.4987   -2.2282   -3.2694 H         1 <0>         0.0730
     41 H11         1.9708   -2.0885   -3.0940 H         1 <0>         0.0965
     42 H12         1.9959   -3.6359   -2.2147 H         1 <0>         0.0857
     43 H13         1.4969   -8.1169   -5.9049 H         1 <0>         0.1398
     44 H14         1.5090   -9.9233   -7.5743 H         1 <0>         0.1447
     45 H15         1.4975   -7.0417  -10.7204 H         1 <0>         0.1442
     46 H16         1.4746   -5.2206   -9.0672 H         1 <0>         0.1483
     47 H17         2.4755   -1.4571   -5.8556 H         1 <0>         0.0747
     48 H18         0.9334   -1.6159   -6.7302 H         1 <0>         0.0746
     49 H19         0.9348   -1.3269   -4.9738 H         1 <0>         0.0776
@<TRIPOS>BOND
     1    1    2 1
     2    1   31 1
     3    1   32 1
     4    1   33 1
     5    2    7 ar
     6    2    3 ar
     7    3    4 ar
     8    3   34 1
     9    4    5 ar
    10    4   13 1
    11    5    6 ar
    12    5   35 1
    13    6    7 ar
    14    6   36 1
    15    7    8 1
    16    8    9 1
    17    9   10 1
    18    9   37 1
    19    9   38 1
    20   10   11 2
    21   10   12 1
    22   13   14 1
    23   13   39 1
    24   13   40 1
    25   14   15 1
    26   14   41 1
    27   14   42 1
    28   15   19 1
    29   15   16 2
    30   16   17 1
    31   16   30 1
    32   17   18 2
    33   18   19 1
    34   18   20 1
    35   20   25 ar
    36   20   21 ar
    37   21   22 ar
    38   21   43 1
    39   22   23 ar
    40   22   44 1
    41   23   24 ar
    42   23   26 1
    43   24   25 ar
    44   24   45 1
    45   25   46 1
    46   26   27 1
    47   26   28 1
    48   26   29 1
    49   30   47 1
    50   30   48 1
    51   30   49 1
@<TRIPOS>MOLECULE
CHEMBL1075683
   69    73     0     0     0
SMALL
USER_CHARGES

@<TRIPOS>ATOM
      1 C1         -0.2618    1.5541   -0.0816 C.3       1 <0>        -0.1055
      2 C2         -0.3320    0.0490   -0.1070 C.ar      1 <0>        -0.0850
      3 C3         -0.1260   -0.6323   -1.2911 C.ar      1 <0>        -0.1071
      4 C4         -0.1902   -2.0174   -1.3143 C.ar      1 <0>         0.0752
      5 C5         -0.4611   -2.7188   -0.1486 C.ar      1 <0>        -0.1691
      6 C6         -0.6670   -2.0378    1.0351 C.ar      1 <0>        -0.1753
      7 C7         -0.5977   -0.6525    1.0594 C.ar      1 <0>         0.1113
      8 O1         -0.7948    0.0178    2.2260 O.3       1 <0>        -0.2772
      9 C8         -1.0640   -0.7684    3.3885 C.3       1 <0>        -0.0071
     10 C9         -1.2534    0.1395    4.5762 C.2       1 <0>         0.5011
     11 O2         -1.1661    1.3480    4.4399 O.co2     1 <0>        -0.6704
     12 O3         -1.4941   -0.3343    5.6736 O.co2     1 <0>        -0.6883
     13 O4          0.0121   -2.6880   -2.4798 O.3       1 <0>        -0.3118
     14 C10        -0.0687   -4.1138   -2.4304 C.3       1 <0>         0.1598
     15 C11         0.1810   -4.6790   -3.8049 C.2       1 <0>         0.2035
     16 N1          1.3457   -5.0169   -4.2768 N.2       1 <0>        -0.4420
     17 C12         1.1901   -5.4828   -5.5342 C.2       1 <0>         0.0591
     18 C13        -0.1571   -5.4159   -5.8255 C.2       1 <0>         0.0071
     19 O5         -0.7630   -4.9159   -4.7260 O.3       1 <0>        -0.1794
     20 C14        -0.8086   -5.8173   -7.0871 C.ar      1 <0>        -0.0328
     21 C15        -0.4962   -7.0445   -7.6775 C.ar      1 <0>        -0.0454
     22 C16        -1.1073   -7.4153   -8.8560 C.ar      1 <0>        -0.1197
     23 C17        -2.0321   -6.5712   -9.4566 C.ar      1 <0>         0.1188
     24 C18        -2.3454   -5.3503   -8.8736 C.ar      1 <0>        -0.1892
     25 C19        -1.7440   -4.9739   -7.6919 C.ar      1 <0>        -0.0487
     26 O6         -2.6321   -6.9408  -10.6184 O.3       1 <0>        -0.3085
     27 C20        -3.5734   -6.0255  -11.1823 C.3       1 <0>         0.6037
     28 F1         -2.9354   -4.8114  -11.4584 F         1 <0>        -0.1632
     29 F2         -4.0915   -6.5599  -12.3669 F         1 <0>        -0.1295
     30 F3         -4.6150   -5.8089  -10.2738 F         1 <0>        -0.1626
     31 C21         2.2623   -5.9725   -6.4314 C.ar      1 <0>        -0.0549
     32 C22         2.2722   -5.6017   -7.7761 C.ar      1 <0>        -0.0529
     33 C23         3.2718   -6.0595   -8.6084 C.ar      1 <0>        -0.2077
     34 C24         4.2676   -6.8884   -8.1095 C.ar      1 <0>         0.1428
     35 C25         4.2606   -7.2598   -6.7718 C.ar      1 <0>        -0.1528
     36 C26         3.2675   -6.8008   -5.9323 C.ar      1 <0>        -0.0449
     37 O7          5.2512   -7.3376   -8.9326 O.3       1 <0>        -0.3049
     38 C27         5.1312   -7.0196  -10.3206 C.3       1 <0>         0.0770
     39 C28         5.7922   -5.6517  -10.6224 C.3       1 <0>        -0.1490
     40 C29         6.1139   -5.7536  -12.1340 C.3       1 <0>        -0.1243
     41 C30         6.5567   -7.2185  -12.3287 C.3       1 <0>        -0.1227
     42 C31         5.9319   -8.0234  -11.1757 C.3       1 <0>        -0.1205
     43 H1          0.7621    1.8667    0.1236 H         1 <0>         0.0698
     44 H2         -0.5754    1.9488   -1.0481 H         1 <0>         0.0613
     45 H3         -0.9213    1.9355    0.6979 H         1 <0>         0.0810
     46 H4          0.0846   -0.0862   -2.1987 H         1 <0>         0.1329
     47 H5         -0.5114   -3.7975   -0.1667 H         1 <0>         0.1258
     48 H6         -0.8787   -2.5838    1.9426 H         1 <0>         0.1329
     49 H7         -1.9701   -1.3531    3.2299 H         1 <0>         0.0580
     50 H8         -0.2261   -1.4403    3.5747 H         1 <0>         0.0584
     51 H9          0.6814   -4.4965   -1.7384 H         1 <0>         0.1088
     52 H10        -1.0612   -4.4099   -2.0906 H         1 <0>         0.0933
     53 H11         0.2232   -7.7014   -7.2113 H         1 <0>         0.1448
     54 H12        -0.8661   -8.3635   -9.3133 H         1 <0>         0.1476
     55 H13        -3.0648   -4.6967   -9.3446 H         1 <0>         0.1409
     56 H14        -1.9918   -4.0264   -7.2368 H         1 <0>         0.1410
     57 H15         1.4978   -4.9572   -8.1650 H         1 <0>         0.1249
     58 H16         3.2800   -5.7731   -9.6497 H         1 <0>         0.1324
     59 H17         5.0365   -7.9050   -6.3871 H         1 <0>         0.1351
     60 H18         3.2656   -7.0859   -4.8906 H         1 <0>         0.1352
     61 H19         4.0833   -7.0137  -10.6205 H         1 <0>         0.0815
     62 H20         5.0959   -4.8354  -10.4298 H         1 <0>         0.0729
     63 H21         6.7055   -5.5272  -10.0406 H         1 <0>         0.0812
     64 H22         5.2252   -5.5415  -12.7284 H         1 <0>         0.0689
     65 H23         6.9225   -5.0723  -12.3987 H         1 <0>         0.0720
     66 H24         6.1943   -7.5941  -13.2856 H         1 <0>         0.0688
     67 H25         7.6436   -7.2887  -12.2870 H         1 <0>         0.0694
     68 H26         6.7156   -8.4843  -10.5744 H         1 <0>         0.0803
     69 H27         5.2663   -8.7897  -11.5730 H         1 <0>         0.0736
@<TRIPOS>BOND
     1    1    2 1
     2    1   43 1
     3    1   44 1
     4    1   45 1
     5    2    7 ar
     6    2    3 ar
     7    3    4 ar
     8    3   46 1
     9    4    5 ar
    10    4   13 1
    11    5    6 ar
    12    5   47 1
    13    6    7 ar
    14    6   48 1
    15    7    8 1
    16    8    9 1
    17    9   10 1
    18    9   49 1
    19    9   50 1
    20   10   11 2
    21   10   12 1
    22   13   14 1
    23   14   15 1
    24   14   51 1
    25   14   52 1
    26   15   19 1
    27   15   16 2
    28   16   17 1
    29   17   18 2
    30   17   31 1
    31   18   19 1
    32   18   20 1
    33   20   25 ar
    34   20   21 ar
    35   21   22 ar
    36   21   53 1
    37   22   23 ar
    38   22   54 1
    39   23   24 ar
    40   23   26 1
    41   24   25 ar
    42   24   55 1
    43   25   56 1
    44   26   27 1
    45   27   28 1
    46   27   29 1
    47   27   30 1
    48   31   36 ar
    49   31   32 ar
    50   32   33 ar
    51   32   57 1
    52   33   34 ar
    53   33   58 1
    54   34   35 ar
    55   34   37 1
    56   35   36 ar
    57   35   59 1
    58   36   60 1
    59   37   38 1
    60   38   42 1
    61   38   39 1
    62   38   61 1
    63   39   40 1
    64   39   62 1
    65   39   63 1
    66   40   41 1
    67   40   64 1
    68   40   65 1
    69   41   42 1
    70   41   66 1
    71   41   67 1
    72   42   68 1
    73   42   69 1
@<TRIPOS>MOLECULE
CHEMBL278590
   67    68     0     0     0
SMALL
USER_CHARGES

@<TRIPOS>ATOM
      1 C1         -0.0957    1.4848    0.0654 C.3       1 <0>        -0.1537
      2 C2         -0.0851   -0.0447    0.0263 C.3       1 <0>        -0.1267
      3 C3          0.6412   -0.5176   -1.2345 C.3       1 <0>        -0.1202
      4 C4          0.6518   -2.0471   -1.2736 C.3       1 <0>        -0.1208
      5 C5          1.3782   -2.5200   -2.5344 C.3       1 <0>        -0.1173
      6 C6          1.3887   -4.0495   -2.5734 C.3       1 <0>        -0.1431
      7 C7          2.1151   -4.5225   -3.8343 C.3       1 <0>         0.1039
      8 N1          2.1252   -5.9869   -3.8717 N.am      1 <0>        -0.6186
      9 C8          1.0324   -6.7106   -4.5261 C.3       1 <0>         0.1363
     10 C9          1.3747   -6.9256   -6.0017 C.3       1 <0>        -0.0906
     11 C10         0.2505   -7.6700   -6.6749 C.ar      1 <0>        -0.0767
     12 C11         0.2589   -9.0526   -6.7043 C.ar      1 <0>        -0.1216
     13 C12        -0.7692   -9.7380   -7.3206 C.ar      1 <0>        -0.0741
     14 C13        -1.8135   -9.0368   -7.9114 C.ar      1 <0>        -0.1117
     15 C14        -1.8188   -7.6474   -7.8795 C.ar      1 <0>        -0.0753
     16 C15        -0.7899   -6.9688   -7.2569 C.ar      1 <0>        -0.1266
     17 S1         -3.1273   -9.9070   -8.6995 S.3       1 <0>        -0.1182
     18 C16        -4.2728  -10.2914   -7.3466 C.3       1 <0>        -0.1031
     19 C17        -3.5259  -11.0454   -6.2445 C.3       1 <0>        -0.1229
     20 C18        -4.8446   -8.9913   -6.7776 C.3       1 <0>        -0.1192
     21 C19        -5.3971  -11.1486   -7.8684 C.2       1 <0>         0.5218
     22 O1         -5.4231  -11.4704   -9.0441 O.co2     1 <0>        -0.6724
     23 O2         -6.2806  -11.5204   -7.1150 O.co2     1 <0>        -0.6813
     24 C20         3.1399   -6.6685   -3.3040 C.2       1 <0>         0.7074
     25 O3          3.1484   -7.8840   -3.3350 O.2       1 <0>        -0.5635
     26 N2          4.1453   -6.0028   -2.7019 N.am      1 <0>        -0.6843
     27 C21         5.2594   -6.7033   -2.2187 C.ar      1 <0>         0.1320
     28 C22         5.7159   -7.8300   -2.8881 C.ar      1 <0>        -0.0648
     29 C23         6.8142   -8.5189   -2.4108 C.ar      1 <0>        -0.1381
     30 C24         7.4602   -8.0869   -1.2647 C.ar      1 <0>         0.1105
     31 C25         7.0075   -6.9636   -0.5939 C.ar      1 <0>        -0.1704
     32 C26         5.9121   -6.2671   -1.0713 C.ar      1 <0>         0.0974
     33 F1          5.4736   -5.1674   -0.4205 F         1 <0>        -0.1296
     34 F2          8.5337   -8.7629   -0.8002 F         1 <0>        -0.1315
     35 H1          0.9294    1.8551    0.0761 H         1 <0>         0.0527
     36 H2         -0.6109    1.8672   -0.8158 H         1 <0>         0.0535
     37 H3         -0.6131    1.8217    0.9636 H         1 <0>         0.0529
     38 H4          0.4301   -0.4271    0.9075 H         1 <0>         0.0601
     39 H5         -1.1102   -0.4150    0.0156 H         1 <0>         0.0611
     40 H6          0.1260   -0.1352   -2.1157 H         1 <0>         0.0616
     41 H7          1.6664   -0.1473   -1.2238 H         1 <0>         0.0605
     42 H8          1.1670   -2.4295   -0.3924 H         1 <0>         0.0613
     43 H9         -0.3733   -2.4174   -1.2843 H         1 <0>         0.0629
     44 H10         0.8629   -2.1376   -3.4155 H         1 <0>         0.0662
     45 H11         2.4033   -2.1498   -2.5236 H         1 <0>         0.0630
     46 H12         1.9040   -4.4319   -1.6923 H         1 <0>         0.0645
     47 H13         0.3636   -4.4198   -2.5842 H         1 <0>         0.0728
     48 H14         1.5999   -4.1401   -4.7154 H         1 <0>         0.0899
     49 H15         3.1402   -4.1522   -3.8235 H         1 <0>         0.0729
     50 H16         0.8943   -7.6767   -4.0406 H         1 <0>         0.0907
     51 H17         0.1134   -6.1296   -4.4472 H         1 <0>         0.0828
     52 H18         1.5128   -5.9595   -6.4872 H         1 <0>         0.0712
     53 H19         2.2936   -7.5065   -6.0806 H         1 <0>         0.0761
     54 H20         1.0708   -9.5969   -6.2450 H         1 <0>         0.1222
     55 H21        -0.7616  -10.8178   -7.3438 H         1 <0>         0.1276
     56 H22        -2.6287   -7.0991   -8.3376 H         1 <0>         0.1273
     57 H23        -0.7954   -5.8892   -7.2282 H         1 <0>         0.1193
     58 H24        -2.7711  -10.3930   -5.8053 H         1 <0>         0.0426
     59 H25        -4.2315  -11.3551   -5.4737 H         1 <0>         0.0660
     60 H26        -3.0428  -11.9253   -6.6695 H         1 <0>         0.0561
     61 H27        -5.2997   -8.4122   -7.5811 H         1 <0>         0.0564
     62 H28        -5.5986   -9.2244   -6.0257 H         1 <0>         0.0650
     63 H29        -4.0430   -8.4112   -6.3206 H         1 <0>         0.0406
     64 H30         4.0981   -5.0390   -2.6030 H         1 <0>         0.4102
     65 H31         5.2125   -8.1683   -3.7817 H         1 <0>         0.1571
     66 H32         7.1692   -9.3956   -2.9321 H         1 <0>         0.1478
     67 H33         7.5125   -6.6285    0.3000 H         1 <0>         0.1521
@<TRIPOS>BOND
     1    1    2 1
     2    1   35 1
     3    1   36 1
     4    1   37 1
     5    2    3 1
     6    2   38 1
     7    2   39 1
     8    3    4 1
     9    3   40 1
    10    3   41 1
    11    4    5 1
    12    4   42 1
    13    4   43 1
    14    5    6 1
    15    5   44 1
    16    5   45 1
    17    6    7 1
    18    6   46 1
    19    6   47 1
    20    7    8 1
    21    7   48 1
    22    7   49 1
    23    8    9 1
    24    8   24 am
    25    9   10 1
    26    9   50 1
    27    9   51 1
    28   10   11 1
    29   10   52 1
    30   10   53 1
    31   11   16 ar
    32   11   12 ar
    33   12   13 ar
    34   12   54 1
    35   13   14 ar
    36   13   55 1
    37   14   15 ar
    38   14   17 1
    39   15   16 ar
    40   15   56 1
    41   16   57 1
    42   17   18 1
    43   18   19 1
    44   18   20 1
    45   18   21 1
    46   19   58 1
    47   19   59 1
    48   19   60 1
    49   20   61 1
    50   20   62 1
    51   20   63 1
    52   21   22 2
    53   21   23 1
    54   24   25 2
    55   24   26 am
    56   26   27 1
    57   26   64 1
    58   27   32 ar
    59   27   28 ar
    60   28   29 ar
    61   28   65 1
    62   29   30 ar
    63   29   66 1
    64   30   31 ar
    65   30   34 1
    66   31   32 ar
    67   31   67 1
    68   32   33 1
@<TRIPOS>MOLECULE
CHEMBL497204
   68    71     0     0     0
SMALL
USER_CHARGES

@<TRIPOS>ATOM
      1 C1          1.2099    0.7827   -0.1829 C.3       1 <0>        -0.1477
      2 C2          0.9621   -0.7271   -0.1845 C.3       1 <0>        -0.0177
      3 C3         -0.4849   -0.9870   -0.1115 C.1       1 <0>        -0.1293
      4 C4         -1.6390   -1.1942   -0.0532 C.1       1 <0>        -0.2025
      5 C5         -3.0860   -1.4541    0.0198 C.3       1 <0>         0.1796
      6 O1         -3.3174   -2.8643    0.0183 O.3       1 <0>        -0.2871
      7 C6         -4.6115   -3.2777    0.0818 C.ar      1 <0>         0.1741
      8 C7         -5.6356   -2.3470    0.1384 C.ar      1 <0>        -0.1980
      9 C8         -6.9511   -2.7688    0.2025 C.ar      1 <0>        -0.0259
     10 C9         -7.2489   -4.1191    0.2104 C.ar      1 <0>        -0.1436
     11 C10        -6.2332   -5.0545    0.1547 C.ar      1 <0>        -0.0302
     12 C11        -4.9107   -4.6389    0.0844 C.ar      1 <0>        -0.1618
     13 S1         -3.6136   -5.8288    0.0059 S.3       1 <0>        -0.0001
     14 C12        -3.1143   -5.8043   -1.6838 C.ar      1 <0>        -0.1464
     15 C13        -3.8226   -5.0411   -2.5997 C.ar      1 <0>        -0.0757
     16 C14        -3.4317   -5.0226   -3.9237 C.ar      1 <0>        -0.2061
     17 C15        -2.3374   -5.7681   -4.3285 C.ar      1 <0>         0.1398
     18 C16        -1.6244   -6.5373   -3.4108 C.ar      1 <0>        -0.0991
     19 C17        -2.0056   -6.5486   -2.0893 C.ar      1 <0>        -0.0201
     20 C18        -1.2692   -7.3388   -1.0394 C.3       1 <0>        -0.0774
     21 C19        -0.3875   -8.4038   -1.6883 C.3       1 <0>        -0.1169
     22 C20         0.4698   -7.7308   -2.7666 C.3       1 <0>        -0.1176
     23 C21        -0.4498   -7.3293   -3.9228 C.3       1 <0>        -0.0700
     24 O2         -1.9553   -5.7499   -5.6336 O.3       1 <0>        -0.2764
     25 C22        -2.7274   -4.9423   -6.5245 C.3       1 <0>        -0.0067
     26 C23        -2.1595   -5.0463   -7.9165 C.2       1 <0>         0.5022
     27 O3         -1.1841   -5.7470   -8.1262 O.co2     1 <0>        -0.6701
     28 O4         -2.6756   -4.4297   -8.8330 O.co2     1 <0>        -0.6885
     29 C24        -8.0633   -1.7538    0.2645 C.3       1 <0>         0.1000
     30 O5         -8.4829   -1.4254   -1.0615 O.3       1 <0>        -0.3697
     31 C25        -9.5399   -0.4653   -1.1156 C.3       1 <0>         0.0836
     32 C26       -10.9043   -1.1836   -1.1640 C.3       1 <0>        -0.1481
     33 C27       -11.7596   -0.3107   -2.1155 C.3       1 <0>        -0.1236
     34 C28       -10.7369    0.1200   -3.1961 C.3       1 <0>        -0.1242
     35 C29        -9.4335    0.3636   -2.4076 C.3       1 <0>        -0.1257
     36 H1          2.2814    0.9751   -0.2369 H         1 <0>         0.0666
     37 H2          0.7160    1.2328   -1.0440 H         1 <0>         0.0575
     38 H3          0.8087    1.2157    0.7334 H         1 <0>         0.0578
     39 H4          1.3633   -1.1602   -1.1008 H         1 <0>         0.0910
     40 H5          1.4560   -1.1772    0.6767 H         1 <0>         0.0930
     41 H6         -3.4872   -1.0211    0.9361 H         1 <0>         0.0854
     42 H7         -3.5799   -1.0040   -0.8414 H         1 <0>         0.0864
     43 H8         -5.4067   -1.2916    0.1328 H         1 <0>         0.1334
     44 H9         -8.2778   -4.4435    0.2606 H         1 <0>         0.1307
     45 H10        -6.4686   -6.1086    0.1617 H         1 <0>         0.1417
     46 H11        -4.6770   -4.4637   -2.2786 H         1 <0>         0.1147
     47 H12        -3.9780   -4.4287   -4.6415 H         1 <0>         0.1279
     48 H13        -0.6453   -6.6639   -0.4535 H         1 <0>         0.0791
     49 H14        -1.9912   -7.8222   -0.3812 H         1 <0>         0.0757
     50 H15         0.2580   -8.8550   -0.9347 H         1 <0>         0.0646
     51 H16        -1.0136   -9.1714   -2.1432 H         1 <0>         0.0659
     52 H17         0.9561   -6.8482   -2.3511 H         1 <0>         0.0635
     53 H18         1.2238   -8.4310   -3.1261 H         1 <0>         0.0662
     54 H19        -0.8129   -8.2209   -4.4340 H         1 <0>         0.0758
     55 H20         0.1168   -6.7184   -4.6255 H         1 <0>         0.0825
     56 H21        -3.7606   -5.2896   -6.5266 H         1 <0>         0.0580
     57 H22        -2.6938   -3.9039   -6.1950 H         1 <0>         0.0570
     58 H23        -8.9044   -2.1698    0.8191 H         1 <0>         0.0618
     59 H24        -7.7067   -0.8542    0.7660 H         1 <0>         0.0589
     60 H25        -9.4931    0.1906   -0.2463 H         1 <0>         0.0630
     61 H26       -10.7915   -2.1899   -1.5675 H         1 <0>         0.0790
     62 H27       -11.3528   -1.2178   -0.1711 H         1 <0>         0.0653
     63 H28       -12.5652   -0.8968   -2.5579 H         1 <0>         0.0690
     64 H29       -12.1561    0.5584   -1.5906 H         1 <0>         0.0667
     65 H30       -10.5971   -0.6757   -3.9278 H         1 <0>         0.0699
     66 H31       -11.0633    1.0372   -3.6862 H         1 <0>         0.0675
     67 H32        -9.3359    1.4218   -2.1654 H         1 <0>         0.0711
     68 H33        -8.5756    0.0335   -2.9934 H         1 <0>         0.0802
@<TRIPOS>BOND
     1    1    2 1
     2    1   36 1
     3    1   37 1
     4    1   38 1
     5    2    3 1
     6    2   39 1
     7    2   40 1
     8    3    4 3
     9    4    5 1
    10    5    6 1
    11    5   41 1
    12    5   42 1
    13    6    7 1
    14    7   12 ar
    15    7    8 ar
    16    8    9 ar
    17    8   43 1
    18    9   10 ar
    19    9   29 1
    20   10   11 ar
    21   10   44 1
    22   11   12 ar
    23   11   45 1
    24   12   13 1
    25   13   14 1
    26   14   19 ar
    27   14   15 ar
    28   15   16 ar
    29   15   46 1
    30   16   17 ar
    31   16   47 1
    32   17   18 ar
    33   17   24 1
    34   18   23 1
    35   18   19 ar
    36   19   20 1
    37   20   21 1
    38   20   48 1
    39   20   49 1
    40   21   22 1
    41   21   50 1
    42   21   51 1
    43   22   23 1
    44   22   52 1
    45   22   53 1
    46   23   54 1
    47   23   55 1
    48   24   25 1
    49   25   26 1
    50   25   56 1
    51   25   57 1
    52   26   27 2
    53   26   28 1
    54   29   30 1
    55   29   58 1
    56   29   59 1
    57   30   31 1
    58   31   35 1
    59   31   32 1
    60   31   60 1
    61   32   33 1
    62   32   61 1
    63   32   62 1
    64   33   34 1
    65   33   63 1
    66   33   64 1
    67   34   35 1
    68   34   65 1
    69   34   66 1
    70   35   67 1
    71   35   68 1
@<TRIPOS>MOLECULE
CHEMBL428255
   44    46     0     0     0
SMALL
USER_CHARGES

@<TRIPOS>ATOM
      1 C1         -0.8979    0.1249    1.7378 C.3       1 <0>        -0.1056
      2 C2         -0.5275   -1.2862    1.3601 C.ar      1 <0>        -0.1065
      3 C3         -0.6134   -1.6934    0.0431 C.ar      1 <0>        -0.0576
      4 C4         -0.2720   -2.9941   -0.3047 C.ar      1 <0>        -0.1413
      5 C5          0.1556   -3.8841    0.6728 C.ar      1 <0>        -0.0906
      6 C6          0.2407   -3.4748    1.9887 C.ar      1 <0>        -0.1962
      7 C7         -0.0952   -2.1738    2.3341 C.ar      1 <0>         0.1438
      8 O1         -0.0053   -1.7700    3.6297 O.3       1 <0>        -0.2743
      9 C8          0.4473   -2.7361    4.5804 C.3       1 <0>        -0.0087
     10 C9          0.4825   -2.1128    5.9521 C.2       1 <0>         0.5016
     11 O2          0.1508   -0.9491    6.1016 O.co2     1 <0>        -0.6697
     12 O3          0.8427   -2.7722    6.9122 O.co2     1 <0>        -0.6866
     13 S1         -0.3816   -3.5152   -1.9844 S.3       1 <0>        -0.1136
     14 C10         0.1541   -5.2477   -1.9422 C.3       1 <0>        -0.0468
     15 C11         0.1067   -5.8222   -3.3346 C.2       1 <0>        -0.1550
     16 C12        -1.0376   -6.2997   -3.8809 C.2       1 <0>        -0.2092
     17 S2         -0.5538   -6.8084   -5.4045 S.3       1 <0>         0.3483
     18 N1          1.0719   -6.4192   -5.3424 N.2       1 <0>        -0.4508
     19 C13         1.2324   -5.8923   -4.1461 C.2       1 <0>         0.1475
     20 C14         2.5545   -5.4019   -3.6844 C.ar      1 <0>        -0.0034
     21 C15         3.7012   -6.1586   -3.9170 C.ar      1 <0>        -0.0865
     22 C16         4.9284   -5.6977   -3.4853 C.ar      1 <0>        -0.0734
     23 C17         5.0213   -4.4871   -2.8225 C.ar      1 <0>        -0.1711
     24 C18         3.8862   -3.7320   -2.5885 C.ar      1 <0>        -0.0662
     25 C19         2.6547   -4.1802   -3.0217 C.ar      1 <0>        -0.1055
     26 C20         6.3640   -3.9893   -2.3531 C.3       1 <0>         0.5072
     27 F1          6.9534   -3.2177   -3.3602 F         1 <0>        -0.1759
     28 F2          6.1962   -3.2080   -1.2048 F         1 <0>        -0.1725
     29 F3          7.1888   -5.0802   -2.0585 F         1 <0>        -0.1768
     30 H1         -0.0166    0.7626    1.6692 H         1 <0>         0.0688
     31 H2         -1.6666    0.4930    1.0584 H         1 <0>         0.0608
     32 H3         -1.2784    0.1396    2.7591 H         1 <0>         0.0800
     33 H4         -0.9462   -1.0009   -0.7158 H         1 <0>         0.1296
     34 H5          0.4210   -4.8957    0.4035 H         1 <0>         0.1186
     35 H6          0.5730   -4.1665    2.7487 H         1 <0>         0.1323
     36 H7         -0.2335   -3.5874    4.5856 H         1 <0>         0.0593
     37 H8          1.4477   -3.0726    4.3084 H         1 <0>         0.0599
     38 H9          1.1736   -5.3037   -1.5606 H         1 <0>         0.1015
     39 H10        -0.5093   -5.8174   -1.2914 H         1 <0>         0.1024
     40 H11        -2.0232   -6.3428   -3.4414 H         1 <0>         0.1998
     41 H12         3.6298   -7.1043   -4.4338 H         1 <0>         0.1383
     42 H13         5.8178   -6.2834   -3.6650 H         1 <0>         0.1407
     43 H14         3.9643   -2.7879   -2.0699 H         1 <0>         0.1439
     44 H15         1.7698   -3.5874   -2.8432 H         1 <0>         0.1596
@<TRIPOS>BOND
     1    1    2 1
     2    1   30 1
     3    1   31 1
     4    1   32 1
     5    2    7 ar
     6    2    3 ar
     7    3    4 ar
     8    3   33 1
     9    4    5 ar
    10    4   13 1
    11    5    6 ar
    12    5   34 1
    13    6    7 ar
    14    6   35 1
    15    7    8 1
    16    8    9 1
    17    9   10 1
    18    9   36 1
    19    9   37 1
    20   10   11 2
    21   10   12 1
    22   13   14 1
    23   14   15 1
    24   14   38 1
    25   14   39 1
    26   15   19 1
    27   15   16 2
    28   16   17 1
    29   16   40 1
    30   17   18 1
    31   18   19 2
    32   19   20 1
    33   20   25 ar
    34   20   21 ar
    35   21   22 ar
    36   21   41 1
    37   22   23 ar
    38   22   42 1
    39   23   24 ar
    40   23   26 1
    41   24   25 ar
    42   24   43 1
    43   25   44 1
    44   26   27 1
    45   26   28 1
    46   26   29 1
@<TRIPOS>MOLECULE
CHEMBL231531
   62    64     0     0     0
SMALL
USER_CHARGES

@<TRIPOS>ATOM
      1 C1         -0.0184    1.5028    0.0103 C.3       1 <0>        -0.1060
      2 C2          0.0021   -0.0041    0.0020 C.ar      1 <0>        -0.1058
      3 C3          0.0057   -0.6878   -1.1980 C.ar      1 <0>        -0.0582
      4 C4          0.0246   -2.0766   -1.2053 C.ar      1 <0>        -0.1393
      5 C5          0.0397   -2.7765   -0.0051 C.ar      1 <0>        -0.0926
      6 C6          0.0360   -2.0909    1.1933 C.ar      1 <0>        -0.1970
      7 C7          0.0229   -0.7036    1.1994 C.ar      1 <0>         0.1433
      8 O1          0.0254   -0.0293    2.3804 O.3       1 <0>        -0.2741
      9 C8          0.0474   -0.8131    3.5751 C.3       1 <0>        -0.0085
     10 C9          0.0468    0.0992    4.7746 C.2       1 <0>         0.5013
     11 O2          0.0293    1.3085    4.6207 O.co2     1 <0>        -0.6692
     12 O3          0.0640   -0.3721    5.8989 O.co2     1 <0>        -0.6864
     13 S1          0.0286   -2.9502   -2.7355 S.3       1 <0>        -0.1134
     14 C10         0.0549   -4.6962   -2.2439 C.3       1 <0>        -0.1056
     15 C11         0.0605   -5.5780   -3.4943 C.3       1 <0>        -0.0660
     16 C12         1.3610   -5.3560   -4.2690 C.3       1 <0>         0.0560
     17 O4          1.3167   -6.0899   -5.4944 O.3       1 <0>        -0.2881
     18 C13         2.4025   -6.0006   -6.3067 C.ar      1 <0>         0.1693
     19 C14         3.4907   -5.2272   -5.9295 C.ar      1 <0>        -0.2133
     20 C15         4.5935   -5.1384   -6.7567 C.ar      1 <0>        -0.0266
     21 C16         4.6131   -5.8192   -7.9600 C.ar      1 <0>        -0.2282
     22 C17         3.5296   -6.5903   -8.3385 C.ar      1 <0>        -0.0310
     23 C18         2.4270   -6.6873   -7.5119 C.ar      1 <0>        -0.1530
     24 C19         5.8172   -5.7202   -8.8608 C.3       1 <0>         0.5120
     25 F1          6.7248   -6.7351   -8.5393 F         1 <0>        -0.1784
     26 F2          5.4152   -5.8591  -10.1936 F         1 <0>        -0.1787
     27 F3          6.4293   -4.4744   -8.6857 F         1 <0>        -0.1782
     28 C20        -0.0432   -7.0478   -3.0822 C.3       1 <0>         0.0636
     29 O5         -0.1552   -7.8632   -4.2503 O.3       1 <0>        -0.2861
     30 C21        -0.2570   -9.2048   -4.0588 C.ar      1 <0>         0.1687
     31 C22        -0.2550   -9.7252   -2.7728 C.ar      1 <0>        -0.2149
     32 C23        -0.3592  -11.0893   -2.5808 C.ar      1 <0>        -0.0269
     33 C24        -0.4648  -11.9357   -3.6690 C.ar      1 <0>        -0.2274
     34 C25        -0.4665  -11.4196   -4.9517 C.ar      1 <0>        -0.0302
     35 C26        -0.3689  -10.0558   -5.1488 C.ar      1 <0>        -0.1517
     36 C27        -0.5777  -13.4234   -3.4566 C.3       1 <0>         0.5120
     37 F4         -1.9266  -13.7776   -3.3459 F         1 <0>        -0.1779
     38 F5         -0.0071  -14.0943   -4.5436 F         1 <0>        -0.1783
     39 F6          0.0957  -13.7794   -2.2831 F         1 <0>        -0.1784
     40 H1          1.0042    1.8801    0.0026 H         1 <0>         0.0690
     41 H2         -0.5455    1.8639   -0.8728 H         1 <0>         0.0614
     42 H3         -0.5286    1.8543    0.9071 H         1 <0>         0.0804
     43 H4         -0.0064   -0.1428   -2.1303 H         1 <0>         0.1298
     44 H5          0.0540   -3.8564   -0.0097 H         1 <0>         0.1185
     45 H6          0.0478   -2.6347    2.1263 H         1 <0>         0.1324
     46 H7         -0.8339   -1.4538    3.6055 H         1 <0>         0.0595
     47 H8          0.9458   -1.4302    3.5883 H         1 <0>         0.0596
     48 H9          0.9506   -4.8945   -1.6554 H         1 <0>         0.0954
     49 H10        -0.8291   -4.9187   -1.6464 H         1 <0>         0.1026
     50 H11        -0.7882   -5.3172   -4.1266 H         1 <0>         0.1097
     51 H12         1.4783   -4.2942   -4.4855 H         1 <0>         0.0840
     52 H13         2.2041   -5.6999   -3.6698 H         1 <0>         0.0696
     53 H14         3.4756   -4.6947   -4.9900 H         1 <0>         0.1407
     54 H15         5.4409   -4.5364   -6.4635 H         1 <0>         0.1381
     55 H16         3.5472   -7.1209   -9.2790 H         1 <0>         0.1412
     56 H17         1.5828   -7.2933   -7.8059 H         1 <0>         0.1428
     57 H18         0.8490   -7.3326   -2.5245 H         1 <0>         0.0709
     58 H19        -0.9238   -7.1882   -2.4553 H         1 <0>         0.0750
     59 H20        -0.1719   -9.0645   -1.9226 H         1 <0>         0.1393
     60 H21        -0.3577  -11.4949   -1.5799 H         1 <0>         0.1381
     61 H22        -0.5488  -12.0829   -5.8000 H         1 <0>         0.1419
     62 H23        -0.3747   -9.6527   -6.1508 H         1 <0>         0.1438
@<TRIPOS>BOND
     1    1    2 1
     2    1   40 1
     3    1   41 1
     4    1   42 1
     5    2    7 ar
     6    2    3 ar
     7    3    4 ar
     8    3   43 1
     9    4    5 ar
    10    4   13 1
    11    5    6 ar
    12    5   44 1
    13    6    7 ar
    14    6   45 1
    15    7    8 1
    16    8    9 1
    17    9   10 1
    18    9   46 1
    19    9   47 1
    20   10   11 2
    21   10   12 1
    22   13   14 1
    23   14   15 1
    24   14   48 1
    25   14   49 1
    26   15   16 1
    27   15   28 1
    28   15   50 1
    29   16   17 1
    30   16   51 1
    31   16   52 1
    32   17   18 1
    33   18   23 ar
    34   18   19 ar
    35   19   20 ar
    36   19   53 1
    37   20   21 ar
    38   20   54 1
    39   21   22 ar
    40   21   24 1
    41   22   23 ar
    42   22   55 1
    43   23   56 1
    44   24   25 1
    45   24   26 1
    46   24   27 1
    47   28   29 1
    48   28   57 1
    49   28   58 1
    50   29   30 1
    51   30   35 ar
    52   30   31 ar
    53   31   32 ar
    54   31   59 1
    55   32   33 ar
    56   32   60 1
    57   33   34 ar
    58   33   36 1
    59   34   35 ar
    60   34   61 1
    61   35   62 1
    62   36   37 1
    63   36   38 1
    64   36   39 1
@<TRIPOS>MOLECULE
CHEMBL391283
   62    64     0     0     0
SMALL
USER_CHARGES

@<TRIPOS>ATOM
      1 C1         -0.0023    1.4952    0.2722 C.3       1 <0>        -0.1489
      2 C2          0.0044   -0.0105    0.0009 C.3       1 <0>        -0.0803
      3 C3         -1.4104   -0.5293    0.0121 C.ar      1 <0>        -0.1186
      4 C4         -1.9727   -0.9732    1.1964 C.ar      1 <0>        -0.0689
      5 C5         -3.2690   -1.4505    1.2170 C.ar      1 <0>        -0.2067
      6 C6         -4.0140   -1.4876    0.0487 C.ar      1 <0>         0.1476
      7 C7         -3.4487   -1.0398   -1.1493 C.ar      1 <0>        -0.0868
      8 C8         -2.1424   -0.5547   -1.1572 C.ar      1 <0>        -0.0603
      9 C9         -4.2373   -1.0759   -2.4043 C.ar      1 <0>         0.0104
     10 C10        -4.9127   -2.2361   -2.7949 C.ar      1 <0>        -0.1467
     11 C11        -5.6354   -2.2262   -3.9699 C.ar      1 <0>         0.0985
     12 N1         -5.6937   -1.1423   -4.7200 N.ar      1 <0>        -0.4864
     13 C12        -5.0713   -0.0273   -4.3877 C.ar      1 <0>         0.1002
     14 C13        -4.3308    0.0511   -3.2265 C.ar      1 <0>        -0.1634
     15 O1         -5.2881   -1.9574    0.0674 O.3       1 <0>        -0.3000
     16 C14        -5.8402   -2.2847    1.3442 C.3       1 <0>         0.0845
     17 H1         -5.4631   -1.5877    2.0926 H         1 <0>         0.0778
     18 C15        -5.4350   -3.7102    1.7247 C.3       1 <0>        -0.1783
     19 C16        -7.3658   -2.1880    1.2801 C.3       1 <0>        -0.1126
     20 C17        -7.7744   -0.7363    1.0225 C.3       1 <0>         0.0620
     21 O2         -9.1993   -0.6460    0.9626 O.3       1 <0>        -0.3184
     22 C18        -9.7307    0.5846    0.7385 C.ar      1 <0>         0.1138
     23 C19        -8.8975    1.6818    0.5737 C.ar      1 <0>        -0.2096
     24 C20        -9.4400    2.9314    0.3456 C.ar      1 <0>        -0.0789
     25 C21       -10.8123    3.0894    0.2813 C.ar      1 <0>        -0.0990
     26 C22       -11.6446    1.9979    0.4456 C.ar      1 <0>        -0.0460
     27 C23       -11.1067    0.7449    0.6684 C.ar      1 <0>        -0.1502
     28 C24       -13.1397    2.1738    0.3755 C.3       1 <0>        -0.1211
     29 C25       -11.4015    4.4539    0.0323 C.3       1 <0>        -0.0566
     30 C26       -11.7550    5.1086    1.3692 C.3       1 <0>        -0.1753
     31 C27       -12.3442    6.4731    1.1201 C.2       1 <0>         0.4892
     32 O3        -12.4697    6.8839   -0.0209 O.co2     1 <0>        -0.6982
     33 O4        -12.6954    7.1662    2.0597 O.co2     1 <0>        -0.7069
     34 H2          1.0211    1.8704    0.2641 H         1 <0>         0.0577
     35 H3         -0.5808    2.0011   -0.5008 H         1 <0>         0.0563
     36 H4         -0.4518    1.6869    1.2465 H         1 <0>         0.0558
     37 H5          0.4540   -0.2022   -0.9733 H         1 <0>         0.0709
     38 H6          0.5830   -0.5164    0.7739 H         1 <0>         0.0709
     39 H7         -1.3952   -0.9466    2.1087 H         1 <0>         0.1259
     40 H8         -3.7022   -1.7955    2.1442 H         1 <0>         0.1335
     41 H9         -1.7018   -0.2033   -2.0785 H         1 <0>         0.1301
     42 H10        -4.8690   -3.1270   -2.1860 H         1 <0>         0.1336
     43 H11        -6.1601   -3.1177   -4.2802 H         1 <0>         0.1546
     44 H12        -5.1460    0.8367   -5.0313 H         1 <0>         0.1564
     45 H13        -3.8274    0.9682   -2.9584 H         1 <0>         0.1341
     46 H14        -5.8562   -3.9598    2.6986 H         1 <0>         0.0757
     47 H15        -5.8122   -4.4072    0.9763 H         1 <0>         0.0709
     48 H16        -4.3482   -3.7790    1.7704 H         1 <0>         0.0659
     49 H17        -7.7362   -2.8186    0.4718 H         1 <0>         0.0870
     50 H18        -7.7911   -2.5228    2.2262 H         1 <0>         0.0952
     51 H19        -7.4041   -0.1057    1.8307 H         1 <0>         0.0575
     52 H20        -7.3491   -0.4015    0.0764 H         1 <0>         0.0654
     53 H21        -7.8257    1.5589    0.6242 H         1 <0>         0.1192
     54 H22        -8.7919    3.7858    0.2176 H         1 <0>         0.1229
     55 H23       -11.7572   -0.1083    0.7922 H         1 <0>         0.1251
     56 H24       -13.4730    2.0431   -0.6541 H         1 <0>         0.0716
     57 H25       -13.6230    1.4317    1.0108 H         1 <0>         0.0633
     58 H26       -13.4043    3.1739    0.7189 H         1 <0>         0.0811
     59 H27       -10.6750    5.0727   -0.4945 H         1 <0>         0.0678
     60 H28       -12.3023    4.3557   -0.5736 H         1 <0>         0.0723
     61 H29       -12.4815    4.4897    1.8959 H         1 <0>         0.0578
     62 H30       -10.8542    5.2068    1.9751 H         1 <0>         0.0553
@<TRIPOS>BOND
     1    1    2 1
     2    1   34 1
     3    1   35 1
     4    1   36 1
     5    2    3 1
     6    2   37 1
     7    2   38 1
     8    3    8 ar
     9    3    4 ar
    10    4    5 ar
    11    4   39 1
    12    5    6 ar
    13    5   40 1
    14    6    7 ar
    15    6   15 1
    16    7    8 ar
    17    7    9 1
    18    8   41 1
    19    9   14 ar
    20    9   10 ar
    21   10   11 ar
    22   10   42 1
    23   11   12 ar
    24   11   43 1
    25   12   13 ar
    26   13   14 ar
    27   13   44 1
    28   14   45 1
    29   15   16 1
    30   16   17 1
    31   16   18 1
    32   16   19 1
    33   18   46 1
    34   18   47 1
    35   18   48 1
    36   19   20 1
    37   19   49 1
    38   19   50 1
    39   20   21 1
    40   20   51 1
    41   20   52 1
    42   21   22 1
    43   22   27 ar
    44   22   23 ar
    45   23   24 ar
    46   23   53 1
    47   24   25 ar
    48   24   54 1
    49   25   26 ar
    50   25   29 1
    51   26   27 ar
    52   26   28 1
    53   27   55 1
    54   28   56 1
    55   28   57 1
    56   28   58 1
    57   29   30 1
    58   29   59 1
    59   29   60 1
    60   30   31 1
    61   30   61 1
    62   30   62 1
    63   31   32 2
    64   31   33 1
@<TRIPOS>MOLECULE
CHEMBL598609
   47    49     0     0     0
SMALL
USER_CHARGES

@<TRIPOS>ATOM
      1 C1         -0.0167    1.3791    0.0096 C.ar      1 <0>        -0.1124
      2 C2          1.1686    2.0923    0.0021 C.ar      1 <0>        -0.1180
      3 C3          2.3774    1.4268   -0.0135 C.ar      1 <0>        -0.1049
      4 C4          2.4025    0.0330   -0.0212 C.ar      1 <0>        -0.0582
      5 C5          1.2049   -0.6804   -0.0131 C.ar      1 <0>        -0.1057
      6 C6          0.0021   -0.0041    0.0020 C.ar      1 <0>        -0.1188
      7 C7          3.6981   -0.6879   -0.0385 C.ar      1 <0>        -0.0122
      8 C8          4.8948    0.0291   -0.0411 C.ar      1 <0>        -0.1191
      9 C9          6.0982   -0.6392   -0.0571 C.ar      1 <0>        -0.0511
     10 C10         6.1208   -2.0360   -0.0702 C.ar      1 <0>        -0.1392
     11 C11         4.9218   -2.7531   -0.0671 C.ar      1 <0>        -0.0815
     12 C12         3.7195   -2.0828   -0.0462 C.ar      1 <0>        -0.1202
     13 C13         7.4115   -2.7542   -0.0879 C.2       1 <0>         0.5608
     14 O1          8.4546   -2.1298   -0.0911 O.2       1 <0>        -0.5263
     15 N1          7.4328   -4.1018   -0.1005 N.am      1 <0>        -0.7230
     16 C14         8.7129   -4.8140   -0.1181 C.3       1 <0>         0.1308
     17 C15         8.4570   -6.3225   -0.1298 C.3       1 <0>        -0.6290
     18 S1         10.0421   -7.2044   -0.1515 S.o2      1 <0>         2.5129
     19 O2         10.7049   -6.9894   -1.3899 O.2       1 <0>        -0.8947
     20 O3         10.7260   -7.0122    1.0791 O.2       1 <0>        -0.9110
     21 C16         9.6097   -8.9125   -0.1636 C.ar      1 <0>        -0.4052
     22 C17         9.4468   -9.5845    1.0333 C.ar      1 <0>        -0.0872
     23 C18         9.1066  -10.9282    1.0127 C.ar      1 <0>        -0.0342
     24 C19         8.9422  -11.5486   -0.2165 C.ar      1 <0>        -0.1877
     25 C20         9.1216  -10.8122   -1.3719 C.ar      1 <0>         0.1374
     26 N2          9.4400   -9.5336   -1.3143 N.ar      1 <0>        -0.3860
     27 C21         8.5729  -13.0078   -0.2914 C.3       1 <0>         0.5137
     28 F1          7.1799  -13.1361   -0.3066 F         1 <0>        -0.1677
     29 F2          9.1053  -13.5642   -1.4593 F         1 <0>        -0.1672
     30 F3          9.0908  -13.6776    0.8223 F         1 <0>        -0.1691
     31 H1         -0.9603    1.9042    0.0260 H         1 <0>         0.1249
     32 H2          1.1479    3.1721    0.0082 H         1 <0>         0.1267
     33 H3          3.3022    1.9846   -0.0200 H         1 <0>         0.1276
     34 H4          1.2183   -1.7603   -0.0194 H         1 <0>         0.1263
     35 H5         -0.9264   -0.5557    0.0083 H         1 <0>         0.1262
     36 H6          4.8770    1.1089   -0.0310 H         1 <0>         0.1351
     37 H7          7.0245   -0.0839   -0.0599 H         1 <0>         0.1411
     38 H8          4.9381   -3.8329   -0.0772 H         1 <0>         0.1274
     39 H9          2.7926   -2.6369   -0.0396 H         1 <0>         0.1333
     40 H10         6.6005   -4.6000   -0.0980 H         1 <0>         0.4043
     41 H11         9.2726   -4.5335   -1.0103 H         1 <0>         0.0920
     42 H12         9.2878   -4.5499    0.7695 H         1 <0>         0.0912
     43 H13         7.8973   -6.6030    0.7624 H         1 <0>         0.1469
     44 H14         7.8821   -6.5866   -1.0174 H         1 <0>         0.1506
     45 H15         9.5832   -9.0692    1.9726 H         1 <0>         0.1719
     46 H16         8.9731  -11.4788    1.9322 H         1 <0>         0.1644
     47 H17         8.9954  -11.2880   -2.3331 H         1 <0>         0.1842
@<TRIPOS>BOND
     1    1    6 ar
     2    1    2 ar
     3    1   31 1
     4    2    3 ar
     5    2   32 1
     6    3    4 ar
     7    3   33 1
     8    4    5 ar
     9    4    7 1
    10    5    6 ar
    11    5   34 1
    12    6   35 1
    13    7   12 ar
    14    7    8 ar
    15    8    9 ar
    16    8   36 1
    17    9   10 ar
    18    9   37 1
    19   10   11 ar
    20   10   13 1
    21   11   12 ar
    22   11   38 1
    23   12   39 1
    24   13   14 2
    25   13   15 am
    26   15   16 1
    27   15   40 1
    28   16   17 1
    29   16   41 1
    30   16   42 1
    31   17   18 1
    32   17   43 1
    33   17   44 1
    34   18   19 2
    35   18   20 2
    36   18   21 1
    37   21   26 ar
    38   21   22 ar
    39   22   23 ar
    40   22   45 1
    41   23   24 ar
    42   23   46 1
    43   24   25 ar
    44   24   27 1
    45   25   26 ar
    46   25   47 1
    47   27   28 1
    48   27   29 1
    49   27   30 1
@<TRIPOS>MOLECULE
CHEMBL118756
   66    69     0     0     0
SMALL
USER_CHARGES

@<TRIPOS>ATOM
      1 C1         -0.0187    1.5258    0.0104 C.3       1 <0>        -0.1525
      2 C2          0.0021   -0.0041    0.0020 C.3       1 <0>        -0.1159
      3 C3          0.7182   -0.4975   -1.2568 C.3       1 <0>        -0.0713
      4 C4          0.7386   -2.0043   -1.2651 C.ar      1 <0>        -0.1073
      5 C5         -0.1719   -2.7039   -2.0335 C.ar      1 <0>        -0.0775
      6 C6         -0.1540   -4.0862   -2.0411 C.ar      1 <0>        -0.1072
      7 C7          0.7751   -4.7722   -1.2805 C.ar      1 <0>        -0.0789
      8 C8          1.6878   -4.0775   -0.5110 C.ar      1 <0>        -0.2036
      9 C9          1.6753   -2.6900   -0.5057 C.ar      1 <0>         0.1269
     10 O1          2.5758   -2.0041    0.2462 O.3       1 <0>        -0.3070
     11 C10         3.5108   -2.7757    1.0028 C.3       1 <0>         0.0645
     12 C11         4.4364   -1.8371    1.7794 C.3       1 <0>        -0.1197
     13 C12         5.4375   -2.6632    2.5895 C.3       1 <0>         0.0635
     14 O2          6.3020   -1.7865    3.3149 O.3       1 <0>        -0.3076
     15 C13         7.2566   -2.3642    4.0907 C.ar      1 <0>         0.1355
     16 C14         7.3628   -3.7464    4.1482 C.ar      1 <0>        -0.1910
     17 C15         8.3342   -4.3311    4.9372 C.ar      1 <0>        -0.0733
     18 C16         9.2004   -3.5400    5.6694 C.ar      1 <0>        -0.1312
     19 C17         9.0964   -2.1626    5.6142 C.ar      1 <0>        -0.0712
     20 C18         8.1301   -1.5728    4.8221 C.ar      1 <0>        -0.1182
     21 C19        10.0417   -1.3035    6.4139 C.3       1 <0>         0.0882
     22 C20        11.3657   -1.1570    5.6918 C.2       1 <0>         0.5126
     23 O3         11.5562   -0.6609    4.6022 O.2       1 <0>        -0.4339
     24 N1         12.2878   -1.6941    6.5166 N.am      1 <0>        -0.6837
     25 C21        11.7147   -2.1473    7.6390 C.2       1 <0>         0.6501
     26 O4         12.3265   -2.6760    8.5452 O.2       1 <0>        -0.4648
     27 O5         10.3870   -1.9501    7.6483 O.3       1 <0>        -0.2873
     28 C22        -1.1490   -4.8468   -2.8793 C.3       1 <0>        -0.0427
     29 C23        -1.9984   -5.7424   -1.9754 C.3       1 <0>        -0.1103
     30 C24        -3.0086   -6.5146   -2.8264 C.3       1 <0>        -0.1207
     31 C25        -2.2624   -7.3789   -3.8447 C.3       1 <0>        -0.1210
     32 C26        -1.4129   -6.4833   -4.7487 C.3       1 <0>        -0.1207
     33 C27        -0.4028   -5.7111   -3.8977 C.3       1 <0>        -0.1104
     34 H1          1.0039    1.9031    0.0027 H         1 <0>         0.0546
     35 H2         -0.5459    1.8868   -0.8726 H         1 <0>         0.0532
     36 H3         -0.5289    1.8773    0.9072 H         1 <0>         0.0539
     37 H4          0.5293   -0.3651    0.8851 H         1 <0>         0.0641
     38 H5         -1.0205   -0.3814    0.0098 H         1 <0>         0.0590
     39 H6          0.1910   -0.1364   -2.1398 H         1 <0>         0.0690
     40 H7          1.7408   -0.1202   -1.2645 H         1 <0>         0.0744
     41 H8         -0.8985   -2.1705   -2.6283 H         1 <0>         0.1271
     42 H9          0.7868   -5.8522   -1.2879 H         1 <0>         0.1224
     43 H10         2.4132   -4.6137    0.0829 H         1 <0>         0.1254
     44 H11         2.9724   -3.4154    1.7020 H         1 <0>         0.0653
     45 H12         4.1030   -3.3932    0.3275 H         1 <0>         0.0651
     46 H13         4.9749   -1.1973    1.0802 H         1 <0>         0.0881
     47 H14         3.8442   -1.2196    2.4548 H         1 <0>         0.0882
     48 H15         4.8990   -3.3029    3.2887 H         1 <0>         0.0685
     49 H16         6.0297   -3.2807    1.9142 H         1 <0>         0.0682
     50 H17         6.6863   -4.3647    3.5768 H         1 <0>         0.1340
     51 H18         8.4170   -5.4069    4.9825 H         1 <0>         0.1342
     52 H19         9.9593   -3.9990    6.2857 H         1 <0>         0.1252
     53 H20         8.0521   -0.4966    4.7758 H         1 <0>         0.1418
     54 H21         9.5987   -0.3262    6.6055 H         1 <0>         0.1634
     55 H22        13.2370   -1.7449    6.3233 H         1 <0>         0.4454
     56 H23        -1.7951   -4.1431   -3.4042 H         1 <0>         0.0766
     57 H24        -1.3523   -6.4461   -1.4505 H         1 <0>         0.0625
     58 H25        -2.5300   -5.1267   -1.2499 H         1 <0>         0.0625
     59 H26        -3.6137   -7.1526   -2.1824 H         1 <0>         0.0621
     60 H27        -3.6546   -5.8109   -3.3512 H         1 <0>         0.0620
     61 H28        -1.6163   -8.0826   -3.3199 H         1 <0>         0.0608
     62 H29        -2.9820   -7.9290   -4.4510 H         1 <0>         0.0610
     63 H30        -0.8813   -7.0990   -5.4742 H         1 <0>         0.0621
     64 H31        -2.0590   -5.7796   -5.2736 H         1 <0>         0.0620
     65 H32         0.2024   -5.0731   -4.5417 H         1 <0>         0.0625
     66 H33         0.2433   -6.4148   -3.3729 H         1 <0>         0.0625
@<TRIPOS>BOND
     1    1    2 1
     2    1   34 1
     3    1   35 1
     4    1   36 1
     5    2    3 1
     6    2   37 1
     7    2   38 1
     8    3    4 1
     9    3   39 1
    10    3   40 1
    11    4    9 ar
    12    4    5 ar
    13    5    6 ar
    14    5   41 1
    15    6    7 ar
    16    6   28 1
    17    7    8 ar
    18    7   42 1
    19    8    9 ar
    20    8   43 1
    21    9   10 1
    22   10   11 1
    23   11   12 1
    24   11   44 1
    25   11   45 1
    26   12   13 1
    27   12   46 1
    28   12   47 1
    29   13   14 1
    30   13   48 1
    31   13   49 1
    32   14   15 1
    33   15   20 ar
    34   15   16 ar
    35   16   17 ar
    36   16   50 1
    37   17   18 ar
    38   17   51 1
    39   18   19 ar
    40   18   52 1
    41   19   20 ar
    42   19   21 1
    43   20   53 1
    44   21   27 1
    45   21   22 1
    46   21   54 1
    47   22   23 2
    48   22   24 am
    49   24   25 am
    50   24   55 1
    51   25   26 2
    52   25   27 1
    53   28   33 1
    54   28   29 1
    55   28   56 1
    56   29   30 1
    57   29   57 1
    58   29   58 1
    59   30   31 1
    60   30   59 1
    61   30   60 1
    62   31   32 1
    63   31   61 1
    64   31   62 1
    65   32   33 1
    66   32   63 1
    67   32   64 1
    68   33   65 1
    69   33   66 1
@<TRIPOS>MOLECULE
CHEMBL118756__1
   66    69     0     0     0
SMALL
USER_CHARGES

@<TRIPOS>ATOM
      1 C1         -0.0187    1.5258    0.0104 C.3       1 <0>        -0.1524
      2 C2          0.0021   -0.0041    0.0020 C.3       1 <0>        -0.1160
      3 C3          0.7182   -0.4975   -1.2568 C.3       1 <0>        -0.0712
      4 C4          0.7386   -2.0043   -1.2651 C.ar      1 <0>        -0.1073
      5 C5         -0.1719   -2.7039   -2.0335 C.ar      1 <0>        -0.0775
      6 C6         -0.1540   -4.0862   -2.0411 C.ar      1 <0>        -0.1072
      7 C7          0.7751   -4.7722   -1.2805 C.ar      1 <0>        -0.0789
      8 C8          1.6878   -4.0775   -0.5110 C.ar      1 <0>        -0.2035
      9 C9          1.6753   -2.6900   -0.5057 C.ar      1 <0>         0.1269
     10 O1          2.5758   -2.0041    0.2462 O.3       1 <0>        -0.3070
     11 C10         3.5108   -2.7757    1.0028 C.3       1 <0>         0.0645
     12 C11         4.4364   -1.8371    1.7794 C.3       1 <0>        -0.1197
     13 C12         5.4375   -2.6632    2.5895 C.3       1 <0>         0.0635
     14 O2          6.3020   -1.7865    3.3149 O.3       1 <0>        -0.3076
     15 C13         7.2566   -2.3642    4.0907 C.ar      1 <0>         0.1354
     16 C14         7.3628   -3.7464    4.1482 C.ar      1 <0>        -0.1905
     17 C15         8.3342   -4.3311    4.9372 C.ar      1 <0>        -0.0730
     18 C16         9.2004   -3.5400    5.6694 C.ar      1 <0>        -0.1313
     19 C17         9.0964   -2.1626    5.6142 C.ar      1 <0>        -0.0705
     20 C18         8.1301   -1.5728    4.8221 C.ar      1 <0>        -0.1175
     21 C19        10.0417   -1.3035    6.4139 C.3       1 <0>         0.0879
     22 C20         9.6506   -1.3045    7.8777 C.2       1 <0>         0.5127
     23 O3          8.6082   -0.9154    8.3589 O.2       1 <0>        -0.4338
     24 N1         10.7060   -1.8301    8.5327 N.am      1 <0>        -0.6838
     25 C21        11.6850   -2.1498    7.6767 C.2       1 <0>         0.6498
     26 O4         12.7442   -2.6401    8.0128 O.2       1 <0>        -0.4649
     27 O5         11.3624   -1.8662    6.4050 O.3       1 <0>        -0.2872
     28 C22        -1.1490   -4.8468   -2.8793 C.3       1 <0>        -0.0427
     29 C23        -1.9984   -5.7424   -1.9754 C.3       1 <0>        -0.1103
     30 C24        -3.0086   -6.5146   -2.8264 C.3       1 <0>        -0.1207
     31 C25        -2.2624   -7.3789   -3.8447 C.3       1 <0>        -0.1210
     32 C26        -1.4129   -6.4833   -4.7487 C.3       1 <0>        -0.1207
     33 C27        -0.4028   -5.7111   -3.8977 C.3       1 <0>        -0.1104
     34 H1          1.0039    1.9031    0.0027 H         1 <0>         0.0546
     35 H2         -0.5459    1.8868   -0.8726 H         1 <0>         0.0532
     36 H3         -0.5289    1.8773    0.9072 H         1 <0>         0.0539
     37 H4          0.5293   -0.3651    0.8851 H         1 <0>         0.0641
     38 H5         -1.0205   -0.3814    0.0098 H         1 <0>         0.0590
     39 H6          0.1910   -0.1364   -2.1398 H         1 <0>         0.0690
     40 H7          1.7408   -0.1202   -1.2645 H         1 <0>         0.0744
     41 H8         -0.8985   -2.1705   -2.6283 H         1 <0>         0.1271
     42 H9          0.7868   -5.8522   -1.2879 H         1 <0>         0.1224
     43 H10         2.4132   -4.6137    0.0829 H         1 <0>         0.1254
     44 H11         2.9724   -3.4154    1.7020 H         1 <0>         0.0652
     45 H12         4.1030   -3.3932    0.3275 H         1 <0>         0.0652
     46 H13         4.9749   -1.1973    1.0802 H         1 <0>         0.0882
     47 H14         3.8442   -1.2196    2.4548 H         1 <0>         0.0882
     48 H15         4.8990   -3.3029    3.2887 H         1 <0>         0.0683
     49 H16         6.0297   -3.2807    1.9142 H         1 <0>         0.0686
     50 H17         6.6863   -4.3647    3.5768 H         1 <0>         0.1342
     51 H18         8.4170   -5.4069    4.9825 H         1 <0>         0.1343
     52 H19         9.9593   -3.9990    6.2857 H         1 <0>         0.1238
     53 H20         8.0521   -0.4966    4.7758 H         1 <0>         0.1419
     54 H21        10.0571   -0.2868    6.0212 H         1 <0>         0.1630
     55 H22        10.7497   -1.9593    9.4931 H         1 <0>         0.4454
     56 H23        -1.7951   -4.1431   -3.4042 H         1 <0>         0.0766
     57 H24        -1.3523   -6.4461   -1.4505 H         1 <0>         0.0625
     58 H25        -2.5300   -5.1267   -1.2499 H         1 <0>         0.0625
     59 H26        -3.6137   -7.1526   -2.1824 H         1 <0>         0.0621
     60 H27        -3.6546   -5.8109   -3.3512 H         1 <0>         0.0620
     61 H28        -1.6163   -8.0826   -3.3199 H         1 <0>         0.0608
     62 H29        -2.9820   -7.9290   -4.4510 H         1 <0>         0.0610
     63 H30        -0.8813   -7.0990   -5.4742 H         1 <0>         0.0621
     64 H31        -2.0590   -5.7796   -5.2736 H         1 <0>         0.0620
     65 H32         0.2024   -5.0731   -4.5417 H         1 <0>         0.0626
     66 H33         0.2433   -6.4148   -3.3729 H         1 <0>         0.0625
@<TRIPOS>BOND
     1    1    2 1
     2    1   34 1
     3    1   35 1
     4    1   36 1
     5    2    3 1
     6    2   37 1
     7    2   38 1
     8    3    4 1
     9    3   39 1
    10    3   40 1
    11    4    9 ar
    12    4    5 ar
    13    5    6 ar
    14    5   41 1
    15    6    7 ar
    16    6   28 1
    17    7    8 ar
    18    7   42 1
    19    8    9 ar
    20    8   43 1
    21    9   10 1
    22   10   11 1
    23   11   12 1
    24   11   44 1
    25   11   45 1
    26   12   13 1
    27   12   46 1
    28   12   47 1
    29   13   14 1
    30   13   48 1
    31   13   49 1
    32   14   15 1
    33   15   20 ar
    34   15   16 ar
    35   16   17 ar
    36   16   50 1
    37   17   18 ar
    38   17   51 1
    39   18   19 ar
    40   18   52 1
    41   19   20 ar
    42   19   21 1
    43   20   53 1
    44   21   27 1
    45   21   22 1
    46   21   54 1
    47   22   23 2
    48   22   24 am
    49   24   25 am
    50   24   55 1
    51   25   26 2
    52   25   27 1
    53   28   33 1
    54   28   29 1
    55   28   56 1
    56   29   30 1
    57   29   57 1
    58   29   58 1
    59   30   31 1
    60   30   59 1
    61   30   60 1
    62   31   32 1
    63   31   61 1
    64   31   62 1
    65   32   33 1
    66   32   63 1
    67   32   64 1
    68   33   65 1
    69   33   66 1
@<TRIPOS>MOLECULE
CHEMBL377093
   59    62     0     0     0
SMALL
USER_CHARGES

@<TRIPOS>ATOM
      1 C1         -0.0184    1.5028    0.0103 C.3       1 <0>        -0.1053
      2 C2          0.0021   -0.0041    0.0020 C.ar      1 <0>        -0.0852
      3 C3          0.0058   -0.6883   -1.1982 C.ar      1 <0>        -0.1089
      4 C4          0.0251   -2.0749   -1.2058 C.ar      1 <0>         0.0775
      5 C5          0.0406   -2.7749   -0.0083 C.ar      1 <0>        -0.1686
      6 C6          0.0369   -2.0909    1.1915 C.ar      1 <0>        -0.1754
      7 C7          0.0229   -0.7038    1.1991 C.ar      1 <0>         0.1100
      8 O1          0.0250   -0.0303    2.3804 O.3       1 <0>        -0.2776
      9 C8          0.0470   -0.8150    3.5745 C.3       1 <0>        -0.0068
     10 C9          0.0459    0.0965    4.7746 C.2       1 <0>         0.5011
     11 O2          0.0280    1.3060    4.6215 O.co2     1 <0>        -0.6705
     12 O3          0.0630   -0.3755    5.8986 O.co2     1 <0>        -0.6884
     13 O4          0.0283   -2.7483   -2.3872 O.3       1 <0>        -0.3094
     14 C10         0.0485   -4.1756   -2.3202 C.3       1 <0>         0.1317
     15 C11         0.0491   -4.7440   -3.7159 C.ar      1 <0>         0.3436
     16 N1         -1.1024   -4.9958   -4.3030 N.ar      1 <0>        -0.4905
     17 C12        -1.1469   -5.4984   -5.5362 C.ar      1 <0>         0.2185
     18 C13         0.0502   -5.7572   -6.2041 C.ar      1 <0>        -0.1996
     19 C14         1.2468   -5.4754   -5.5445 C.ar      1 <0>         0.2186
     20 N2          1.2012   -4.9686   -4.3131 N.ar      1 <0>        -0.4906
     21 C15         2.5494   -5.7305   -6.2061 C.ar      1 <0>        -0.0270
     22 C16         2.5876   -6.2503   -7.4988 C.ar      1 <0>        -0.0939
     23 C17         3.8026   -6.4857   -8.1094 C.ar      1 <0>        -0.0733
     24 C18         4.9811   -6.2068   -7.4410 C.ar      1 <0>        -0.1665
     25 C19         4.9494   -5.6912   -6.1578 C.ar      1 <0>        -0.0730
     26 C20         3.7401   -5.4460   -5.5396 C.ar      1 <0>        -0.0697
     27 C21         6.3048   -6.4660   -8.1132 C.3       1 <0>         0.5076
     28 F1          6.7040   -5.3226   -8.8136 F         1 <0>        -0.1740
     29 F2          7.2656   -6.7795   -7.1459 F         1 <0>        -0.1743
     30 F3          6.1735   -7.5366   -9.0042 F         1 <0>        -0.1760
     31 C22        -2.4490   -5.7790   -6.1885 C.ar      1 <0>        -0.0270
     32 C23        -2.4860   -6.3102   -7.4766 C.ar      1 <0>        -0.0939
     33 C24        -3.7005   -6.5692   -8.0787 C.ar      1 <0>        -0.0733
     34 C25        -4.8796   -6.3026   -7.4063 C.ar      1 <0>        -0.1665
     35 C26        -4.8489   -5.7750   -6.1280 C.ar      1 <0>        -0.0729
     36 C27        -3.6402   -5.5178   -5.5136 C.ar      1 <0>        -0.0697
     37 C28        -6.2026   -6.5876   -8.0692 C.3       1 <0>         0.5076
     38 F4         -6.6011   -7.8953   -7.7718 F         1 <0>        -0.1745
     39 F5         -7.1643   -5.6881   -7.5967 F         1 <0>        -0.1741
     40 F6         -6.0706   -6.4440   -9.4545 F         1 <0>        -0.1758
     41 H1          1.0042    1.8801    0.0026 H         1 <0>         0.0692
     42 H2         -0.5455    1.8639   -0.8728 H         1 <0>         0.0609
     43 H3         -0.5286    1.8543    0.9071 H         1 <0>         0.0808
     44 H4         -0.0067   -0.1432   -2.1305 H         1 <0>         0.1315
     45 H5          0.0553   -3.8548   -0.0143 H         1 <0>         0.1249
     46 H6          0.0483   -2.6360    2.1238 H         1 <0>         0.1320
     47 H7         -0.8341   -1.4560    3.6044 H         1 <0>         0.0578
     48 H8          0.9456   -1.4317    3.5875 H         1 <0>         0.0579
     49 H9          0.9459   -4.5020   -1.7946 H         1 <0>         0.0915
     50 H10        -0.8339   -4.5268   -1.7853 H         1 <0>         0.0915
     51 H11         0.0507   -6.1649   -7.2042 H         1 <0>         0.1561
     52 H12         1.6681   -6.4688   -8.0214 H         1 <0>         0.1406
     53 H13         3.8334   -6.8888   -9.1109 H         1 <0>         0.1436
     54 H14         5.8726   -5.4756   -5.6405 H         1 <0>         0.1444
     55 H15         3.7164   -5.0389   -4.5396 H         1 <0>         0.1522
     56 H16        -1.5660   -6.5183   -8.0027 H         1 <0>         0.1406
     57 H17        -3.7303   -6.9804   -9.0769 H         1 <0>         0.1436
     58 H18        -5.7726   -5.5685   -5.6078 H         1 <0>         0.1444
     59 H19        -3.6173   -5.1104   -4.5137 H         1 <0>         0.1522
@<TRIPOS>BOND
     1    1    2 1
     2    1   41 1
     3    1   42 1
     4    1   43 1
     5    2    7 ar
     6    2    3 ar
     7    3    4 ar
     8    3   44 1
     9    4    5 ar
    10    4   13 1
    11    5    6 ar
    12    5   45 1
    13    6    7 ar
    14    6   46 1
    15    7    8 1
    16    8    9 1
    17    9   10 1
    18    9   47 1
    19    9   48 1
    20   10   11 2
    21   10   12 1
    22   13   14 1
    23   14   15 1
    24   14   49 1
    25   14   50 1
    26   15   20 ar
    27   15   16 ar
    28   16   17 ar
    29   17   18 ar
    30   17   31 1
    31   18   19 ar
    32   18   51 1
    33   19   20 ar
    34   19   21 1
    35   21   26 ar
    36   21   22 ar
    37   22   23 ar
    38   22   52 1
    39   23   24 ar
    40   23   53 1
    41   24   25 ar
    42   24   27 1
    43   25   26 ar
    44   25   54 1
    45   26   55 1
    46   27   28 1
    47   27   29 1
    48   27   30 1
    49   31   36 ar
    50   31   32 ar
    51   32   33 ar
    52   32   56 1
    53   33   34 ar
    54   33   57 1
    55   34   35 ar
    56   34   37 1
    57   35   36 ar
    58   35   58 1
    59   36   59 1
    60   37   38 1
    61   37   39 1
    62   37   40 1
@<TRIPOS>MOLECULE
CHEMBL592652
   45    47     0     0     0
SMALL
USER_CHARGES

@<TRIPOS>ATOM
      1 C1         -0.0483    1.5091   -0.0315 C.3       1 <0>         0.0290
      2 O1         -0.0889    0.0807   -0.0452 O.3       1 <0>        -0.2894
      3 C2          0.5096   -0.5439   -1.0947 C.ar      1 <0>         0.0903
      4 C3          1.1266    0.2017   -2.0849 C.ar      1 <0>        -0.2041
      5 C4          1.7371   -0.4381   -3.1556 C.ar      1 <0>         0.0923
      6 C5          1.7289   -1.8246   -3.2331 C.ar      1 <0>        -0.1251
      7 C6          1.1131   -2.5699   -2.2457 C.ar      1 <0>        -0.2173
      8 C7          0.5077   -1.9347   -1.1717 C.ar      1 <0>         0.2521
      9 N1         -0.1116   -2.6922   -0.1667 N.2       1 <0>        -1.0581
     10 S1         -0.1137   -4.3456   -0.2586 S.o2      1 <0>         2.6063
     11 O2         -0.9056   -4.6886   -1.3876 O.2       1 <0>        -1.0338
     12 O3          1.2381   -4.7617   -0.1216 O.2       1 <0>        -1.0049
     13 C8         -0.9714   -4.9451    1.1590 C.2       1 <0>        -0.5667
     14 C9         -2.1581   -5.6299    1.0596 C.2       1 <0>        -0.1116
     15 C10        -2.7657   -6.0642    2.1918 C.2       1 <0>        -0.2500
     16 S2         -1.7462   -5.5572    3.4271 S.3       1 <0>         0.2526
     17 C11        -0.4882   -4.7608    2.4466 C.2       1 <0>        -0.1312
     18 C12         0.7346   -4.0863    2.8856 C.2       1 <0>         0.5211
     19 O4          1.4846   -3.5922    2.0654 O.2       1 <0>        -0.4137
     20 O5          1.0297   -4.0126    4.1999 O.3       1 <0>        -0.3562
     21 C13         2.2389   -3.3399    4.5566 C.3       1 <0>         0.0374
     22 N2          2.3607    0.3150   -4.1575 N.pl3     1 <0>        -0.6839
     23 C14         2.5047   -0.2148   -5.4420 C.ar      1 <0>         0.2028
     24 C15         1.5434   -1.0794   -5.9504 C.ar      1 <0>        -0.1657
     25 C16         1.6890   -1.6013   -7.2206 C.ar      1 <0>        -0.0871
     26 C17         2.7901   -1.2643   -7.9864 C.ar      1 <0>        -0.1722
     27 C18         3.7490   -0.4040   -7.4835 C.ar      1 <0>        -0.0893
     28 C19         3.6069    0.1261   -6.2162 C.ar      1 <0>        -0.1833
     29 H1          0.9892    1.8430   -0.0180 H         1 <0>         0.0408
     30 H2         -0.5428    1.8952   -0.9228 H         1 <0>         0.0413
     31 H3         -0.5605    1.8786    0.8570 H         1 <0>         0.0842
     32 H4          1.1327    1.2800   -2.0249 H         1 <0>         0.1134
     33 H5          2.2040   -2.3210   -4.0663 H         1 <0>         0.1092
     34 H6          1.1071   -3.6481   -2.3081 H         1 <0>         0.1052
     35 H7         -2.6013   -5.8196    0.0932 H         1 <0>         0.1518
     36 H8         -3.6931   -6.6107    2.2793 H         1 <0>         0.1931
     37 H9          2.3555   -3.3524    5.6403 H         1 <0>         0.1002
     38 H10         3.0863   -3.8461    4.0942 H         1 <0>         0.0618
     39 H11         2.1973   -2.3082    4.2075 H         1 <0>         0.0644
     40 H12         2.6928    1.2047   -3.9598 H         1 <0>         0.3989
     41 H13         0.6833   -1.3433   -5.3528 H         1 <0>         0.1297
     42 H14         0.9422   -2.2738   -7.6163 H         1 <0>         0.1188
     43 H15         2.9017   -1.6743   -8.9793 H         1 <0>         0.1138
     44 H16         4.6077   -0.1429   -8.0841 H         1 <0>         0.1160
     45 H17         4.3538    0.8014   -5.8258 H         1 <0>         0.1169
@<TRIPOS>BOND
     1    1    2 1
     2    1   29 1
     3    1   30 1
     4    1   31 1
     5    2    3 1
     6    3    8 ar
     7    3    4 ar
     8    4    5 ar
     9    4   32 1
    10    5    6 ar
    11    5   22 1
    12    6    7 ar
    13    6   33 1
    14    7    8 ar
    15    7   34 1
    16    8    9 1
    17    9   10 1
    18   10   11 2
    19   10   12 2
    20   10   13 1
    21   13   17 2
    22   13   14 1
    23   14   15 2
    24   14   35 1
    25   15   16 1
    26   15   36 1
    27   16   17 1
    28   17   18 1
    29   18   19 2
    30   18   20 1
    31   20   21 1
    32   21   37 1
    33   21   38 1
    34   21   39 1
    35   22   23 1
    36   22   40 1
    37   23   28 ar
    38   23   24 ar
    39   24   25 ar
    40   24   41 1
    41   25   26 ar
    42   25   42 1
    43   26   27 ar
    44   26   43 1
    45   27   28 ar
    46   27   44 1
    47   28   45 1
@<TRIPOS>MOLECULE
CHEMBL592652__1
   46    48     0     0     0
SMALL
USER_CHARGES

@<TRIPOS>ATOM
      1 C1         -0.1027    0.7780   -0.2659 C.3       1 <0>         0.0261
      2 O1         -0.0563   -0.6495   -0.2203 O.3       1 <0>        -0.3082
      3 C2          0.8090   -1.2665   -1.0691 C.ar      1 <0>         0.1488
      4 C3          1.5990   -0.5139   -1.9216 C.ar      1 <0>        -0.2395
      5 C4          2.4818   -1.1460   -2.7875 C.ar      1 <0>         0.2123
      6 C5          2.5723   -2.5317   -2.7982 C.ar      1 <0>        -0.1729
      7 C6          1.7841   -3.2840   -1.9482 C.ar      1 <0>        -0.0983
      8 C7          0.9058   -2.6560   -1.0777 C.ar      1 <0>         0.0885
      9 N1          0.1107   -3.4201   -0.2109 N.pl3     1 <0>        -1.0327
     10 S1          0.7108   -4.8151    0.4496 S.o2      1 <0>         2.7041
     11 O2         -0.2582   -5.2719    1.3833 O.2       1 <0>        -0.9239
     12 O3          1.1616   -5.6163   -0.6339 O.2       1 <0>        -0.9496
     13 C8          2.1407   -4.3773    1.3814 C.2       1 <0>        -0.6239
     14 C9          3.3969   -4.8177    1.0421 C.2       1 <0>        -0.1076
     15 C10         4.4552   -4.4423    1.8030 C.2       1 <0>        -0.2400
     16 S2          3.7793   -3.4800    3.0027 S.3       1 <0>         0.3309
     17 C11         2.0705   -3.5610    2.5012 C.2       1 <0>        -0.1533
     18 C12         0.8985   -2.9320    3.1127 C.2       1 <0>         0.5353
     19 O4         -0.2115   -3.1510    2.6663 O.2       1 <0>        -0.4557
     20 O5          1.0497   -2.1095    4.1712 O.3       1 <0>        -0.3438
     21 C13        -0.1428   -1.6204    4.7882 C.3       1 <0>         0.0335
     22 N2          3.2805   -0.3859   -3.6501 N.pl3     1 <0>        -0.6845
     23 C14         3.7316   -0.9373   -4.8517 C.ar      1 <0>         0.1763
     24 C15         2.9633   -1.8867   -5.5139 C.ar      1 <0>        -0.1617
     25 C16         3.4123   -2.4297   -6.7016 C.ar      1 <0>        -0.0868
     26 C17         4.6252   -2.0296   -7.2318 C.ar      1 <0>        -0.1507
     27 C18         5.3926   -1.0848   -6.5753 C.ar      1 <0>        -0.0876
     28 C19         4.9470   -0.5334   -5.3902 C.ar      1 <0>        -0.1647
     29 H1          0.8810    1.1814   -0.0256 H         1 <0>         0.0559
     30 H2         -0.3932    1.1004   -1.2658 H         1 <0>         0.0578
     31 H3         -0.8313    1.1412    0.4590 H         1 <0>         0.1019
     32 H4          1.5284    0.5637   -1.9135 H         1 <0>         0.1353
     33 H5          3.2592   -3.0221   -3.4721 H         1 <0>         0.1371
     34 H6          1.8554   -4.3616   -1.9586 H         1 <0>         0.1684
     35 H7         -0.7906   -3.1314    0.0017 H         1 <0>         0.4330
     36 H8          3.5399   -5.4544    0.1815 H         1 <0>         0.1599
     37 H9          5.4946   -4.7028    1.6685 H         1 <0>         0.2023
     38 H10         0.1188   -0.9086    5.5711 H         1 <0>         0.1084
     39 H11        -0.7625   -1.1260    4.0400 H         1 <0>         0.0688
     40 H12        -0.6944   -2.4534    5.2240 H         1 <0>         0.0674
     41 H13         3.5207    0.5236   -3.4135 H         1 <0>         0.4097
     42 H14         2.0161   -2.1999   -5.1002 H         1 <0>         0.1284
     43 H15         2.8157   -3.1681   -7.2167 H         1 <0>         0.1256
     44 H16         4.9742   -2.4562   -8.1606 H         1 <0>         0.1224
     45 H17         6.3393   -0.7745   -6.9922 H         1 <0>         0.1246
     46 H18         5.5447    0.2077   -4.8803 H         1 <0>         0.1226
@<TRIPOS>BOND
     1    1    2 1
     2    1   29 1
     3    1   30 1
     4    1   31 1
     5    2    3 1
     6    3    8 ar
     7    3    4 ar
     8    4    5 ar
     9    4   32 1
    10    5    6 ar
    11    5   22 1
    12    6    7 ar
    13    6   33 1
    14    7    8 ar
    15    7   34 1
    16    8    9 1
    17    9   10 1
    18    9   35 1
    19   10   11 2
    20   10   12 2
    21   10   13 1
    22   13   17 2
    23   13   14 1
    24   14   15 2
    25   14   36 1
    26   15   16 1
    27   15   37 1
    28   16   17 1
    29   17   18 1
    30   18   19 2
    31   18   20 1
    32   20   21 1
    33   21   38 1
    34   21   39 1
    35   21   40 1
    36   22   23 1
    37   22   41 1
    38   23   28 ar
    39   23   24 ar
    40   24   25 ar
    41   24   42 1
    42   25   26 ar
    43   25   43 1
    44   26   27 ar
    45   26   44 1
    46   27   28 ar
    47   27   45 1
    48   28   46 1
@<TRIPOS>MOLECULE
CHEMBL265421
   44    46     0     0     0
SMALL
USER_CHARGES

@<TRIPOS>ATOM
      1 C1         -0.0184    1.5028    0.0103 C.3       1 <0>        -0.1058
      2 C2          0.0021   -0.0041    0.0020 C.ar      1 <0>        -0.1055
      3 C3          0.0057   -0.6878   -1.1980 C.ar      1 <0>        -0.0577
      4 C4          0.0246   -2.0766   -1.2053 C.ar      1 <0>        -0.1395
      5 C5          0.0397   -2.7765   -0.0051 C.ar      1 <0>        -0.0933
      6 C6          0.0360   -2.0909    1.1933 C.ar      1 <0>        -0.1959
      7 C7          0.0229   -0.7036    1.1994 C.ar      1 <0>         0.1430
      8 O1          0.0254   -0.0293    2.3804 O.3       1 <0>        -0.2742
      9 C8          0.0474   -0.8131    3.5751 C.3       1 <0>        -0.0087
     10 C9          0.0468    0.0992    4.7746 C.2       1 <0>         0.5014
     11 O2          0.0293    1.3085    4.6207 O.co2     1 <0>        -0.6695
     12 O3          0.0640   -0.3721    5.8989 O.co2     1 <0>        -0.6866
     13 S1          0.0286   -2.9502   -2.7355 S.3       1 <0>        -0.1033
     14 C10         0.0549   -4.6962   -2.2439 C.3       1 <0>        -0.0316
     15 C11         0.0604   -5.5647   -3.4755 C.2       1 <0>        -0.1816
     16 C12         1.1258   -6.0395   -4.1649 C.2       1 <0>        -0.1885
     17 C13         0.8220   -6.8238   -5.2709 C.2       1 <0>         0.1296
     18 N1         -0.4544   -7.0203   -5.5288 N.2       1 <0>        -0.4535
     19 S2         -1.2510   -6.1832   -4.3194 S.3       1 <0>         0.3685
     20 C14         1.8859   -7.4120   -6.1218 C.ar      1 <0>         0.0055
     21 C15         3.2274   -7.1890   -5.8180 C.ar      1 <0>        -0.0964
     22 C16         4.2129   -7.7389   -6.6126 C.ar      1 <0>        -0.0689
     23 C17         3.8708   -8.5098   -7.7090 C.ar      1 <0>        -0.1750
     24 C18         2.5407   -8.7341   -8.0154 C.ar      1 <0>        -0.0710
     25 C19         1.5471   -8.1942   -7.2241 C.ar      1 <0>        -0.0861
     26 C20         4.9513   -9.1072   -8.5731 C.3       1 <0>         0.5083
     27 F1          5.2939  -10.3722   -8.0836 F         1 <0>        -0.1755
     28 F2          4.4853   -9.2260   -9.8869 F         1 <0>        -0.1762
     29 F3          6.0778   -8.2779   -8.5511 F         1 <0>        -0.1756
     30 H1          1.0042    1.8801    0.0026 H         1 <0>         0.0689
     31 H2         -0.5455    1.8639   -0.8728 H         1 <0>         0.0613
     32 H3         -0.5286    1.8543    0.9071 H         1 <0>         0.0804
     33 H4         -0.0064   -0.1428   -2.1303 H         1 <0>         0.1300
     34 H5          0.0540   -3.8564   -0.0097 H         1 <0>         0.1190
     35 H6          0.0478   -2.6347    2.1263 H         1 <0>         0.1329
     36 H7         -0.8339   -1.4538    3.6055 H         1 <0>         0.0597
     37 H8          0.9458   -1.4302    3.5883 H         1 <0>         0.0597
     38 H9          0.9506   -4.8945   -1.6554 H         1 <0>         0.1117
     39 H10        -0.8291   -4.9187   -1.6464 H         1 <0>         0.1079
     40 H11         2.1431   -5.8225   -3.8745 H         1 <0>         0.1614
     41 H12         3.4956   -6.5867   -4.9627 H         1 <0>         0.1423
     42 H13         5.2529   -7.5667   -6.3781 H         1 <0>         0.1426
     43 H14         2.2793   -9.3365   -8.8728 H         1 <0>         0.1411
     44 H15         0.5090   -8.3736   -7.4617 H         1 <0>         0.1449
@<TRIPOS>BOND
     1    1    2 1
     2    1   30 1
     3    1   31 1
     4    1   32 1
     5    2    7 ar
     6    2    3 ar
     7    3    4 ar
     8    3   33 1
     9    4    5 ar
    10    4   13 1
    11    5    6 ar
    12    5   34 1
    13    6    7 ar
    14    6   35 1
    15    7    8 1
    16    8    9 1
    17    9   10 1
    18    9   36 1
    19    9   37 1
    20   10   11 2
    21   10   12 1
    22   13   14 1
    23   14   15 1
    24   14   38 1
    25   14   39 1
    26   15   19 1
    27   15   16 2
    28   16   17 1
    29   16   40 1
    30   17   18 2
    31   17   20 1
    32   18   19 1
    33   20   25 ar
    34   20   21 ar
    35   21   22 ar
    36   21   41 1
    37   22   23 ar
    38   22   42 1
    39   23   24 ar
    40   23   26 1
    41   24   25 ar
    42   24   43 1
    43   25   44 1
    44   26   27 1
    45   26   28 1
    46   26   29 1
@<TRIPOS>MOLECULE
CHEMBL1079505
   64    67     0     0     0
SMALL
USER_CHARGES

@<TRIPOS>ATOM
      1 C1         -0.4460    2.0096   -0.7833 C.3       1 <0>        -0.1055
      2 C2         -0.3458    0.5145   -0.6223 C.ar      1 <0>        -0.0851
      3 C3         -0.2895   -0.2982   -1.7381 C.ar      1 <0>        -0.1081
      4 C4         -0.1968   -1.6739   -1.5899 C.ar      1 <0>         0.0750
      5 C5         -0.1607   -2.2340   -0.3213 C.ar      1 <0>        -0.1695
      6 C6         -0.2170   -1.4215    0.7941 C.ar      1 <0>        -0.1755
      7 C7         -0.3044   -0.0450    0.6459 C.ar      1 <0>         0.1107
      8 O1         -0.3542    0.7553    1.7441 O.3       1 <0>        -0.2774
      9 C8         -0.3071    0.1112    3.0189 C.3       1 <0>        -0.0070
     10 C9         -0.3728    1.1496    4.1090 C.2       1 <0>         0.5011
     11 O2         -0.4526    2.3316    3.8211 O.co2     1 <0>        -0.6703
     12 O3         -0.3462    0.8076    5.2790 O.co2     1 <0>        -0.6883
     13 O4         -0.1418   -2.4738   -2.6882 O.3       1 <0>        -0.3105
     14 C10        -0.0470   -3.8815   -2.4613 C.3       1 <0>         0.1512
     15 C11         0.0028   -4.6013   -3.7844 C.2       1 <0>         0.0487
     16 N1          1.0567   -4.9221   -4.4883 N.2       1 <0>        -0.4832
     17 C12         0.9518   -5.5595   -5.6435 C.2       1 <0>         0.1311
     18 C13        -0.3440   -5.8627   -6.0549 C.2       1 <0>        -0.1632
     19 S1         -1.2844   -5.1859   -4.6963 S.3       1 <0>         0.1781
     20 C14        -0.8098   -6.5560   -7.2725 C.ar      1 <0>        -0.0194
     21 C15        -0.2144   -7.7567   -7.6659 C.ar      1 <0>        -0.0513
     22 C16        -0.6524   -8.4006   -8.8033 C.ar      1 <0>        -0.1174
     23 C17        -1.6839   -7.8572   -9.5576 C.ar      1 <0>         0.1151
     24 C18        -2.2784   -6.6635   -9.1705 C.ar      1 <0>        -0.1861
     25 C19        -1.8509   -6.0161   -8.0310 C.ar      1 <0>        -0.0570
     26 O5         -2.1126   -8.4953  -10.6782 O.3       1 <0>        -0.3088
     27 C20        -3.1774   -7.8814  -11.4073 C.3       1 <0>         0.6038
     28 F1         -2.7804   -6.6077  -11.8285 F         1 <0>        -0.1632
     29 F2         -3.4910   -8.6649  -12.5230 F         1 <0>        -0.1298
     30 F3         -4.3030   -7.7705  -10.5839 F         1 <0>        -0.1633
     31 C21         2.1391   -5.9274   -6.4494 C.ar      1 <0>        -0.1128
     32 C22         2.1359   -5.7544   -7.8390 C.ar      1 <0>        -0.0150
     33 C23         3.2666   -6.1120   -8.5475 C.ar      1 <0>        -0.1900
     34 C24         4.3617   -6.6276   -7.8640 C.ar      1 <0>         0.3328
     35 N2          4.3333   -6.7789   -6.5502 N.ar      1 <0>        -0.5383
     36 C25         3.2773   -6.4451   -5.8354 C.ar      1 <0>         0.1792
     37 O6          5.4751   -6.9812   -8.5542 O.3       1 <0>        -0.3004
     38 C26         6.5683   -7.5052   -7.7976 C.3       1 <0>         0.0809
     39 C27         7.3594   -8.4908   -8.6599 C.3       1 <0>        -0.1510
     40 C28         7.4838   -6.3588   -7.3632 C.3       1 <0>        -0.1697
     41 H1          0.5552    2.4384   -0.8255 H         1 <0>         0.0695
     42 H2         -0.9794    2.2407   -1.7054 H         1 <0>         0.0613
     43 H3         -0.9863    2.4309    0.0644 H         1 <0>         0.0810
     44 H4         -0.3180    0.1379   -2.7257 H         1 <0>         0.1324
     45 H5         -0.0889   -3.3054   -0.2059 H         1 <0>         0.1251
     46 H6         -0.1896   -1.8576    1.7817 H         1 <0>         0.1324
     47 H7         -1.1534   -0.5691    3.1137 H         1 <0>         0.0579
     48 H8          0.6226   -0.4508    3.1079 H         1 <0>         0.0581
     49 H9          0.8591   -4.0982   -1.8955 H         1 <0>         0.0969
     50 H10        -0.9169   -4.2180   -1.8972 H         1 <0>         0.0900
     51 H11         0.5881   -8.1799   -7.0800 H         1 <0>         0.1402
     52 H12        -0.1924   -9.3289   -9.1085 H         1 <0>         0.1453
     53 H13        -3.0801   -6.2443   -9.7602 H         1 <0>         0.1400
     54 H14        -2.3170   -5.0902   -7.7279 H         1 <0>         0.1391
     55 H15         1.2706   -5.3516   -8.3444 H         1 <0>         0.1408
     56 H16         3.2992   -5.9926   -9.6204 H         1 <0>         0.1449
     57 H17         3.2930   -6.5784   -4.7638 H         1 <0>         0.1634
     58 H18         6.1865   -8.0193   -6.9156 H         1 <0>         0.0907
     59 H19         7.7413   -7.9767   -9.5419 H         1 <0>         0.0650
     60 H20         8.1933   -8.8904   -8.0828 H         1 <0>         0.0775
     61 H21         6.7072   -9.3075   -8.9694 H         1 <0>         0.0627
     62 H22         7.8657   -5.8446   -8.2452 H         1 <0>         0.0614
     63 H23         6.9202   -5.6566   -6.7489 H         1 <0>         0.0621
     64 H24         8.3177   -6.7584   -6.7861 H         1 <0>         0.0716
@<TRIPOS>BOND
     1    1    2 1
     2    1   41 1
     3    1   42 1
     4    1   43 1
     5    2    7 ar
     6    2    3 ar
     7    3    4 ar
     8    3   44 1
     9    4    5 ar
    10    4   13 1
    11    5    6 ar
    12    5   45 1
    13    6    7 ar
    14    6   46 1
    15    7    8 1
    16    8    9 1
    17    9   10 1
    18    9   47 1
    19    9   48 1
    20   10   11 2
    21   10   12 1
    22   13   14 1
    23   14   15 1
    24   14   49 1
    25   14   50 1
    26   15   19 1
    27   15   16 2
    28   16   17 1
    29   17   18 2
    30   17   31 1
    31   18   19 1
    32   18   20 1
    33   20   25 ar
    34   20   21 ar
    35   21   22 ar
    36   21   51 1
    37   22   23 ar
    38   22   52 1
    39   23   24 ar
    40   23   26 1
    41   24   25 ar
    42   24   53 1
    43   25   54 1
    44   26   27 1
    45   27   28 1
    46   27   29 1
    47   27   30 1
    48   31   36 ar
    49   31   32 ar
    50   32   33 ar
    51   32   55 1
    52   33   34 ar
    53   33   56 1
    54   34   35 ar
    55   34   37 1
    56   35   36 ar
    57   36   57 1
    58   37   38 1
    59   38   39 1
    60   38   40 1
    61   38   58 1
    62   39   59 1
    63   39   60 1
    64   39   61 1
    65   40   62 1
    66   40   63 1
    67   40   64 1
@<TRIPOS>MOLECULE
CHEMBL1080172
   63    66     0     0     0
SMALL
USER_CHARGES

@<TRIPOS>ATOM
      1 C1         -0.3854    2.0112   -0.7797 C.3       1 <0>        -0.1057
      2 C2         -0.2863    0.5160   -0.6195 C.ar      1 <0>        -0.0849
      3 C3         -0.2438   -0.2970   -1.7357 C.ar      1 <0>        -0.1078
      4 C4         -0.1521   -1.6728   -1.5882 C.ar      1 <0>         0.0746
      5 C5         -0.1031   -2.2328   -0.3200 C.ar      1 <0>        -0.1694
      6 C6         -0.1456   -1.4200    0.7958 C.ar      1 <0>        -0.1756
      7 C7         -0.2320   -0.0434    0.6483 C.ar      1 <0>         0.1111
      8 O1         -0.2682    0.7572    1.7468 O.3       1 <0>        -0.2773
      9 C8         -0.2084    0.1133    3.0211 C.3       1 <0>        -0.0070
     10 C9         -0.2601    1.1520    4.1117 C.2       1 <0>         0.5011
     11 O2         -0.3407    2.3341    3.8244 O.co2     1 <0>        -0.6702
     12 O3         -0.2213    0.8102    5.2814 O.co2     1 <0>        -0.6882
     13 O4         -0.1107   -2.4731   -2.6869 O.3       1 <0>        -0.3105
     14 C10        -0.0161   -3.8809   -2.4608 C.3       1 <0>         0.1508
     15 C11         0.0178   -4.6010   -3.7842 C.2       1 <0>         0.0492
     16 N1          1.0633   -4.9240   -4.4996 N.2       1 <0>        -0.4833
     17 C12         0.9444   -5.5620   -5.6531 C.2       1 <0>         0.1314
     18 C13        -0.3562   -5.8635   -6.0498 C.2       1 <0>        -0.1595
     19 S1         -1.2805   -5.1834   -4.6818 S.3       1 <0>         0.1875
     20 C14        -0.8366   -6.5563   -7.2619 C.ar      1 <0>        -0.0251
     21 C15        -0.2495   -7.7595   -7.6601 C.ar      1 <0>        -0.0543
     22 C16        -0.7015   -8.4032   -8.7921 C.ar      1 <0>        -0.1155
     23 C17        -1.7389   -7.8572   -9.5363 C.ar      1 <0>         0.1184
     24 C18        -2.3256   -6.6613   -9.1442 C.ar      1 <0>        -0.1850
     25 C19        -1.8834   -6.0135   -8.0105 C.ar      1 <0>        -0.0545
     26 O5         -2.1811   -8.4949  -10.6519 O.3       1 <0>        -0.3084
     27 C20        -3.2513   -7.8782  -11.3705 C.3       1 <0>         0.6039
     28 F1         -2.8546   -6.6062  -11.7970 F         1 <0>        -0.1624
     29 F2         -3.5789   -8.6617  -12.4823 F         1 <0>        -0.1295
     30 F3         -4.3681   -7.7630  -10.5358 F         1 <0>        -0.1633
     31 C21         2.1223   -5.9324   -6.4720 C.ar      1 <0>        -0.1679
     32 C22         2.1131   -5.7628   -7.8598 C.ar      1 <0>         0.2160
     33 N2          3.1841   -6.1050   -8.5543 N.ar      1 <0>        -0.5183
     34 C23         4.2536   -6.6015   -7.9535 C.ar      1 <0>         0.5071
     35 N3          4.3016   -6.7778   -6.6428 N.ar      1 <0>        -0.5648
     36 C24         3.2743   -6.4551   -5.8766 C.ar      1 <0>         0.2238
     37 O6          5.3309   -6.9398   -8.7023 O.3       1 <0>        -0.2820
     38 C25         6.4617   -7.4716   -8.0092 C.3       1 <0>         0.0844
     39 C26         7.2118   -8.4408   -8.9251 C.3       1 <0>        -0.1506
     40 C27         7.3943   -6.3290   -7.6025 C.3       1 <0>        -0.1706
     41 H1          0.6161    2.4381   -0.8330 H         1 <0>         0.0695
     42 H2         -0.9285    2.2433   -1.6959 H         1 <0>         0.0614
     43 H3         -0.9156    2.4337    0.0738 H         1 <0>         0.0810
     44 H4         -0.2823    0.1389   -2.7230 H         1 <0>         0.1326
     45 H5         -0.0321   -3.3043   -0.2052 H         1 <0>         0.1251
     46 H6         -0.1082   -1.8560    1.7832 H         1 <0>         0.1325
     47 H7         -1.0549   -0.5654    3.1253 H         1 <0>         0.0580
     48 H8          0.7212   -0.4504    3.1000 H         1 <0>         0.0581
     49 H9          0.8957   -4.0992   -1.9049 H         1 <0>         0.0972
     50 H10        -0.8804   -4.2156   -1.8871 H         1 <0>         0.0906
     51 H11         0.5577   -8.1847   -7.0821 H         1 <0>         0.1376
     52 H12        -0.2478   -9.3334   -9.1009 H         1 <0>         0.1453
     53 H13        -3.1320   -6.2400   -9.7261 H         1 <0>         0.1411
     54 H14        -2.3432   -5.0857   -7.7037 H         1 <0>         0.1408
     55 H15         1.2436   -5.3585   -8.3568 H         1 <0>         0.1745
     56 H16         3.3222   -6.5974   -4.8071 H         1 <0>         0.1765
     57 H17         6.1253   -8.0009   -7.1176 H         1 <0>         0.0942
     58 H18         7.5481   -7.9115   -9.8166 H         1 <0>         0.0678
     59 H19         8.0743   -8.8465   -8.3964 H         1 <0>         0.0816
     60 H20         6.5473   -9.2548   -9.2148 H         1 <0>         0.0646
     61 H21         7.7306   -5.7997   -8.4940 H         1 <0>         0.0642
     62 H22         6.8599   -5.6385   -6.9499 H         1 <0>         0.0620
     63 H23         8.2568   -6.7347   -7.0737 H         1 <0>         0.0759
@<TRIPOS>BOND
     1    1    2 1
     2    1   41 1
     3    1   42 1
     4    1   43 1
     5    2    7 ar
     6    2    3 ar
     7    3    4 ar
     8    3   44 1
     9    4    5 ar
    10    4   13 1
    11    5    6 ar
    12    5   45 1
    13    6    7 ar
    14    6   46 1
    15    7    8 1
    16    8    9 1
    17    9   10 1
    18    9   47 1
    19    9   48 1
    20   10   11 2
    21   10   12 1
    22   13   14 1
    23   14   15 1
    24   14   49 1
    25   14   50 1
    26   15   19 1
    27   15   16 2
    28   16   17 1
    29   17   18 2
    30   17   31 1
    31   18   19 1
    32   18   20 1
    33   20   25 ar
    34   20   21 ar
    35   21   22 ar
    36   21   51 1
    37   22   23 ar
    38   22   52 1
    39   23   24 ar
    40   23   26 1
    41   24   25 ar
    42   24   53 1
    43   25   54 1
    44   26   27 1
    45   27   28 1
    46   27   29 1
    47   27   30 1
    48   31   36 ar
    49   31   32 ar
    50   32   33 ar
    51   32   55 1
    52   33   34 ar
    53   34   35 ar
    54   34   37 1
    55   35   36 ar
    56   36   56 1
    57   37   38 1
    58   38   39 1
    59   38   40 1
    60   38   57 1
    61   39   58 1
    62   39   59 1
    63   39   60 1
    64   40   61 1
    65   40   62 1
    66   40   63 1
@<TRIPOS>MOLECULE
CHEMBL427237
   58    61     0     0     0
SMALL
USER_CHARGES

@<TRIPOS>ATOM
      1 C1          0.0669    2.6769   -1.1873 C.3       1 <0>        -0.1516
      2 C2          0.0523    1.1691   -0.9279 C.3       1 <0>        -0.1144
      3 C3          0.7671    0.4478   -2.0723 C.3       1 <0>        -0.0673
      4 C4          0.7528   -1.0373   -1.8168 C.ar      1 <0>        -0.0725
      5 C5          1.7893   -1.6364   -1.0975 C.ar      1 <0>        -0.0683
      6 C6          3.0111   -1.1330   -0.4651 C.2       1 <0>        -0.2073
      7 C7          3.6302   -2.1877    0.0886 C.2       1 <0>         0.0569
      8 N1          2.9051   -3.3256   -0.1372 N.pl3     1 <0>        -0.5979
      9 H1          3.1515   -4.2131    0.1671 H         1 <0>         0.4147
     10 C8          1.7713   -3.0225   -0.8612 C.ar      1 <0>         0.0646
     11 C9          0.7168   -3.7873   -1.3490 C.ar      1 <0>        -0.0956
     12 C10        -0.2994   -3.1863   -2.0574 C.ar      1 <0>        -0.1745
     13 C11        -0.2878   -1.8127   -2.2874 C.ar      1 <0>         0.1048
     14 O1         -1.3023   -1.2342   -2.9840 O.3       1 <0>        -0.3082
     15 C12        -2.3476   -2.0940   -3.4423 C.3       1 <0>         0.0651
     16 C13        -3.3909   -1.2698   -4.1993 C.3       1 <0>        -0.1179
     17 C14        -4.5100   -2.1905   -4.6900 C.3       1 <0>         0.0658
     18 O2         -5.4845   -1.4207   -5.3971 O.3       1 <0>        -0.3152
     19 C15        -6.5527   -2.0918   -5.9025 C.ar      1 <0>         0.1147
     20 C16        -6.6645   -3.4623   -5.7171 C.ar      1 <0>        -0.2084
     21 C17        -7.7511   -4.1393   -6.2322 C.ar      1 <0>        -0.0704
     22 C18        -8.7311   -3.4566   -6.9343 C.ar      1 <0>        -0.1085
     23 C19        -8.6219   -2.0910   -7.1205 C.ar      1 <0>        -0.0612
     24 C20        -7.5364   -1.4082   -6.5997 C.ar      1 <0>        -0.1404
     25 C21        -9.8092   -1.5860   -7.9123 C.3       1 <0>        -0.0827
     26 C22       -10.4255   -2.8430   -8.5621 C.3       1 <0>        -0.1019
     27 C23        -9.9995   -3.9621   -7.5883 C.3       1 <0>        -0.0264
     28 H2        -10.7730   -4.1251   -6.8378 H         1 <0>         0.0887
     29 C24        -9.7217   -5.2562   -8.3557 C.3       1 <0>        -0.1741
     30 C25       -11.0183   -5.8171   -8.8806 C.2       1 <0>         0.4910
     31 O3        -12.0767   -5.2954   -8.5740 O.co2     1 <0>        -0.6953
     32 O4        -11.0087   -6.7926   -9.6119 O.co2     1 <0>        -0.7084
     33 H3          1.0979    3.0251   -1.2485 H         1 <0>         0.0520
     34 H4         -0.4446    2.8890   -2.1262 H         1 <0>         0.0548
     35 H5         -0.4424    3.1908   -0.3720 H         1 <0>         0.0524
     36 H6          0.5638    0.9570    0.0110 H         1 <0>         0.0593
     37 H7         -0.9788    0.8209   -0.8667 H         1 <0>         0.0623
     38 H8          0.2556    0.6599   -3.0112 H         1 <0>         0.0751
     39 H9          1.7982    0.7960   -2.1336 H         1 <0>         0.0680
     40 H10         3.3497   -0.1076   -0.4476 H         1 <0>         0.1457
     41 H11         4.5627   -2.1443    0.6316 H         1 <0>         0.1699
     42 H12         0.6953   -4.8525   -1.1723 H         1 <0>         0.1225
     43 H13        -1.1156   -3.7849   -2.4341 H         1 <0>         0.1320
     44 H14        -1.9305   -2.8508   -4.1067 H         1 <0>         0.0643
     45 H15        -2.8188   -2.5803   -2.5881 H         1 <0>         0.0643
     46 H16        -3.8080   -0.5131   -3.5349 H         1 <0>         0.0854
     47 H17        -2.9197   -0.7835   -5.0535 H         1 <0>         0.0855
     48 H18        -4.0929   -2.9472   -5.3544 H         1 <0>         0.0638
     49 H19        -4.9812   -2.6768   -3.8359 H         1 <0>         0.0635
     50 H20        -5.9023   -3.9983   -5.1710 H         1 <0>         0.1233
     51 H21        -7.8378   -5.2061   -6.0876 H         1 <0>         0.1221
     52 H22        -7.4534   -0.3407   -6.7408 H         1 <0>         0.1240
     53 H23       -10.5315   -1.1103   -7.2489 H         1 <0>         0.0793
     54 H24        -9.4812   -0.8854   -8.6803 H         1 <0>         0.0707
     55 H25       -11.5116   -2.7623   -8.6083 H         1 <0>         0.0853
     56 H26       -10.0059   -3.0118   -9.5538 H         1 <0>         0.0642
     57 H27        -9.0520   -5.0474   -9.1899 H         1 <0>         0.0567
     58 H28        -9.2559   -5.9814   -7.6885 H         1 <0>         0.0556
@<TRIPOS>BOND
     1    1    2 1
     2    1   33 1
     3    1   34 1
     4    1   35 1
     5    2    3 1
     6    2   36 1
     7    2   37 1
     8    3    4 1
     9    3   38 1
    10    3   39 1
    11    4   13 ar
    12    4    5 ar
    13    5   10 ar
    14    5    6 1
    15    6    7 2
    16    6   40 1
    17    7    8 1
    18    7   41 1
    19    8    9 1
    20    8   10 1
    21   10   11 ar
    22   11   12 ar
    23   11   42 1
    24   12   13 ar
    25   12   43 1
    26   13   14 1
    27   14   15 1
    28   15   16 1
    29   15   44 1
    30   15   45 1
    31   16   17 1
    32   16   46 1
    33   16   47 1
    34   17   18 1
    35   17   48 1
    36   17   49 1
    37   18   19 1
    38   19   24 ar
    39   19   20 ar
    40   20   21 ar
    41   20   50 1
    42   21   22 ar
    43   21   51 1
    44   22   27 1
    45   22   23 ar
    46   23   24 ar
    47   23   25 1
    48   24   52 1
    49   25   26 1
    50   25   53 1
    51   25   54 1
    52   26   27 1
    53   26   55 1
    54   26   56 1
    55   27   28 1
    56   27   29 1
    57   29   30 1
    58   29   57 1
    59   29   58 1
    60   30   31 2
    61   30   32 1
@<TRIPOS>MOLECULE
CHEMBL231527
   67    69     0     0     0
SMALL
USER_CHARGES

@<TRIPOS>ATOM
      1 C1         -0.7157   -2.5321    2.2386 C.3       1 <0>        -0.1534
      2 C2         -0.2926   -1.7736    0.9790 C.3       1 <0>        -0.1168
      3 C3          0.3350   -2.7502   -0.0177 C.3       1 <0>        -0.1672
      4 C4          0.7518   -2.0031   -1.2584 C.2       1 <0>         0.3989
      5 O1          0.5652   -0.8073   -1.3376 O.2       1 <0>        -0.4567
      6 C5          1.3838   -2.7231   -2.3715 C.ar      1 <0>        -0.2154
      7 C6          1.5951   -4.1047   -2.2848 C.ar      1 <0>        -0.0273
      8 C7          2.1853   -4.7722   -3.3271 C.ar      1 <0>        -0.2318
      9 C8          2.5742   -4.0795   -4.4686 C.ar      1 <0>         0.1684
     10 C9          2.3670   -2.7072   -4.5595 C.ar      1 <0>        -0.1593
     11 C10         1.7721   -2.0312   -3.5255 C.ar      1 <0>        -0.0173
     12 O2          3.1580   -4.7445   -5.4969 O.3       1 <0>        -0.2808
     13 C11         3.2329   -6.1675   -5.3899 C.3       1 <0>         0.1083
     14 C12         4.4766   -6.5538   -4.5868 C.3       1 <0>         0.0332
     15 O3          5.6482   -6.1667   -5.3075 O.3       1 <0>        -0.2923
     16 C13         6.8471   -6.4398   -4.7286 C.ar      1 <0>         0.1642
     17 C14         6.8948   -7.0727   -3.4950 C.ar      1 <0>        -0.2130
     18 C15         8.1147   -7.3497   -2.9088 C.ar      1 <0>        -0.0277
     19 C16         9.2874   -6.9963   -3.5504 C.ar      1 <0>        -0.2244
     20 C17         9.2425   -6.3651   -4.7798 C.ar      1 <0>        -0.0284
     21 C18         8.0252   -6.0914   -5.3729 C.ar      1 <0>        -0.1491
     22 C19        10.6168   -7.2992   -2.9085 C.3       1 <0>         0.5121
     23 F1         11.0519   -8.5659   -3.3125 F         1 <0>        -0.1766
     24 F2         11.5539   -6.3372   -3.3005 F         1 <0>        -0.1773
     25 F3         10.4787   -7.2756   -1.5165 F         1 <0>        -0.1790
     26 C20         3.3187   -6.7803   -6.7892 C.3       1 <0>        -0.1103
     27 S1          1.8442   -6.3223   -7.7413 S.3       1 <0>        -0.1075
     28 C21         2.0908   -7.0936   -9.3062 C.ar      1 <0>        -0.1365
     29 C22         3.2351   -7.8470   -9.5374 C.ar      1 <0>        -0.0931
     30 C23         3.4273   -8.4509  -10.7641 C.ar      1 <0>        -0.1960
     31 C24         2.4785   -8.3053  -11.7657 C.ar      1 <0>         0.1414
     32 C25         1.3359   -7.5535  -11.5361 C.ar      1 <0>        -0.1060
     33 C26         1.1386   -6.9536  -10.3078 C.ar      1 <0>        -0.0594
     34 C27         0.3064   -7.3959  -12.6253 C.3       1 <0>        -0.1054
     35 O4          2.6693   -8.8999  -12.9740 O.3       1 <0>        -0.2748
     36 C28         3.8684   -9.6588  -13.1414 C.3       1 <0>        -0.0084
     37 C29         3.9061  -10.2382  -14.5321 C.2       1 <0>         0.5015
     38 O5          2.9909  -10.0214  -15.3079 O.co2     1 <0>        -0.6696
     39 O6          4.8519  -10.9238  -14.8814 O.co2     1 <0>        -0.6870
     40 H1         -1.4438   -3.2988    1.9737 H         1 <0>         0.0550
     41 H2          0.1580   -3.0014    2.6908 H         1 <0>         0.0545
     42 H3         -1.1629   -1.8364    2.9486 H         1 <0>         0.0570
     43 H4         -1.1663   -1.3043    0.5267 H         1 <0>         0.0680
     44 H5          0.4354   -1.0069    1.2439 H         1 <0>         0.0675
     45 H6          1.2087   -3.2195    0.4345 H         1 <0>         0.0979
     46 H7         -0.3930   -3.5169   -0.2826 H         1 <0>         0.0987
     47 H8          1.2941   -4.6435   -1.3985 H         1 <0>         0.1348
     48 H9          2.3487   -5.8378   -3.2613 H         1 <0>         0.1329
     49 H10         2.6715   -2.1737   -5.4479 H         1 <0>         0.1408
     50 H11         1.6072   -0.9664   -3.5990 H         1 <0>         0.1409
     51 H12         2.3429   -6.5412   -4.8835 H         1 <0>         0.1100
     52 H13         4.4587   -6.0458   -3.6226 H         1 <0>         0.0817
     53 H14         4.4868   -7.6323   -4.4291 H         1 <0>         0.0881
     54 H15         5.9791   -7.3483   -2.9931 H         1 <0>         0.1385
     55 H16         8.1524   -7.8423   -1.9485 H         1 <0>         0.1387
     56 H17        10.1599   -6.0897   -5.2787 H         1 <0>         0.1442
     57 H18         7.9907   -5.6024   -6.3352 H         1 <0>         0.1460
     58 H19         4.2087   -6.4067   -7.2955 H         1 <0>         0.1092
     59 H20         3.3759   -7.8658   -6.7076 H         1 <0>         0.1080
     60 H21         3.9741   -7.9598   -8.7580 H         1 <0>         0.1183
     61 H22         4.3167   -9.0365  -10.9440 H         1 <0>         0.1319
     62 H23         0.2466   -6.3720  -10.1277 H         1 <0>         0.1292
     63 H24        -0.4272   -8.1986  -12.5508 H         1 <0>         0.0684
     64 H25        -0.1948   -6.4343  -12.5152 H         1 <0>         0.0609
     65 H26         0.7966   -7.4408  -13.5978 H         1 <0>         0.0801
     66 H27         4.7322   -9.0104  -12.9944 H         1 <0>         0.0593
     67 H28         3.8921  -10.4669  -12.4103 H         1 <0>         0.0592
@<TRIPOS>BOND
     1    1    2 1
     2    1   40 1
     3    1   41 1
     4    1   42 1
     5    2    3 1
     6    2   43 1
     7    2   44 1
     8    3    4 1
     9    3   45 1
    10    3   46 1
    11    4    5 2
    12    4    6 1
    13    6   11 ar
    14    6    7 ar
    15    7    8 ar
    16    7   47 1
    17    8    9 ar
    18    8   48 1
    19    9   10 ar
    20    9   12 1
    21   10   11 ar
    22   10   49 1
    23   11   50 1
    24   12   13 1
    25   13   14 1
    26   13   26 1
    27   13   51 1
    28   14   15 1
    29   14   52 1
    30   14   53 1
    31   15   16 1
    32   16   21 ar
    33   16   17 ar
    34   17   18 ar
    35   17   54 1
    36   18   19 ar
    37   18   55 1
    38   19   20 ar
    39   19   22 1
    40   20   21 ar
    41   20   56 1
    42   21   57 1
    43   22   23 1
    44   22   24 1
    45   22   25 1
    46   26   27 1
    47   26   58 1
    48   26   59 1
    49   27   28 1
    50   28   33 ar
    51   28   29 ar
    52   29   30 ar
    53   29   60 1
    54   30   31 ar
    55   30   61 1
    56   31   32 ar
    57   31   35 1
    58   32   33 ar
    59   32   34 1
    60   33   62 1
    61   34   63 1
    62   34   64 1
    63   34   65 1
    64   35   36 1
    65   36   37 1
    66   36   66 1
    67   36   67 1
    68   37   38 2
    69   37   39 1
@<TRIPOS>MOLECULE
CHEMBL231527__1
   67    69     0     0     0
SMALL
USER_CHARGES

@<TRIPOS>ATOM
      1 C1         -2.4361   -2.7061    1.1581 C.3       1 <0>        -0.1534
      2 C2         -1.6047   -1.9058    0.1536 C.3       1 <0>        -0.1168
      3 C3         -0.8346   -2.8683   -0.7527 C.3       1 <0>        -0.1672
      4 C4         -0.0158   -2.0800   -1.7422 C.2       1 <0>         0.3988
      5 O1         -0.0452   -0.8675   -1.7243 O.2       1 <0>        -0.4568
      6 C5          0.8179   -2.7797   -2.7282 C.ar      1 <0>        -0.2152
      7 C6          0.8491   -4.1795   -2.7548 C.ar      1 <0>        -0.0272
      8 C7          1.6288   -4.8280   -3.6777 C.ar      1 <0>        -0.2316
      9 C8          2.3880   -4.0981   -4.5860 C.ar      1 <0>         0.1683
     10 C9          2.3608   -2.7077   -4.5636 C.ar      1 <0>        -0.1594
     11 C10         1.5797   -2.0496   -3.6488 C.ar      1 <0>        -0.0173
     12 O2          3.1580   -4.7445   -5.4969 O.3       1 <0>        -0.2817
     13 C11         3.2329   -6.1675   -5.3899 C.3       1 <0>         0.1084
     14 C12         2.0427   -6.7969   -6.1166 C.3       1 <0>         0.0333
     15 O3          2.1364   -6.5175   -7.5149 O.3       1 <0>        -0.2923
     16 C13         1.1497   -7.0089   -8.3097 C.ar      1 <0>         0.1642
     17 C14         0.1096   -7.7401   -7.7545 C.ar      1 <0>        -0.2130
     18 C15        -0.8925   -8.2381   -8.5646 C.ar      1 <0>        -0.0276
     19 C16        -0.8592   -8.0088   -9.9277 C.ar      1 <0>        -0.2244
     20 C17         0.1766   -7.2808  -10.4835 C.ar      1 <0>        -0.0284
     21 C18         1.1778   -6.7754   -9.6770 C.ar      1 <0>        -0.1492
     22 C19        -1.9534   -8.5537  -10.8091 C.3       1 <0>         0.5121
     23 F1         -2.9822   -7.6113  -10.9118 F         1 <0>        -0.1778
     24 F2         -1.4373   -8.8213  -12.0816 F         1 <0>        -0.1766
     25 F3         -2.4563   -9.7344  -10.2521 F         1 <0>        -0.1784
     26 C20         4.5357   -6.6588   -6.0242 C.3       1 <0>        -0.1090
     27 S1          5.9462   -6.0310   -5.0720 S.3       1 <0>        -0.1112
     28 C21         7.3517   -6.6750   -5.9174 C.ar      1 <0>        -0.1358
     29 C22         7.1816   -7.4630   -7.0490 C.ar      1 <0>        -0.0927
     30 C23         8.2836   -7.9670   -7.7106 C.ar      1 <0>        -0.1961
     31 C24         9.5604   -7.6874   -7.2457 C.ar      1 <0>         0.1416
     32 C25         9.7314   -6.9009   -6.1162 C.ar      1 <0>        -0.1061
     33 C26         8.6307   -6.3905   -5.4563 C.ar      1 <0>        -0.0593
     34 C27        11.1190   -6.5983   -5.6120 C.3       1 <0>        -0.1053
     35 O4         10.6452   -8.1852   -7.8977 O.3       1 <0>        -0.2747
     36 C28        10.3957   -8.9877   -9.0534 C.3       1 <0>        -0.0084
     37 C29        11.7063   -9.4469   -9.6386 C.2       1 <0>         0.5016
     38 O5         12.7567   -9.1175   -9.1146 O.co2     1 <0>        -0.6696
     39 O6         11.7162  -10.1479  -10.6361 O.co2     1 <0>        -0.6869
     40 H1         -3.1403   -3.3422    0.6219 H         1 <0>         0.0545
     41 H2         -1.7755   -3.3260    1.7644 H         1 <0>         0.0550
     42 H3         -2.9847   -2.0204    1.8038 H         1 <0>         0.0570
     43 H4         -2.2653   -1.2859   -0.4527 H         1 <0>         0.0675
     44 H5         -0.9004   -1.2697    0.6898 H         1 <0>         0.0680
     45 H6         -0.1740   -3.4881   -0.1465 H         1 <0>         0.0988
     46 H7         -1.5389   -3.5044   -1.2890 H         1 <0>         0.0979
     47 H8          0.2605   -4.7473   -2.0494 H         1 <0>         0.1349
     48 H9          1.6536   -5.9075   -3.6991 H         1 <0>         0.1329
     49 H10         2.9528   -2.1455   -5.2706 H         1 <0>         0.1406
     50 H11         1.5556   -0.9699   -3.6353 H         1 <0>         0.1409
     51 H12         3.2099   -6.4546   -4.3386 H         1 <0>         0.1103
     52 H13         2.0507   -7.8756   -5.9604 H         1 <0>         0.0883
     53 H14         1.1154   -6.3798   -5.7241 H         1 <0>         0.0817
     54 H15         0.0835   -7.9200   -6.6899 H         1 <0>         0.1385
     55 H16        -1.7024   -8.8074   -8.1328 H         1 <0>         0.1387
     56 H17         0.2005   -7.1034  -11.5486 H         1 <0>         0.1442
     57 H18         1.9843   -6.2030  -10.1111 H         1 <0>         0.1460
     58 H19         4.5522   -7.7487   -6.0225 H         1 <0>         0.1083
     59 H20         4.5996   -6.2961   -7.0501 H         1 <0>         0.1093
     60 H21         6.1877   -7.6814   -7.4107 H         1 <0>         0.1186
     61 H22         8.1516   -8.5796   -8.5903 H         1 <0>         0.1320
     62 H23         8.7642   -5.7744   -4.5794 H         1 <0>         0.1293
     63 H24        11.4847   -5.6847   -6.0806 H         1 <0>         0.0687
     64 H25        11.0918   -6.4662   -4.5304 H         1 <0>         0.0608
     65 H26        11.7842   -7.4254   -5.8604 H         1 <0>         0.0800
     66 H27         9.7998   -9.8557   -8.7712 H         1 <0>         0.0591
     67 H28         9.8532   -8.3998   -9.7938 H         1 <0>         0.0595
@<TRIPOS>BOND
     1    1    2 1
     2    1   40 1
     3    1   41 1
     4    1   42 1
     5    2    3 1
     6    2   43 1
     7    2   44 1
     8    3    4 1
     9    3   45 1
    10    3   46 1
    11    4    5 2
    12    4    6 1
    13    6   11 ar
    14    6    7 ar
    15    7    8 ar
    16    7   47 1
    17    8    9 ar
    18    8   48 1
    19    9   10 ar
    20    9   12 1
    21   10   11 ar
    22   10   49 1
    23   11   50 1
    24   12   13 1
    25   13   14 1
    26   13   26 1
    27   13   51 1
    28   14   15 1
    29   14   52 1
    30   14   53 1
    31   15   16 1
    32   16   21 ar
    33   16   17 ar
    34   17   18 ar
    35   17   54 1
    36   18   19 ar
    37   18   55 1
    38   19   20 ar
    39   19   22 1
    40   20   21 ar
    41   20   56 1
    42   21   57 1
    43   22   23 1
    44   22   24 1
    45   22   25 1
    46   26   27 1
    47   26   58 1
    48   26   59 1
    49   27   28 1
    50   28   33 ar
    51   28   29 ar
    52   29   30 ar
    53   29   60 1
    54   30   31 ar
    55   30   61 1
    56   31   32 ar
    57   31   35 1
    58   32   33 ar
    59   32   34 1
    60   33   62 1
    61   34   63 1
    62   34   64 1
    63   34   65 1
    64   35   36 1
    65   36   37 1
    66   36   66 1
    67   36   67 1
    68   37   38 2
    69   37   39 1
@<TRIPOS>MOLECULE
CHEMBL400625
   49    51     0     0     0
SMALL
USER_CHARGES

@<TRIPOS>ATOM
      1 C1          0.2753    1.1890   -0.1587 C.3       1 <0>        -0.0961
      2 C2          0.1609   -0.3095   -0.0466 C.ar      1 <0>        -0.1220
      3 C3          0.2118   -1.0926   -1.1830 C.ar      1 <0>        -0.0688
      4 C4          0.1063   -2.4737   -1.0794 C.ar      1 <0>        -0.1338
      5 C5         -0.0504   -3.0658    0.1677 C.ar      1 <0>        -0.1075
      6 C6         -0.1011   -2.2810    1.3025 C.ar      1 <0>        -0.1344
      7 C7          0.0101   -0.9020    1.1983 C.ar      1 <0>         0.1733
      8 O1         -0.0339   -0.1302    2.3173 O.3       1 <0>        -0.2966
      9 C8         -0.0637   -0.8104    3.5737 C.3       1 <0>         0.0286
     10 C9          1.1832   -1.6868    3.7089 C.3       1 <0>        -0.1738
     11 C10        -0.0914    0.2155    4.7085 C.3       1 <0>        -0.1147
     12 C11        -1.2958   -1.6749    3.6479 C.2       1 <0>         0.4812
     13 O2         -2.0761   -1.7058    2.7116 O.co2     1 <0>        -0.6686
     14 O3         -1.5123   -2.3435    4.6442 O.co2     1 <0>        -0.6850
     15 S1          0.1706   -3.4741   -2.5285 S.3       1 <0>        -0.1001
     16 C12        -0.0049   -5.1671   -1.9011 C.3       1 <0>        -0.0282
     17 C13         0.0341   -6.1366   -3.0542 C.2       1 <0>         0.2799
     18 N1         -1.0659   -6.4878   -3.6752 N.2       1 <0>        -0.4973
     19 C14        -0.9585   -7.3441   -4.6809 C.2       1 <0>         0.0828
     20 S2          0.6954   -7.6383   -4.7318 S.3       1 <0>         0.3156
     21 N2          1.1702   -6.6469   -3.4661 N.2       1 <0>        -0.4498
     22 C15        -2.0252   -7.9005   -5.5416 C.ar      1 <0>         0.0082
     23 C16        -3.3538   -7.5242   -5.3422 C.ar      1 <0>        -0.0632
     24 C17        -4.3442   -8.0467   -6.1483 C.ar      1 <0>        -0.0694
     25 C18        -4.0220   -8.9421   -7.1526 C.ar      1 <0>        -0.1640
     26 C19        -2.7065   -9.3192   -7.3554 C.ar      1 <0>        -0.0685
     27 C20        -1.7062   -8.7994   -6.5598 C.ar      1 <0>        -0.0908
     28 C21        -5.1088   -9.5093   -8.0290 C.3       1 <0>         0.5083
     29 F1         -5.2883   -8.6827   -9.1434 F         1 <0>        -0.1737
     30 F2         -4.7439  -10.7915   -8.4535 F         1 <0>        -0.1754
     31 F3         -6.3031   -9.5804   -7.3040 F         1 <0>        -0.1739
     32 H1          1.3242    1.4790   -0.0960 H         1 <0>         0.0613
     33 H2         -0.1350    1.5142   -1.1147 H         1 <0>         0.0588
     34 H3         -0.2804    1.6576    0.6535 H         1 <0>         0.0698
     35 H4          0.3333   -0.6313   -2.1520 H         1 <0>         0.1239
     36 H5         -0.1329   -4.1396    0.2495 H         1 <0>         0.1139
     37 H6         -0.2229   -2.7410    2.2720 H         1 <0>         0.1441
     38 H7          2.0591   -1.0533    3.8487 H         1 <0>         0.0518
     39 H8          1.0715   -2.3473    4.5687 H         1 <0>         0.0754
     40 H9          1.3072   -2.2840    2.8056 H         1 <0>         0.0661
     41 H10        -0.9332    0.8931    4.5652 H         1 <0>         0.0572
     42 H11        -0.1989   -0.3007    5.6625 H         1 <0>         0.0785
     43 H12         0.8379    0.7851    4.7062 H         1 <0>         0.0509
     44 H13         0.8123   -5.3865   -1.2141 H         1 <0>         0.1155
     45 H14        -0.9559   -5.2637   -1.3773 H         1 <0>         0.1201
     46 H15        -3.6066   -6.8256   -4.5583 H         1 <0>         0.1529
     47 H16        -5.3731   -7.7565   -5.9948 H         1 <0>         0.1472
     48 H17        -2.4615  -10.0188   -8.1409 H         1 <0>         0.1471
     49 H18        -0.6791   -9.0911   -6.7220 H         1 <0>         0.1432
@<TRIPOS>BOND
     1    1    2 1
     2    1   32 1
     3    1   33 1
     4    1   34 1
     5    2    7 ar
     6    2    3 ar
     7    3    4 ar
     8    3   35 1
     9    4    5 ar
    10    4   15 1
    11    5    6 ar
    12    5   36 1
    13    6    7 ar
    14    6   37 1
    15    7    8 1
    16    8    9 1
    17    9   10 1
    18    9   11 1
    19    9   12 1
    20   10   38 1
    21   10   39 1
    22   10   40 1
    23   11   41 1
    24   11   42 1
    25   11   43 1
    26   12   13 2
    27   12   14 1
    28   15   16 1
    29   16   17 1
    30   16   44 1
    31   16   45 1
    32   17   21 2
    33   17   18 1
    34   18   19 2
    35   19   20 1
    36   19   22 1
    37   20   21 1
    38   22   27 ar
    39   22   23 ar
    40   23   24 ar
    41   23   46 1
    42   24   25 ar
    43   24   47 1
    44   25   26 ar
    45   25   28 1
    46   26   27 ar
    47   26   48 1
    48   27   49 1
    49   28   29 1
    50   28   30 1
    51   28   31 1
@<TRIPOS>MOLECULE
CHEMBL375812
   61    65     0     0     0
SMALL
USER_CHARGES

@<TRIPOS>ATOM
      1 C1          0.1780    2.4489    0.3970 C.ar      1 <0>        -0.0286
      2 C2          1.4085    3.0610    0.5033 C.ar      1 <0>        -0.1524
      3 C3          2.5715    2.3128    0.3766 C.ar      1 <0>         0.1553
      4 C4          2.5000    0.9457    0.1428 C.ar      1 <0>        -0.2074
      5 C5          1.2734    0.3262    0.0356 C.ar      1 <0>        -0.0474
      6 C6          0.1020    1.0750    0.1620 C.ar      1 <0>        -0.0593
      7 C7         -1.2155    0.4145    0.0478 C.2       1 <0>         0.1724
      8 N1         -2.4278    0.9379    0.1301 N.2       1 <0>        -0.5058
      9 C8         -3.5287    0.2075    0.0052 C.2       1 <0>         0.0629
     10 C9         -3.3665   -1.1277   -0.2146 C.2       1 <0>        -0.1813
     11 S1         -1.6020   -1.3078   -0.2471 S.3       1 <0>         0.0014
     12 C10        -4.4243   -2.1639   -0.3878 C.3       1 <0>        -0.0352
     13 C11        -5.7630   -1.5685    0.0767 C.3       1 <0>        -0.1144
     14 C12        -5.9214   -0.1770   -0.5427 C.3       1 <0>        -0.1213
     15 C13        -4.9328    0.7989    0.0962 C.3       1 <0>        -0.0415
     16 O1          3.7824    2.9198    0.4811 O.3       1 <0>        -0.3066
     17 C14         4.9379    2.0910    0.3406 C.3       1 <0>         0.0612
     18 C15         6.1990    2.9449    0.4873 C.3       1 <0>        -0.1192
     19 C16         7.4362    2.0574    0.3368 C.3       1 <0>         0.0656
     20 O2          8.6140    2.8549    0.4738 O.3       1 <0>        -0.3152
     21 C17         9.8082    2.2154    0.3656 C.ar      1 <0>         0.1139
     22 C18         9.8465    0.8492    0.1267 C.ar      1 <0>        -0.2082
     23 C19        11.0617    0.2042    0.0176 C.ar      1 <0>        -0.0704
     24 C20        12.2440    0.9149    0.1461 C.ar      1 <0>        -0.1078
     25 C21        12.2084    2.2763    0.3843 C.ar      1 <0>        -0.0610
     26 C22        10.9912    2.9271    0.4880 C.ar      1 <0>        -0.1400
     27 C23        13.6194    2.8154    0.4838 C.3       1 <0>        -0.0829
     28 C24        14.5097    1.5764    0.7171 C.3       1 <0>        -0.1019
     29 C25        13.6817    0.4466    0.0691 C.3       1 <0>        -0.0266
     30 H1         13.9792    0.3081   -0.9703 H         1 <0>         0.0889
     31 C26        13.8582   -0.8565    0.8511 C.3       1 <0>        -0.1741
     32 C27        15.2569   -1.3791    0.6474 C.2       1 <0>         0.4909
     33 O3         16.0060   -0.8253   -0.1391 O.co2     1 <0>        -0.6953
     34 O4         15.6394   -2.3556    1.2692 O.co2     1 <0>        -0.7082
     35 H2         -0.7260    3.0307    0.4997 H         1 <0>         0.1429
     36 H3          1.4681    4.1239    0.6851 H         1 <0>         0.1410
     37 H4          3.4067    0.3673    0.0444 H         1 <0>         0.1383
     38 H5          1.2186   -0.7369   -0.1465 H         1 <0>         0.1300
     39 H6         -4.4928   -2.4471   -1.4381 H         1 <0>         0.0852
     40 H7         -4.1828   -3.0397    0.2145 H         1 <0>         0.0830
     41 H8         -6.5815   -2.2098   -0.2501 H         1 <0>         0.0772
     42 H9         -5.7699   -1.4879    1.1637 H         1 <0>         0.0699
     43 H10        -5.7309   -0.2347   -1.6144 H         1 <0>         0.0671
     44 H11        -6.9384    0.1786   -0.3771 H         1 <0>         0.0754
     45 H12        -5.1968    0.9538    1.1423 H         1 <0>         0.0811
     46 H13        -4.9637    1.7502   -0.4351 H         1 <0>         0.0827
     47 H14         4.9287    1.3210    1.1120 H         1 <0>         0.0703
     48 H15         4.9301    1.6204   -0.6426 H         1 <0>         0.0701
     49 H16         6.2081    3.7148   -0.2842 H         1 <0>         0.0870
     50 H17         6.2068    3.4155    1.4704 H         1 <0>         0.0871
     51 H18         7.4270    1.2874    1.1082 H         1 <0>         0.0646
     52 H19         7.4284    1.5868   -0.6464 H         1 <0>         0.0644
     53 H20         8.9271    0.2914    0.0267 H         1 <0>         0.1233
     54 H21        11.0911   -0.8592   -0.1684 H         1 <0>         0.1224
     55 H22        10.9632    3.9914    0.6692 H         1 <0>         0.1241
     56 H23        13.9003    3.3136   -0.4442 H         1 <0>         0.0794
     57 H24        13.7026    3.5046    1.3241 H         1 <0>         0.0709
     58 H25        15.4705    1.6896    0.2149 H         1 <0>         0.0855
     59 H26        14.6475    1.3935    1.7828 H         1 <0>         0.0643
     60 H27        13.6912   -0.6692    1.9118 H         1 <0>         0.0567
     61 H28        13.1392   -1.5943    0.4949 H         1 <0>         0.0557
@<TRIPOS>BOND
     1    1    6 ar
     2    1    2 ar
     3    1   35 1
     4    2    3 ar
     5    2   36 1
     6    3    4 ar
     7    3   16 1
     8    4    5 ar
     9    4   37 1
    10    5    6 ar
    11    5   38 1
    12    6    7 1
    13    7   11 1
    14    7    8 2
    15    8    9 1
    16    9   15 1
    17    9   10 2
    18   10   11 1
    19   10   12 1
    20   12   13 1
    21   12   39 1
    22   12   40 1
    23   13   14 1
    24   13   41 1
    25   13   42 1
    26   14   15 1
    27   14   43 1
    28   14   44 1
    29   15   45 1
    30   15   46 1
    31   16   17 1
    32   17   18 1
    33   17   47 1
    34   17   48 1
    35   18   19 1
    36   18   49 1
    37   18   50 1
    38   19   20 1
    39   19   51 1
    40   19   52 1
    41   20   21 1
    42   21   26 ar
    43   21   22 ar
    44   22   23 ar
    45   22   53 1
    46   23   24 ar
    47   23   54 1
    48   24   29 1
    49   24   25 ar
    50   25   26 ar
    51   25   27 1
    52   26   55 1
    53   27   28 1
    54   27   56 1
    55   27   57 1
    56   28   29 1
    57   28   58 1
    58   28   59 1
    59   29   30 1
    60   29   31 1
    61   31   32 1
    62   31   60 1
    63   31   61 1
    64   32   33 2
    65   32   34 1
@<TRIPOS>MOLECULE
CHEMBL117738
   67    70     0     0     0
SMALL
USER_CHARGES

@<TRIPOS>ATOM
      1 C1         -0.6840    1.6279    0.0801 C.3       1 <0>        -0.1526
      2 C2         -0.4262    0.1223   -0.0084 C.3       1 <0>        -0.1160
      3 C3         -1.7438   -0.6325    0.1790 C.3       1 <0>        -0.0719
      4 C4         -1.4900   -2.1154    0.0918 C.ar      1 <0>        -0.1094
      5 C5         -1.6581   -2.7733   -1.1082 C.ar      1 <0>        -0.0703
      6 C6         -1.4227   -4.1466   -1.1879 C.ar      1 <0>        -0.0823
      7 C7         -1.0178   -4.8488   -0.0515 C.ar      1 <0>        -0.0766
      8 C8         -0.8519   -4.1841    1.1445 C.ar      1 <0>        -0.2077
      9 C9         -1.0816   -2.8164    1.2185 C.ar      1 <0>         0.1315
     10 O1         -0.9117   -2.1636    2.3979 O.3       1 <0>        -0.3064
     11 C10        -0.4902   -2.9455    3.5173 C.3       1 <0>         0.0639
     12 C11        -0.3541   -2.0446    4.7464 C.3       1 <0>        -0.1198
     13 C12         0.0973   -2.8817    5.9449 C.3       1 <0>         0.0636
     14 O2          0.2244   -2.0403    7.0929 O.3       1 <0>        -0.3080
     15 C13         0.6201   -2.6318    8.2507 C.ar      1 <0>         0.1360
     16 C14         0.8862   -3.9932    8.2798 C.ar      1 <0>        -0.1913
     17 C15         1.2886   -4.5920    9.4577 C.ar      1 <0>        -0.0708
     18 C16         1.4264   -3.8357   10.6072 C.ar      1 <0>        -0.1323
     19 C17         1.1614   -2.4792   10.5809 C.ar      1 <0>        -0.0409
     20 C18         0.7641   -1.8744    9.4038 C.ar      1 <0>        -0.1186
     21 C19         1.3121   -1.6581   11.8356 C.3       1 <0>        -0.0338
     22 C20         2.6770   -1.8700   12.4756 C.2       1 <0>         0.5343
     23 O3          3.7096   -1.5780   11.9115 O.2       1 <0>        -0.4481
     24 N1          2.6585   -2.3949   13.6892 N.am      1 <0>        -0.6896
     25 C21         1.5263   -2.7279   14.3364 C.2       1 <0>         0.5628
     26 O4          1.4115   -3.2120   15.4457 O.2       1 <0>        -0.4136
     27 S1          0.2314   -2.2919   13.1849 S.3       1 <0>        -0.1361
     28 C22        -1.6022   -4.8556   -2.4720 C.2       1 <0>        -0.1263
     29 C23        -2.0734   -6.0949   -2.4848 C.2       1 <0>        -0.1052
     30 C24        -2.6161   -6.7315   -1.2245 C.3       1 <0>        -0.0973
     31 C25        -4.0068   -7.3000   -1.5258 C.3       1 <0>        -0.1169
     32 C26        -3.9199   -8.2475   -2.7235 C.3       1 <0>        -0.1215
     33 C27        -3.4925   -7.4702   -3.9696 C.3       1 <0>        -0.1179
     34 C28        -2.0878   -6.9061   -3.7615 C.3       1 <0>        -0.0841
     35 H1          0.2547    2.1656   -0.0534 H         1 <0>         0.0540
     36 H2         -1.3859    1.9228   -0.6999 H         1 <0>         0.0534
     37 H3         -1.1043    1.8677    1.0568 H         1 <0>         0.0547
     38 H4         -0.0059   -0.1175   -0.9851 H         1 <0>         0.0597
     39 H5          0.2757   -0.1726    0.7716 H         1 <0>         0.0631
     40 H6         -2.1642   -0.3927    1.1557 H         1 <0>         0.0754
     41 H7         -2.4457   -0.3375   -0.6010 H         1 <0>         0.0697
     42 H8         -1.9718   -2.2266   -1.9852 H         1 <0>         0.1293
     43 H9         -0.8351   -5.9117   -0.1092 H         1 <0>         0.1293
     44 H10        -0.5390   -4.7267    2.0243 H         1 <0>         0.1272
     45 H11        -1.2282   -3.7225    3.7163 H         1 <0>         0.0658
     46 H12         0.4724   -3.4067    3.2965 H         1 <0>         0.0659
     47 H13         0.3840   -1.2675    4.5474 H         1 <0>         0.0882
     48 H14        -1.3167   -1.5834    4.9672 H         1 <0>         0.0881
     49 H15        -0.6408   -3.6587    6.1439 H         1 <0>         0.0685
     50 H16         1.0599   -3.3429    5.7241 H         1 <0>         0.0684
     51 H17         0.7783   -4.5843    7.3824 H         1 <0>         0.1337
     52 H18         1.4955   -5.6517    9.4810 H         1 <0>         0.1337
     53 H19         1.7412   -4.3057   11.5272 H         1 <0>         0.1208
     54 H20         0.5615   -0.8138    9.3827 H         1 <0>         0.1406
     55 H21         1.1245   -0.6024   11.6399 H         1 <0>         0.1697
     56 H22         3.5055   -2.5483   14.1364 H         1 <0>         0.4203
     57 H23        -1.3496   -4.3643   -3.4000 H         1 <0>         0.1188
     58 H24        -1.9530   -7.5358   -0.9058 H         1 <0>         0.0708
     59 H25        -2.6900   -5.9808   -0.4377 H         1 <0>         0.0824
     60 H26        -4.3726   -7.8459   -0.6562 H         1 <0>         0.0637
     61 H27        -4.6910   -6.4836   -1.7570 H         1 <0>         0.0626
     62 H28        -3.1888   -9.0286   -2.5152 H         1 <0>         0.0620
     63 H29        -4.8951   -8.7024   -2.8970 H         1 <0>         0.0620
     64 H30        -3.4938   -8.1368   -4.8320 H         1 <0>         0.0643
     65 H31        -4.1888   -6.6498   -4.1430 H         1 <0>         0.0628
     66 H32        -1.8224   -6.2675   -4.6041 H         1 <0>         0.0691
     67 H33        -1.3749   -7.7268   -3.6819 H         1 <0>         0.0752
@<TRIPOS>BOND
     1    1    2 1
     2    1   35 1
     3    1   36 1
     4    1   37 1
     5    2    3 1
     6    2   38 1
     7    2   39 1
     8    3    4 1
     9    3   40 1
    10    3   41 1
    11    4    9 ar
    12    4    5 ar
    13    5    6 ar
    14    5   42 1
    15    6    7 ar
    16    6   28 1
    17    7    8 ar
    18    7   43 1
    19    8    9 ar
    20    8   44 1
    21    9   10 1
    22   10   11 1
    23   11   12 1
    24   11   45 1
    25   11   46 1
    26   12   13 1
    27   12   47 1
    28   12   48 1
    29   13   14 1
    30   13   49 1
    31   13   50 1
    32   14   15 1
    33   15   20 ar
    34   15   16 ar
    35   16   17 ar
    36   16   51 1
    37   17   18 ar
    38   17   52 1
    39   18   19 ar
    40   18   53 1
    41   19   20 ar
    42   19   21 1
    43   20   54 1
    44   21   27 1
    45   21   22 1
    46   21   55 1
    47   22   23 2
    48   22   24 am
    49   24   25 am
    50   24   56 1
    51   25   26 2
    52   25   27 1
    53   28   29 2
    54   28   57 1
    55   29   34 1
    56   29   30 1
    57   30   31 1
    58   30   58 1
    59   30   59 1
    60   31   32 1
    61   31   60 1
    62   31   61 1
    63   32   33 1
    64   32   62 1
    65   32   63 1
    66   33   34 1
    67   33   64 1
    68   33   65 1
    69   34   66 1
    70   34   67 1
@<TRIPOS>MOLECULE
CHEMBL117738__1
   67    70     0     0     0
SMALL
USER_CHARGES

@<TRIPOS>ATOM
      1 C1         -0.6840    1.6279    0.0801 C.3       1 <0>        -0.1526
      2 C2         -0.4262    0.1223   -0.0084 C.3       1 <0>        -0.1159
      3 C3         -1.7438   -0.6325    0.1790 C.3       1 <0>        -0.0719
      4 C4         -1.4900   -2.1154    0.0918 C.ar      1 <0>        -0.1094
      5 C5         -1.6581   -2.7733   -1.1082 C.ar      1 <0>        -0.0703
      6 C6         -1.4227   -4.1466   -1.1879 C.ar      1 <0>        -0.0823
      7 C7         -1.0178   -4.8488   -0.0515 C.ar      1 <0>        -0.0766
      8 C8         -0.8519   -4.1841    1.1445 C.ar      1 <0>        -0.2077
      9 C9         -1.0816   -2.8164    1.2185 C.ar      1 <0>         0.1315
     10 O1         -0.9117   -2.1636    2.3979 O.3       1 <0>        -0.3064
     11 C10        -0.4902   -2.9455    3.5173 C.3       1 <0>         0.0639
     12 C11        -0.3541   -2.0446    4.7464 C.3       1 <0>        -0.1198
     13 C12         0.0973   -2.8817    5.9449 C.3       1 <0>         0.0636
     14 O2          0.2244   -2.0403    7.0929 O.3       1 <0>        -0.3080
     15 C13         0.6201   -2.6318    8.2507 C.ar      1 <0>         0.1361
     16 C14         0.8862   -3.9932    8.2798 C.ar      1 <0>        -0.1914
     17 C15         1.2886   -4.5920    9.4577 C.ar      1 <0>        -0.0707
     18 C16         1.4264   -3.8357   10.6072 C.ar      1 <0>        -0.1323
     19 C17         1.1614   -2.4792   10.5809 C.ar      1 <0>        -0.0408
     20 C18         0.7641   -1.8744    9.4038 C.ar      1 <0>        -0.1187
     21 C19         1.3121   -1.6581   11.8356 C.3       1 <0>        -0.0337
     22 C20         0.5465   -2.2760   12.9972 C.2       1 <0>         0.5343
     23 O3         -0.6583   -2.4103   12.9808 O.2       1 <0>        -0.4482
     24 N1          1.2862   -2.6564   14.0251 N.am      1 <0>        -0.6896
     25 C21         2.6244   -2.5187   14.0676 C.2       1 <0>         0.5629
     26 O4          3.3829   -2.8370   14.9628 O.2       1 <0>        -0.4136
     27 S1          3.0262   -1.7593   12.5007 S.3       1 <0>        -0.1365
     28 C22        -1.6022   -4.8556   -2.4720 C.2       1 <0>        -0.1263
     29 C23        -2.0734   -6.0949   -2.4848 C.2       1 <0>        -0.1052
     30 C24        -2.6161   -6.7315   -1.2245 C.3       1 <0>        -0.0974
     31 C25        -4.0068   -7.3000   -1.5258 C.3       1 <0>        -0.1169
     32 C26        -3.9199   -8.2475   -2.7235 C.3       1 <0>        -0.1215
     33 C27        -3.4925   -7.4702   -3.9696 C.3       1 <0>        -0.1179
     34 C28        -2.0878   -6.9061   -3.7615 C.3       1 <0>        -0.0841
     35 H1          0.2547    2.1656   -0.0534 H         1 <0>         0.0540
     36 H2         -1.3859    1.9228   -0.6999 H         1 <0>         0.0534
     37 H3         -1.1043    1.8677    1.0568 H         1 <0>         0.0546
     38 H4         -0.0059   -0.1175   -0.9851 H         1 <0>         0.0597
     39 H5          0.2757   -0.1726    0.7716 H         1 <0>         0.0631
     40 H6         -2.1642   -0.3927    1.1557 H         1 <0>         0.0753
     41 H7         -2.4457   -0.3375   -0.6010 H         1 <0>         0.0697
     42 H8         -1.9718   -2.2266   -1.9852 H         1 <0>         0.1293
     43 H9         -0.8351   -5.9117   -0.1092 H         1 <0>         0.1293
     44 H10        -0.5390   -4.7267    2.0243 H         1 <0>         0.1272
     45 H11        -1.2282   -3.7225    3.7163 H         1 <0>         0.0657
     46 H12         0.4724   -3.4067    3.2965 H         1 <0>         0.0660
     47 H13         0.3840   -1.2675    4.5474 H         1 <0>         0.0882
     48 H14        -1.3167   -1.5834    4.9672 H         1 <0>         0.0881
     49 H15        -0.6408   -3.6587    6.1439 H         1 <0>         0.0683
     50 H16         1.0599   -3.3429    5.7241 H         1 <0>         0.0685
     51 H17         0.7783   -4.5843    7.3824 H         1 <0>         0.1337
     52 H18         1.4955   -5.6517    9.4810 H         1 <0>         0.1337
     53 H19         1.7412   -4.3057   11.5272 H         1 <0>         0.1208
     54 H20         0.5615   -0.8138    9.3827 H         1 <0>         0.1406
     55 H21         1.0124   -0.6237   11.6674 H         1 <0>         0.1697
     56 H22         0.8409   -3.0555   14.7889 H         1 <0>         0.4203
     57 H23        -1.3496   -4.3643   -3.4000 H         1 <0>         0.1189
     58 H24        -1.9530   -7.5358   -0.9058 H         1 <0>         0.0708
     59 H25        -2.6900   -5.9808   -0.4377 H         1 <0>         0.0824
     60 H26        -4.3726   -7.8459   -0.6562 H         1 <0>         0.0637
     61 H27        -4.6910   -6.4836   -1.7570 H         1 <0>         0.0626
     62 H28        -3.1888   -9.0286   -2.5152 H         1 <0>         0.0620
     63 H29        -4.8951   -8.7024   -2.8970 H         1 <0>         0.0620
     64 H30        -3.4938   -8.1368   -4.8320 H         1 <0>         0.0643
     65 H31        -4.1888   -6.6498   -4.1430 H         1 <0>         0.0628
     66 H32        -1.8224   -6.2675   -4.6041 H         1 <0>         0.0692
     67 H33        -1.3749   -7.7268   -3.6819 H         1 <0>         0.0753
@<TRIPOS>BOND
     1    1    2 1
     2    1   35 1
     3    1   36 1
     4    1   37 1
     5    2    3 1
     6    2   38 1
     7    2   39 1
     8    3    4 1
     9    3   40 1
    10    3   41 1
    11    4    9 ar
    12    4    5 ar
    13    5    6 ar
    14    5   42 1
    15    6    7 ar
    16    6   28 1
    17    7    8 ar
    18    7   43 1
    19    8    9 ar
    20    8   44 1
    21    9   10 1
    22   10   11 1
    23   11   12 1
    24   11   45 1
    25   11   46 1
    26   12   13 1
    27   12   47 1
    28   12   48 1
    29   13   14 1
    30   13   49 1
    31   13   50 1
    32   14   15 1
    33   15   20 ar
    34   15   16 ar
    35   16   17 ar
    36   16   51 1
    37   17   18 ar
    38   17   52 1
    39   18   19 ar
    40   18   53 1
    41   19   20 ar
    42   19   21 1
    43   20   54 1
    44   21   27 1
    45   21   22 1
    46   21   55 1
    47   22   23 2
    48   22   24 am
    49   24   25 am
    50   24   56 1
    51   25   26 2
    52   25   27 1
    53   28   29 2
    54   28   57 1
    55   29   34 1
    56   29   30 1
    57   30   31 1
    58   30   58 1
    59   30   59 1
    60   31   32 1
    61   31   60 1
    62   31   61 1
    63   32   33 1
    64   32   62 1
    65   32   63 1
    66   33   34 1
    67   33   64 1
    68   33   65 1
    69   34   66 1
    70   34   67 1
@<TRIPOS>MOLECULE
CHEMBL240437
   69    72     0     0     0
SMALL
USER_CHARGES

@<TRIPOS>ATOM
      1 C1         -2.0150   -8.9631    1.9248 C.3       1 <0>        -0.1481
      2 C2         -3.4983   -9.0612    2.2866 C.3       1 <0>        -0.0884
      3 C3         -4.1975   -7.7865    1.8901 C.ar      1 <0>        -0.0611
      4 C4         -4.2792   -6.7374    2.7880 C.ar      1 <0>        -0.1306
      5 C5         -4.9183   -5.5677    2.4303 C.ar      1 <0>        -0.0676
      6 C6         -5.4820   -5.4446    1.1616 C.ar      1 <0>        -0.0543
      7 C7         -5.3966   -6.5049    0.2610 C.ar      1 <0>        -0.0647
      8 C8         -4.7502   -7.6678    0.6276 C.ar      1 <0>        -0.1286
      9 C9         -6.1705   -4.1902    0.7715 C.ar      1 <0>         0.3675
     10 N1         -6.2365   -3.1916    1.6412 N.ar      1 <0>        -0.5154
     11 C10        -6.8426   -2.0566    1.3294 C.ar      1 <0>         0.1547
     12 C11        -7.4131   -1.9160    0.0783 C.ar      1 <0>        -0.1917
     13 C12        -7.3279   -2.9850   -0.8171 C.ar      1 <0>         0.4315
     14 N2         -6.7000   -4.0934   -0.4399 N.ar      1 <0>        -0.5187
     15 N3         -7.8857   -2.8888   -2.0817 N.pl3     1 <0>        -0.6598
     16 C13        -9.2828   -3.2734   -2.2973 C.3       1 <0>         0.1166
     17 C14        -7.0784   -2.4026   -3.2033 C.3       1 <0>         0.1519
     18 C15        -6.3813   -3.5845   -3.8801 C.3       1 <0>        -0.1387
     19 C16        -5.5381   -3.0766   -5.0514 C.3       1 <0>         0.0642
     20 O1         -4.8870   -4.1805   -5.6835 O.3       1 <0>        -0.3166
     21 C17        -4.0932   -3.9001   -6.7504 C.ar      1 <0>         0.1158
     22 C18        -3.9390   -2.5889   -7.1772 C.ar      1 <0>        -0.2090
     23 C19        -3.1318   -2.3092   -8.2610 C.ar      1 <0>        -0.0703
     24 C20        -2.4748   -3.3321   -8.9255 C.ar      1 <0>        -0.1105
     25 C21        -2.6270   -4.6394   -8.5022 C.ar      1 <0>        -0.0607
     26 C22        -3.4310   -4.9224   -7.4116 C.ar      1 <0>        -0.1422
     27 C23        -1.8136   -5.5612   -9.3854 C.3       1 <0>        -0.0842
     28 C24        -1.5008   -4.7356  -10.6514 C.3       1 <0>        -0.0980
     29 C25        -1.5485   -3.2866  -10.1220 C.3       1 <0>        -0.0249
     30 H1         -0.5533   -2.9622   -9.8178 H         1 <0>         0.0846
     31 C26        -2.1096   -2.3485  -11.1925 C.3       1 <0>        -0.1739
     32 C27        -1.1153   -2.2180  -12.3174 C.2       1 <0>         0.4906
     33 O2         -0.0937   -2.8833  -12.3082 O.co2     1 <0>        -0.6944
     34 O3         -1.3325   -1.4472  -13.2367 O.co2     1 <0>        -0.7087
     35 C28        -8.1115   -0.6386   -0.3109 C.3       1 <0>        -0.0682
     36 C29        -9.6001   -0.7485    0.0251 C.3       1 <0>        -0.1475
     37 H2         -1.5093   -9.8851    2.2116 H         1 <0>         0.0588
     38 H3         -1.9124   -8.8116    0.8503 H         1 <0>         0.0576
     39 H4         -1.5665   -8.1227    2.4547 H         1 <0>         0.0563
     40 H5         -3.9468   -9.9016    1.7567 H         1 <0>         0.0734
     41 H6         -3.6009   -9.2128    3.3612 H         1 <0>         0.0728
     42 H7         -3.8423   -6.8340    3.7710 H         1 <0>         0.1258
     43 H8         -4.9818   -4.7494    3.1322 H         1 <0>         0.1356
     44 H9         -5.8320   -6.4151   -0.7233 H         1 <0>         0.1356
     45 H10        -4.6793   -8.4883   -0.0711 H         1 <0>         0.1266
     46 H11        -6.8912   -1.2493    2.0452 H         1 <0>         0.1684
     47 H12        -9.9203   -2.3942   -2.2034 H         1 <0>         0.0468
     48 H13        -9.3931   -3.6973   -3.2954 H         1 <0>         0.0649
     49 H14        -9.5745   -4.0147   -1.5534 H         1 <0>         0.0555
     50 H15        -7.7233   -1.8998   -3.9241 H         1 <0>         0.0803
     51 H16        -6.3295   -1.7015   -2.8349 H         1 <0>         0.0665
     52 H17        -5.7364   -4.0872   -3.1593 H         1 <0>         0.0772
     53 H18        -7.1302   -4.2856   -4.2485 H         1 <0>         0.0750
     54 H19        -6.1830   -2.5739   -5.7722 H         1 <0>         0.0604
     55 H20        -4.7893   -2.3755   -4.6830 H         1 <0>         0.0579
     56 H21        -4.4500   -1.7887   -6.6624 H         1 <0>         0.1228
     57 H22        -3.0120   -1.2885   -8.5929 H         1 <0>         0.1217
     58 H23        -3.5461   -5.9431   -7.0777 H         1 <0>         0.1227
     59 H24        -0.8897   -5.8482   -8.8833 H         1 <0>         0.0785
     60 H25        -2.3945   -6.4462   -9.6450 H         1 <0>         0.0700
     61 H26        -0.5092   -4.9755  -11.0352 H         1 <0>         0.0877
     62 H27        -2.2620   -4.8942  -11.4153 H         1 <0>         0.0632
     63 H28        -3.0440   -2.7558  -11.5789 H         1 <0>         0.0570
     64 H29        -2.2943   -1.3673  -10.7552 H         1 <0>         0.0550
     65 H30        -7.6757    0.1958    0.2385 H         1 <0>         0.0741
     66 H31        -7.9921   -0.4708   -1.3813 H         1 <0>         0.0796
     67 H32       -10.0114   -1.6464   -0.4361 H         1 <0>         0.0575
     68 H33        -9.7253   -0.8055    1.1064 H         1 <0>         0.0534
     69 H34       -10.1242    0.1282   -0.3555 H         1 <0>         0.0614
@<TRIPOS>BOND
     1    1    2 1
     2    1   37 1
     3    1   38 1
     4    1   39 1
     5    2    3 1
     6    2   40 1
     7    2   41 1
     8    3    8 ar
     9    3    4 ar
    10    4    5 ar
    11    4   42 1
    12    5    6 ar
    13    5   43 1
    14    6    7 ar
    15    6    9 1
    16    7    8 ar
    17    7   44 1
    18    8   45 1
    19    9   14 ar
    20    9   10 ar
    21   10   11 ar
    22   11   12 ar
    23   11   46 1
    24   12   13 ar
    25   12   35 1
    26   13   14 ar
    27   13   15 1
    28   15   16 1
    29   15   17 1
    30   16   47 1
    31   16   48 1
    32   16   49 1
    33   17   18 1
    34   17   50 1
    35   17   51 1
    36   18   19 1
    37   18   52 1
    38   18   53 1
    39   19   20 1
    40   19   54 1
    41   19   55 1
    42   20   21 1
    43   21   26 ar
    44   21   22 ar
    45   22   23 ar
    46   22   56 1
    47   23   24 ar
    48   23   57 1
    49   24   29 1
    50   24   25 ar
    51   25   26 ar
    52   25   27 1
    53   26   58 1
    54   27   28 1
    55   27   59 1
    56   27   60 1
    57   28   29 1
    58   28   61 1
    59   28   62 1
    60   29   30 1
    61   29   31 1
    62   31   32 1
    63   31   63 1
    64   31   64 1
    65   32   33 2
    66   32   34 1
    67   35   36 1
    68   35   65 1
    69   35   66 1
    70   36   67 1
    71   36   68 1
    72   36   69 1
@<TRIPOS>MOLECULE
CHEMBL240437__1
   70    73     0     0     0
SMALL
USER_CHARGES

@<TRIPOS>ATOM
      1 C1         -9.9737    4.6677   -2.8023 C.3       1 <0>        -0.1495
      2 C2         -8.5734    4.5961   -2.1902 C.3       1 <0>        -0.1015
      3 C3         -8.2717    3.1746   -1.7910 C.ar      1 <0>        -0.0149
      4 C4         -8.6033    2.7296   -0.5239 C.ar      1 <0>        -0.1203
      5 C5         -8.3294    1.4289   -0.1529 C.ar      1 <0>        -0.0245
      6 C6         -7.7176    0.5631   -1.0576 C.ar      1 <0>        -0.1251
      7 C7         -7.3857    1.0169   -2.3329 C.ar      1 <0>        -0.0786
      8 C8         -7.6695    2.3181   -2.6949 C.ar      1 <0>        -0.1164
      9 C9         -7.4203   -0.8358   -0.6645 C.ar      1 <0>         0.4525
     10 N1         -6.8329   -1.6419   -1.5381 N.ar      1 <0>        -0.5056
     11 C10        -6.5517   -2.8969   -1.2239 C.ar      1 <0>         0.1769
     12 C11        -6.8770   -3.3683    0.0339 C.ar      1 <0>        -0.1522
     13 C12        -7.4952   -2.4962    0.9334 C.ar      1 <0>         0.5220
     14 N2         -7.7435   -1.2476    0.5533 N.ar      1 <0>        -0.4749
     15 N3         -7.8397   -2.9256    2.2048 N.pl3     1 <0>        -0.6652
     16 C13        -9.1483   -3.5404    2.4409 C.3       1 <0>         0.1058
     17 C14        -6.8952   -2.7649    3.3132 C.3       1 <0>         0.1427
     18 C15        -7.1247   -1.4103    3.9864 C.3       1 <0>        -0.1409
     19 C16        -6.1383   -1.2424    5.1439 C.3       1 <0>         0.0626
     20 O1         -6.3527    0.0228    5.7727 O.3       1 <0>        -0.3178
     21 C17        -5.5530    0.3309    6.8275 C.ar      1 <0>         0.1089
     22 C18        -4.5779   -0.5632    7.2457 C.ar      1 <0>        -0.2083
     23 C19        -3.7683   -0.2458    8.3173 C.ar      1 <0>        -0.0706
     24 C20        -3.9251    0.9618    8.9780 C.ar      1 <0>        -0.1036
     25 C21        -4.8961    1.8543    8.5632 C.ar      1 <0>        -0.0586
     26 C22        -5.7055    1.5415    7.4848 C.ar      1 <0>        -0.1400
     27 C23        -4.8654    3.0879    9.4401 C.3       1 <0>        -0.0855
     28 C24        -4.0742    2.6699   10.6976 C.3       1 <0>        -0.0989
     29 C25        -3.1757    1.5352   10.1618 C.3       1 <0>        -0.0269
     30 H1         -2.2127    1.9340    9.8428 H         1 <0>         0.0865
     31 C26        -2.9781    0.4628   11.2351 C.3       1 <0>        -0.1743
     32 C27        -2.1228    1.0155   12.3460 C.2       1 <0>         0.4898
     33 O2         -1.7790    2.1851   12.3264 O.co2     1 <0>        -0.6936
     34 O3         -1.7746    0.2930   13.2643 O.co2     1 <0>        -0.7060
     35 C28        -6.5723   -4.7911    0.4262 C.3       1 <0>        -0.0788
     36 C29        -7.7793   -5.6768    0.1105 C.3       1 <0>        -0.1556
     37 H2        -10.1919    5.6958   -3.0911 H         1 <0>         0.0689
     38 H3        -10.0189    4.0258   -3.6822 H         1 <0>         0.0577
     39 H4        -10.7080    4.3324   -2.0699 H         1 <0>         0.0596
     40 H5         -7.8391    4.9314   -2.9227 H         1 <0>         0.0839
     41 H6         -8.5282    5.2379   -1.3104 H         1 <0>         0.0859
     42 H7         -9.0771    3.4015    0.1765 H         1 <0>         0.1456
     43 H8         -8.5884    1.0826    0.8368 H         1 <0>         0.1504
     44 H9         -6.9111    0.3504   -3.0378 H         1 <0>         0.1255
     45 H10        -7.4171    2.6694   -3.6845 H         1 <0>         0.1435
     46 H11        -6.0734   -3.5454   -1.9430 H         1 <0>         0.2203
     47 H12        -9.0625   -4.6233    2.3512 H         1 <0>         0.0634
     48 H13        -9.4944   -3.2850    3.4424 H         1 <0>         0.0839
     49 H14        -9.8618   -3.1702    1.7046 H         1 <0>         0.0630
     50 H15        -7.0489   -3.5625    4.0400 H         1 <0>         0.1000
     51 H16        -5.8754   -2.8128    2.9313 H         1 <0>         0.0746
     52 H17        -6.9710   -0.6126    3.2596 H         1 <0>         0.0745
     53 H18        -8.1445   -1.3624    4.3682 H         1 <0>         0.0824
     54 H19        -6.2920   -2.0401    5.8707 H         1 <0>         0.0644
     55 H20        -5.1185   -1.2903    4.7621 H         1 <0>         0.0585
     56 H21        -4.4530   -1.5060    6.7338 H         1 <0>         0.1213
     57 H22        -3.0094   -0.9420    8.6425 H         1 <0>         0.1235
     58 H23        -6.4608    2.2406    7.1575 H         1 <0>         0.1229
     59 H24        -4.3566    3.9040    8.9270 H         1 <0>         0.0797
     60 H25        -5.8785    3.3841    9.7117 H         1 <0>         0.0715
     61 H26        -3.4715    3.4986   11.0694 H         1 <0>         0.0898
     62 H27        -4.7455    2.2995   11.4724 H         1 <0>         0.0647
     63 H28        -3.9476    0.1669   11.6359 H         1 <0>         0.0573
     64 H29        -2.4865   -0.4050   10.7954 H         1 <0>         0.0548
     65 H30        -5.7061   -5.1446   -0.1331 H         1 <0>         0.0956
     66 H31        -6.3583   -4.8357    1.4940 H         1 <0>         0.1024
     67 H32        -7.9259   -5.7201   -0.9687 H         1 <0>         0.0599
     68 H33        -7.6027   -6.6818    0.4938 H         1 <0>         0.0799
     69 H34        -8.6693   -5.2595    0.5816 H         1 <0>         0.0626
     70 H35        -6.6064   -1.3075   -2.4201 H         1 <0>         0.4487
@<TRIPOS>BOND
     1    1    2 1
     2    1   37 1
     3    1   38 1
     4    1   39 1
     5    2    3 1
     6    2   40 1
     7    2   41 1
     8    3    8 ar
     9    3    4 ar
    10    4    5 ar
    11    4   42 1
    12    5    6 ar
    13    5   43 1
    14    6    7 ar
    15    6    9 1
    16    7    8 ar
    17    7   44 1
    18    8   45 1
    19    9   14 ar
    20    9   10 ar
    21   10   11 ar
    22   10   70 1
    23   11   12 ar
    24   11   46 1
    25   12   13 ar
    26   12   35 1
    27   13   14 ar
    28   13   15 1
    29   15   16 1
    30   15   17 1
    31   16   47 1
    32   16   48 1
    33   16   49 1
    34   17   18 1
    35   17   50 1
    36   17   51 1
    37   18   19 1
    38   18   52 1
    39   18   53 1
    40   19   20 1
    41   19   54 1
    42   19   55 1
    43   20   21 1
    44   21   26 ar
    45   21   22 ar
    46   22   23 ar
    47   22   56 1
    48   23   24 ar
    49   23   57 1
    50   24   29 1
    51   24   25 ar
    52   25   26 ar
    53   25   27 1
    54   26   58 1
    55   27   28 1
    56   27   59 1
    57   27   60 1
    58   28   29 1
    59   28   61 1
    60   28   62 1
    61   29   30 1
    62   29   31 1
    63   31   32 1
    64   31   63 1
    65   31   64 1
    66   32   33 2
    67   32   34 1
    68   35   36 1
    69   35   65 1
    70   35   66 1
    71   36   67 1
    72   36   68 1
    73   36   69 1
@<TRIPOS>MOLECULE
CHEMBL219847
   72    76     0     0     0
SMALL
USER_CHARGES

@<TRIPOS>ATOM
      1 C1         -0.0347    2.6674   -1.1909 C.3       1 <0>        -0.1522
      2 C2         -0.0257    1.1599   -0.9294 C.3       1 <0>        -0.1174
      3 C3          0.6980    0.4480   -2.0741 C.3       1 <0>        -0.0708
      4 C4          0.7069   -1.0368   -1.8166 C.ar      1 <0>        -0.1184
      5 C5          1.7907   -1.6216   -1.1981 C.ar      1 <0>        -0.0249
      6 C6          1.7979   -2.9965   -0.9597 C.ar      1 <0>        -0.0774
      7 C7          0.7063   -3.7747   -1.3487 C.ar      1 <0>        -0.0408
      8 C8         -0.3739   -3.1835   -1.9664 C.ar      1 <0>        -0.2096
      9 C9         -0.3799   -1.8134   -2.1976 C.ar      1 <0>         0.1615
     10 O1         -1.4483   -1.2331   -2.8020 O.3       1 <0>        -0.3016
     11 C10        -2.5316   -2.0904   -3.1675 C.3       1 <0>         0.0606
     12 C11        -3.6350   -1.2636   -3.8306 C.3       1 <0>        -0.1182
     13 C12        -4.7948   -2.1815   -4.2220 C.3       1 <0>         0.0655
     14 O2         -5.8254   -1.4092   -4.8414 O.3       1 <0>        -0.3151
     15 C13        -6.9351   -2.0777   -5.2518 C.ar      1 <0>         0.1140
     16 C14        -7.0335   -3.4480   -5.0575 C.ar      1 <0>        -0.2081
     17 C15        -8.1625   -4.1223   -5.4760 C.ar      1 <0>        -0.0703
     18 C16        -9.1984   -3.4372   -6.0899 C.ar      1 <0>        -0.1078
     19 C17        -9.1027   -2.0717   -6.2847 C.ar      1 <0>        -0.0611
     20 C18        -7.9743   -1.3916   -5.8604 C.ar      1 <0>        -0.1401
     21 C19       -10.3533   -1.5637   -6.9699 C.3       1 <0>        -0.0828
     22 C20       -11.0268   -2.8191   -7.5636 C.3       1 <0>        -0.1019
     23 C21       -10.5201   -3.9395   -6.6309 C.3       1 <0>        -0.0267
     24 H1        -11.2256   -4.1009   -5.8158 H         1 <0>         0.0889
     25 C22       -10.3133   -5.2340   -7.4197 C.3       1 <0>        -0.1740
     26 C23       -11.6520   -5.7917   -7.8297 C.2       1 <0>         0.4908
     27 O3        -12.6784   -5.2677   -7.4319 O.co2     1 <0>        -0.6952
     28 O4        -11.7085   -6.7670   -8.5592 O.co2     1 <0>        -0.7082
     29 C24         2.9597   -3.6279   -0.2966 C.2       1 <0>         0.2632
     30 N1          4.0465   -3.0373    0.1282 N.2       1 <0>        -0.5158
     31 C25         5.0791   -3.8021    0.7892 C.3       1 <0>         0.0678
     32 C26         6.4701   -3.2377    0.6148 C.3       1 <0>        -0.0936
     33 C27         6.9939   -3.5496   -0.7888 C.3       1 <0>        -0.1211
     34 C28         7.0863   -5.0651   -0.9436 C.3       1 <0>        -0.1132
     35 C29         5.7338   -5.7180   -0.7648 C.3       1 <0>        -0.1131
     36 C30         4.9827   -5.3027    0.4797 C.3       1 <0>        -0.0381
     37 S1          3.1710   -5.3569    0.1001 S.3       1 <0>        -0.2531
     38 H2          0.9909    3.0312   -1.2544 H         1 <0>         0.0529
     39 H3         -0.5510    2.8703   -2.1291 H         1 <0>         0.0556
     40 H4         -0.5503    3.1745   -0.3753 H         1 <0>         0.0538
     41 H5          0.4906    0.9570    0.0089 H         1 <0>         0.0600
     42 H6         -1.0512    0.7961   -0.8659 H         1 <0>         0.0648
     43 H7          0.1817    0.6510   -3.0124 H         1 <0>         0.0787
     44 H8          1.7235    0.8119   -2.1376 H         1 <0>         0.0717
     45 H9          2.6338   -1.0166   -0.8988 H         1 <0>         0.1411
     46 H10         0.7087   -4.8391   -1.1659 H         1 <0>         0.1326
     47 H11        -1.2186   -3.7850   -2.2680 H         1 <0>         0.1376
     48 H12        -2.1757   -2.8479   -3.8659 H         1 <0>         0.0698
     49 H13        -2.9276   -2.5760   -2.2756 H         1 <0>         0.0697
     50 H14        -3.9908   -0.5061   -3.1323 H         1 <0>         0.0866
     51 H15        -3.2389   -0.7781   -4.7226 H         1 <0>         0.0867
     52 H16        -4.4389   -2.9390   -4.9204 H         1 <0>         0.0645
     53 H17        -5.1908   -2.6670   -3.3301 H         1 <0>         0.0642
     54 H18        -6.2279   -3.9859   -4.5800 H         1 <0>         0.1233
     55 H19        -8.2387   -5.1890   -5.3245 H         1 <0>         0.1224
     56 H20        -7.9014   -0.3242   -6.0081 H         1 <0>         0.1240
     57 H21       -11.0139   -1.0867   -6.2460 H         1 <0>         0.0794
     58 H22       -10.0919   -0.8636   -7.7634 H         1 <0>         0.0708
     59 H23       -12.1126   -2.7359   -7.5150 H         1 <0>         0.0854
     60 H24       -10.6957   -2.9885   -8.5882 H         1 <0>         0.0643
     61 H25        -9.7184   -5.0264   -8.3092 H         1 <0>         0.0567
     62 H26        -9.7927   -5.9605   -6.7958 H         1 <0>         0.0557
     63 H27         4.8730   -3.7105    1.8556 H         1 <0>         0.0861
     64 H28         6.4423   -2.1576    0.7583 H         1 <0>         0.0790
     65 H29         7.1355   -3.6814    1.3555 H         1 <0>         0.0766
     66 H30         6.3088   -3.1456   -1.5342 H         1 <0>         0.0656
     67 H31         7.9813   -3.1065   -0.9189 H         1 <0>         0.0696
     68 H32         7.4676   -5.2999   -1.9373 H         1 <0>         0.0701
     69 H33         7.7746   -5.4590   -0.1958 H         1 <0>         0.0641
     70 H34         5.1194   -5.4787   -1.6328 H         1 <0>         0.0711
     71 H35         5.8750   -6.7984   -0.7365 H         1 <0>         0.0732
     72 H36         5.2509   -5.9166    1.3395 H         1 <0>         0.1307
@<TRIPOS>BOND
     1    1    2 1
     2    1   38 1
     3    1   39 1
     4    1   40 1
     5    2    3 1
     6    2   41 1
     7    2   42 1
     8    3    4 1
     9    3   43 1
    10    3   44 1
    11    4    9 ar
    12    4    5 ar
    13    5    6 ar
    14    5   45 1
    15    6    7 ar
    16    6   29 1
    17    7    8 ar
    18    7   46 1
    19    8    9 ar
    20    8   47 1
    21    9   10 1
    22   10   11 1
    23   11   12 1
    24   11   48 1
    25   11   49 1
    26   12   13 1
    27   12   50 1
    28   12   51 1
    29   13   14 1
    30   13   52 1
    31   13   53 1
    32   14   15 1
    33   15   20 ar
    34   15   16 ar
    35   16   17 ar
    36   16   54 1
    37   17   18 ar
    38   17   55 1
    39   18   23 1
    40   18   19 ar
    41   19   20 ar
    42   19   21 1
    43   20   56 1
    44   21   22 1
    45   21   57 1
    46   21   58 1
    47   22   23 1
    48   22   59 1
    49   22   60 1
    50   23   24 1
    51   23   25 1
    52   25   26 1
    53   25   61 1
    54   25   62 1
    55   26   27 2
    56   26   28 1
    57   29   37 1
    58   29   30 2
    59   30   31 1
    60   31   36 1
    61   31   32 1
    62   31   63 1
    63   32   33 1
    64   32   64 1
    65   32   65 1
    66   33   34 1
    67   33   66 1
    68   33   67 1
    69   34   35 1
    70   34   68 1
    71   34   69 1
    72   35   36 1
    73   35   70 1
    74   35   71 1
    75   36   37 1
    76   36   72 1
@<TRIPOS>MOLECULE
CHEMBL219847__1
   72    76     0     0     0
SMALL
USER_CHARGES

@<TRIPOS>ATOM
      1 C1         -0.0347    2.6674   -1.1909 C.3       1 <0>        -0.1522
      2 C2         -0.0257    1.1599   -0.9294 C.3       1 <0>        -0.1173
      3 C3          0.6980    0.4480   -2.0741 C.3       1 <0>        -0.0710
      4 C4          0.7069   -1.0368   -1.8166 C.ar      1 <0>        -0.1172
      5 C5          1.7907   -1.6216   -1.1981 C.ar      1 <0>        -0.0281
      6 C6          1.7979   -2.9965   -0.9597 C.ar      1 <0>        -0.0700
      7 C7          0.7063   -3.7747   -1.3487 C.ar      1 <0>        -0.0432
      8 C8         -0.3739   -3.1835   -1.9664 C.ar      1 <0>        -0.2083
      9 C9         -0.3799   -1.8134   -2.1976 C.ar      1 <0>         0.1595
     10 O1         -1.4483   -1.2331   -2.8020 O.3       1 <0>        -0.3017
     11 C10        -2.5316   -2.0904   -3.1675 C.3       1 <0>         0.0607
     12 C11        -3.6350   -1.2636   -3.8306 C.3       1 <0>        -0.1182
     13 C12        -4.7948   -2.1815   -4.2220 C.3       1 <0>         0.0656
     14 O2         -5.8254   -1.4092   -4.8414 O.3       1 <0>        -0.3151
     15 C13        -6.9351   -2.0777   -5.2518 C.ar      1 <0>         0.1141
     16 C14        -7.0335   -3.4480   -5.0575 C.ar      1 <0>        -0.2081
     17 C15        -8.1625   -4.1223   -5.4760 C.ar      1 <0>        -0.0704
     18 C16        -9.1984   -3.4372   -6.0899 C.ar      1 <0>        -0.1078
     19 C17        -9.1027   -2.0717   -6.2847 C.ar      1 <0>        -0.0611
     20 C18        -7.9743   -1.3916   -5.8604 C.ar      1 <0>        -0.1401
     21 C19       -10.3533   -1.5637   -6.9699 C.3       1 <0>        -0.0828
     22 C20       -11.0268   -2.8191   -7.5636 C.3       1 <0>        -0.1019
     23 C21       -10.5201   -3.9395   -6.6309 C.3       1 <0>        -0.0266
     24 H1        -11.2256   -4.1009   -5.8158 H         1 <0>         0.0889
     25 C22       -10.3133   -5.2340   -7.4197 C.3       1 <0>        -0.1741
     26 C23       -11.6520   -5.7917   -7.8297 C.2       1 <0>         0.4909
     27 O3        -12.6784   -5.2677   -7.4319 O.co2     1 <0>        -0.6953
     28 O4        -11.7085   -6.7670   -8.5592 O.co2     1 <0>        -0.7082
     29 C24         2.9597   -3.6279   -0.2966 C.2       1 <0>         0.2318
     30 N1          4.0557   -3.0293    0.1313 N.2       1 <0>        -0.4890
     31 C25         5.0560   -3.8063    0.7470 C.3       1 <0>         0.0253
     32 C26         6.3064   -3.3149    1.3711 C.3       1 <0>        -0.0701
     33 C27         6.5404   -4.0687    2.6943 C.3       1 <0>        -0.1221
     34 C28         6.5405   -5.5740    2.4223 C.3       1 <0>        -0.1206
     35 C29         5.1937   -6.0195    1.8464 C.3       1 <0>        -0.1040
     36 C30         4.9718   -5.3198    0.5014 C.3       1 <0>        -0.0361
     37 S1          3.1679   -5.3602    0.0992 S.3       1 <0>        -0.2363
     38 H2          0.9909    3.0312   -1.2544 H         1 <0>         0.0529
     39 H3         -0.5510    2.8703   -2.1291 H         1 <0>         0.0556
     40 H4         -0.5503    3.1745   -0.3753 H         1 <0>         0.0537
     41 H5          0.4906    0.9570    0.0089 H         1 <0>         0.0599
     42 H6         -1.0512    0.7961   -0.8659 H         1 <0>         0.0648
     43 H7          0.1817    0.6510   -3.0124 H         1 <0>         0.0787
     44 H8          1.7235    0.8119   -2.1376 H         1 <0>         0.0717
     45 H9          2.6338   -1.0166   -0.8988 H         1 <0>         0.1406
     46 H10         0.7087   -4.8391   -1.1659 H         1 <0>         0.1324
     47 H11        -1.2186   -3.7850   -2.2680 H         1 <0>         0.1375
     48 H12        -2.1757   -2.8479   -3.8659 H         1 <0>         0.0697
     49 H13        -2.9276   -2.5760   -2.2756 H         1 <0>         0.0695
     50 H14        -3.9908   -0.5061   -3.1323 H         1 <0>         0.0865
     51 H15        -3.2389   -0.7781   -4.7226 H         1 <0>         0.0866
     52 H16        -4.4389   -2.9390   -4.9204 H         1 <0>         0.0645
     53 H17        -5.1908   -2.6670   -3.3301 H         1 <0>         0.0642
     54 H18        -6.2279   -3.9859   -4.5800 H         1 <0>         0.1233
     55 H19        -8.2387   -5.1890   -5.3245 H         1 <0>         0.1224
     56 H20        -7.9014   -0.3242   -6.0081 H         1 <0>         0.1240
     57 H21       -11.0139   -1.0867   -6.2460 H         1 <0>         0.0793
     58 H22       -10.0919   -0.8636   -7.7634 H         1 <0>         0.0708
     59 H23       -12.1126   -2.7359   -7.5150 H         1 <0>         0.0854
     60 H24       -10.6957   -2.9885   -8.5882 H         1 <0>         0.0643
     61 H25        -9.7184   -5.0264   -8.3092 H         1 <0>         0.0567
     62 H26        -9.7927   -5.9605   -6.7958 H         1 <0>         0.0557
     63 H27         4.5273   -3.8897    1.6966 H         1 <0>         0.0618
     64 H28         7.1444   -3.4930    0.6972 H         1 <0>         0.0719
     65 H29         6.2186   -2.2469    1.5707 H         1 <0>         0.0832
     66 H30         7.5016   -3.7747    3.1158 H         1 <0>         0.0803
     67 H31         5.7438   -3.8258    3.3975 H         1 <0>         0.0665
     68 H32         7.3313   -5.8102    1.7104 H         1 <0>         0.0706
     69 H33         6.7264   -6.1073    3.3546 H         1 <0>         0.0749
     70 H34         5.1990   -7.0995    1.6993 H         1 <0>         0.0811
     71 H35         4.3942   -5.7474    2.5355 H         1 <0>         0.0797
     72 H36         5.6257   -5.6812   -0.2924 H         1 <0>         0.1193
@<TRIPOS>BOND
     1    1    2 1
     2    1   38 1
     3    1   39 1
     4    1   40 1
     5    2    3 1
     6    2   41 1
     7    2   42 1
     8    3    4 1
     9    3   43 1
    10    3   44 1
    11    4    9 ar
    12    4    5 ar
    13    5    6 ar
    14    5   45 1
    15    6    7 ar
    16    6   29 1
    17    7    8 ar
    18    7   46 1
    19    8    9 ar
    20    8   47 1
    21    9   10 1
    22   10   11 1
    23   11   12 1
    24   11   48 1
    25   11   49 1
    26   12   13 1
    27   12   50 1
    28   12   51 1
    29   13   14 1
    30   13   52 1
    31   13   53 1
    32   14   15 1
    33   15   20 ar
    34   15   16 ar
    35   16   17 ar
    36   16   54 1
    37   17   18 ar
    38   17   55 1
    39   18   23 1
    40   18   19 ar
    41   19   20 ar
    42   19   21 1
    43   20   56 1
    44   21   22 1
    45   21   57 1
    46   21   58 1
    47   22   23 1
    48   22   59 1
    49   22   60 1
    50   23   24 1
    51   23   25 1
    52   25   26 1
    53   25   61 1
    54   25   62 1
    55   26   27 2
    56   26   28 1
    57   29   37 1
    58   29   30 2
    59   30   31 1
    60   31   36 1
    61   31   32 1
    62   31   63 1
    63   32   33 1
    64   32   64 1
    65   32   65 1
    66   33   34 1
    67   33   66 1
    68   33   67 1
    69   34   35 1
    70   34   68 1
    71   34   69 1
    72   35   36 1
    73   35   70 1
    74   35   71 1
    75   36   37 1
    76   36   72 1
@<TRIPOS>MOLECULE
CHEMBL219847__2
   72    76     0     0     0
SMALL
USER_CHARGES

@<TRIPOS>ATOM
      1 C1         -0.0347    2.6674   -1.1909 C.3       1 <0>        -0.1521
      2 C2         -0.0257    1.1599   -0.9294 C.3       1 <0>        -0.1174
      3 C3          0.6980    0.4480   -2.0741 C.3       1 <0>        -0.0709
      4 C4          0.7069   -1.0368   -1.8166 C.ar      1 <0>        -0.1168
      5 C5          1.7907   -1.6216   -1.1981 C.ar      1 <0>        -0.0291
      6 C6          1.7979   -2.9965   -0.9597 C.ar      1 <0>        -0.0678
      7 C7          0.7063   -3.7747   -1.3487 C.ar      1 <0>        -0.0441
      8 C8         -0.3739   -3.1835   -1.9664 C.ar      1 <0>        -0.2079
      9 C9         -0.3799   -1.8134   -2.1976 C.ar      1 <0>         0.1587
     10 O1         -1.4483   -1.2331   -2.8020 O.3       1 <0>        -0.3018
     11 C10        -2.5316   -2.0904   -3.1675 C.3       1 <0>         0.0608
     12 C11        -3.6350   -1.2636   -3.8306 C.3       1 <0>        -0.1182
     13 C12        -4.7948   -2.1815   -4.2220 C.3       1 <0>         0.0656
     14 O2         -5.8254   -1.4092   -4.8414 O.3       1 <0>        -0.3151
     15 C13        -6.9351   -2.0777   -5.2518 C.ar      1 <0>         0.1141
     16 C14        -7.0335   -3.4480   -5.0575 C.ar      1 <0>        -0.2081
     17 C15        -8.1625   -4.1223   -5.4760 C.ar      1 <0>        -0.0704
     18 C16        -9.1984   -3.4372   -6.0899 C.ar      1 <0>        -0.1078
     19 C17        -9.1027   -2.0717   -6.2847 C.ar      1 <0>        -0.0611
     20 C18        -7.9743   -1.3916   -5.8604 C.ar      1 <0>        -0.1401
     21 C19       -10.3533   -1.5637   -6.9699 C.3       1 <0>        -0.0828
     22 C20       -11.0268   -2.8191   -7.5636 C.3       1 <0>        -0.1019
     23 C21       -10.5201   -3.9395   -6.6309 C.3       1 <0>        -0.0266
     24 H1        -11.2256   -4.1009   -5.8158 H         1 <0>         0.0889
     25 C22       -10.3133   -5.2340   -7.4197 C.3       1 <0>        -0.1741
     26 C23       -11.6520   -5.7917   -7.8297 C.2       1 <0>         0.4909
     27 O3        -12.6784   -5.2677   -7.4319 O.co2     1 <0>        -0.6952
     28 O4        -11.7085   -6.7670   -8.5592 O.co2     1 <0>        -0.7082
     29 C24         2.9597   -3.6279   -0.2966 C.2       1 <0>         0.2245
     30 N1          4.0534   -3.0299    0.1303 N.2       1 <0>        -0.4834
     31 C25         5.0548   -3.8001    0.7570 C.3       1 <0>         0.0156
     32 C26         6.4248   -3.3497    1.0818 C.3       1 <0>        -0.0650
     33 C27         7.4561   -4.3960    0.6293 C.3       1 <0>        -0.1234
     34 C28         7.0811   -5.7548    1.2269 C.3       1 <0>        -0.1211
     35 C29         5.7129   -6.1945    0.6963 C.3       1 <0>        -0.1063
     36 C30         4.6459   -5.2098    1.1954 C.3       1 <0>        -0.0300
     37 S1          3.1671   -5.3593    0.0986 S.3       1 <0>        -0.2359
     38 H2          0.9909    3.0312   -1.2544 H         1 <0>         0.0528
     39 H3         -0.5510    2.8703   -2.1291 H         1 <0>         0.0556
     40 H4         -0.5503    3.1745   -0.3753 H         1 <0>         0.0538
     41 H5          0.4906    0.9570    0.0089 H         1 <0>         0.0600
     42 H6         -1.0512    0.7961   -0.8659 H         1 <0>         0.0649
     43 H7          0.1817    0.6510   -3.0124 H         1 <0>         0.0787
     44 H8          1.7235    0.8119   -2.1376 H         1 <0>         0.0716
     45 H9          2.6338   -1.0166   -0.8988 H         1 <0>         0.1404
     46 H10         0.7087   -4.8391   -1.1659 H         1 <0>         0.1321
     47 H11        -1.2186   -3.7850   -2.2680 H         1 <0>         0.1374
     48 H12        -2.1757   -2.8479   -3.8659 H         1 <0>         0.0695
     49 H13        -2.9276   -2.5760   -2.2756 H         1 <0>         0.0695
     50 H14        -3.9908   -0.5061   -3.1323 H         1 <0>         0.0865
     51 H15        -3.2389   -0.7781   -4.7226 H         1 <0>         0.0866
     52 H16        -4.4389   -2.9390   -4.9204 H         1 <0>         0.0644
     53 H17        -5.1908   -2.6670   -3.3301 H         1 <0>         0.0642
     54 H18        -6.2279   -3.9859   -4.5800 H         1 <0>         0.1233
     55 H19        -8.2387   -5.1890   -5.3245 H         1 <0>         0.1224
     56 H20        -7.9014   -0.3242   -6.0081 H         1 <0>         0.1240
     57 H21       -11.0139   -1.0867   -6.2460 H         1 <0>         0.0794
     58 H22       -10.0919   -0.8636   -7.7634 H         1 <0>         0.0708
     59 H23       -12.1126   -2.7359   -7.5150 H         1 <0>         0.0854
     60 H24       -10.6957   -2.9885   -8.5882 H         1 <0>         0.0643
     61 H25        -9.7184   -5.0264   -8.3092 H         1 <0>         0.0567
     62 H26        -9.7927   -5.9605   -6.7958 H         1 <0>         0.0557
     63 H27         5.3893   -4.2025   -0.1992 H         1 <0>         0.0617
     64 H28         6.6233   -2.4054    0.5748 H         1 <0>         0.0834
     65 H29         6.5099   -3.2020    2.1584 H         1 <0>         0.0713
     66 H30         7.4547   -4.4629   -0.4586 H         1 <0>         0.0666
     67 H31         8.4474   -4.1054    0.9773 H         1 <0>         0.0816
     68 H32         7.8325   -6.4934    0.9477 H         1 <0>         0.0756
     69 H33         7.0396   -5.6741    2.3131 H         1 <0>         0.0721
     70 H34         5.7272   -6.1956   -0.3936 H         1 <0>         0.0800
     71 H35         5.4845   -7.1960    1.0610 H         1 <0>         0.0820
     72 H36         4.4293   -5.3015    2.2597 H         1 <0>         0.1197
@<TRIPOS>BOND
     1    1    2 1
     2    1   38 1
     3    1   39 1
     4    1   40 1
     5    2    3 1
     6    2   41 1
     7    2   42 1
     8    3    4 1
     9    3   43 1
    10    3   44 1
    11    4    9 ar
    12    4    5 ar
    13    5    6 ar
    14    5   45 1
    15    6    7 ar
    16    6   29 1
    17    7    8 ar
    18    7   46 1
    19    8    9 ar
    20    8   47 1
    21    9   10 1
    22   10   11 1
    23   11   12 1
    24   11   48 1
    25   11   49 1
    26   12   13 1
    27   12   50 1
    28   12   51 1
    29   13   14 1
    30   13   52 1
    31   13   53 1
    32   14   15 1
    33   15   20 ar
    34   15   16 ar
    35   16   17 ar
    36   16   54 1
    37   17   18 ar
    38   17   55 1
    39   18   23 1
    40   18   19 ar
    41   19   20 ar
    42   19   21 1
    43   20   56 1
    44   21   22 1
    45   21   57 1
    46   21   58 1
    47   22   23 1
    48   22   59 1
    49   22   60 1
    50   23   24 1
    51   23   25 1
    52   25   26 1
    53   25   61 1
    54   25   62 1
    55   26   27 2
    56   26   28 1
    57   29   37 1
    58   29   30 2
    59   30   31 1
    60   31   36 1
    61   31   32 1
    62   31   63 1
    63   32   33 1
    64   32   64 1
    65   32   65 1
    66   33   34 1
    67   33   66 1
    68   33   67 1
    69   34   35 1
    70   34   68 1
    71   34   69 1
    72   35   36 1
    73   35   70 1
    74   35   71 1
    75   36   37 1
    76   36   72 1
@<TRIPOS>MOLECULE
CHEMBL219847__3
   72    76     0     0     0
SMALL
USER_CHARGES

@<TRIPOS>ATOM
      1 C1         -0.0347    2.6674   -1.1909 C.3       1 <0>        -0.1522
      2 C2         -0.0257    1.1599   -0.9294 C.3       1 <0>        -0.1172
      3 C3          0.6980    0.4480   -2.0741 C.3       1 <0>        -0.0709
      4 C4          0.7069   -1.0368   -1.8166 C.ar      1 <0>        -0.1184
      5 C5          1.7907   -1.6216   -1.1981 C.ar      1 <0>        -0.0250
      6 C6          1.7979   -2.9965   -0.9597 C.ar      1 <0>        -0.0774
      7 C7          0.7063   -3.7747   -1.3487 C.ar      1 <0>        -0.0408
      8 C8         -0.3739   -3.1835   -1.9664 C.ar      1 <0>        -0.2096
      9 C9         -0.3799   -1.8134   -2.1976 C.ar      1 <0>         0.1615
     10 O1         -1.4483   -1.2331   -2.8020 O.3       1 <0>        -0.3016
     11 C10        -2.5316   -2.0904   -3.1675 C.3       1 <0>         0.0606
     12 C11        -3.6350   -1.2636   -3.8306 C.3       1 <0>        -0.1182
     13 C12        -4.7948   -2.1815   -4.2220 C.3       1 <0>         0.0655
     14 O2         -5.8254   -1.4092   -4.8414 O.3       1 <0>        -0.3151
     15 C13        -6.9351   -2.0777   -5.2518 C.ar      1 <0>         0.1140
     16 C14        -7.0335   -3.4480   -5.0575 C.ar      1 <0>        -0.2081
     17 C15        -8.1625   -4.1223   -5.4760 C.ar      1 <0>        -0.0703
     18 C16        -9.1984   -3.4372   -6.0899 C.ar      1 <0>        -0.1078
     19 C17        -9.1027   -2.0717   -6.2847 C.ar      1 <0>        -0.0611
     20 C18        -7.9743   -1.3916   -5.8604 C.ar      1 <0>        -0.1401
     21 C19       -10.3533   -1.5637   -6.9699 C.3       1 <0>        -0.0828
     22 C20       -11.0268   -2.8191   -7.5636 C.3       1 <0>        -0.1019
     23 C21       -10.5201   -3.9395   -6.6309 C.3       1 <0>        -0.0267
     24 H1        -11.2256   -4.1009   -5.8158 H         1 <0>         0.0889
     25 C22       -10.3133   -5.2340   -7.4197 C.3       1 <0>        -0.1740
     26 C23       -11.6520   -5.7917   -7.8297 C.2       1 <0>         0.4909
     27 O3        -12.6784   -5.2677   -7.4319 O.co2     1 <0>        -0.6952
     28 O4        -11.7085   -6.7670   -8.5592 O.co2     1 <0>        -0.7082
     29 C24         2.9597   -3.6279   -0.2966 C.2       1 <0>         0.2635
     30 N1          4.0453   -3.0380    0.1278 N.2       1 <0>        -0.5190
     31 C25         5.1083   -3.8077    0.7404 C.3       1 <0>         0.0698
     32 C26         5.9071   -3.0235    1.7488 C.3       1 <0>        -0.0941
     33 C27         5.2518   -3.0152    3.1252 C.3       1 <0>        -0.1213
     34 C28         5.0738   -4.4616    3.5951 C.3       1 <0>        -0.1157
     35 C29         4.1176   -5.1756    2.6487 C.3       1 <0>        -0.1109
     36 C30         4.6283   -5.1803    1.2203 C.3       1 <0>        -0.0420
     37 S1          3.1711   -5.3567    0.1001 S.3       1 <0>        -0.2501
     38 H2          0.9909    3.0312   -1.2544 H         1 <0>         0.0529
     39 H3         -0.5510    2.8703   -2.1291 H         1 <0>         0.0556
     40 H4         -0.5503    3.1745   -0.3753 H         1 <0>         0.0538
     41 H5          0.4906    0.9570    0.0089 H         1 <0>         0.0599
     42 H6         -1.0512    0.7961   -0.8659 H         1 <0>         0.0648
     43 H7          0.1817    0.6510   -3.0124 H         1 <0>         0.0787
     44 H8          1.7235    0.8119   -2.1376 H         1 <0>         0.0717
     45 H9          2.6338   -1.0166   -0.8988 H         1 <0>         0.1410
     46 H10         0.7087   -4.8391   -1.1659 H         1 <0>         0.1326
     47 H11        -1.2186   -3.7850   -2.2680 H         1 <0>         0.1377
     48 H12        -2.1757   -2.8479   -3.8659 H         1 <0>         0.0698
     49 H13        -2.9276   -2.5760   -2.2756 H         1 <0>         0.0697
     50 H14        -3.9908   -0.5061   -3.1323 H         1 <0>         0.0866
     51 H15        -3.2389   -0.7781   -4.7226 H         1 <0>         0.0867
     52 H16        -4.4389   -2.9390   -4.9204 H         1 <0>         0.0645
     53 H17        -5.1908   -2.6670   -3.3301 H         1 <0>         0.0642
     54 H18        -6.2279   -3.9859   -4.5800 H         1 <0>         0.1233
     55 H19        -8.2387   -5.1890   -5.3245 H         1 <0>         0.1224
     56 H20        -7.9014   -0.3242   -6.0081 H         1 <0>         0.1240
     57 H21       -11.0139   -1.0867   -6.2460 H         1 <0>         0.0794
     58 H22       -10.0919   -0.8636   -7.7634 H         1 <0>         0.0708
     59 H23       -12.1126   -2.7359   -7.5150 H         1 <0>         0.0854
     60 H24       -10.6957   -2.9885   -8.5882 H         1 <0>         0.0643
     61 H25        -9.7184   -5.0264   -8.3092 H         1 <0>         0.0566
     62 H26        -9.7927   -5.9605   -6.7958 H         1 <0>         0.0557
     63 H27         5.8127   -4.0145   -0.0653 H         1 <0>         0.0857
     64 H28         6.9003   -3.4644    1.8329 H         1 <0>         0.0741
     65 H29         6.0069   -1.9960    1.3987 H         1 <0>         0.0798
     66 H30         5.8873   -2.4779    3.8292 H         1 <0>         0.0698
     67 H31         4.2784   -2.5286    3.0636 H         1 <0>         0.0645
     68 H32         6.0389   -4.9683    3.5895 H         1 <0>         0.0667
     69 H33         4.6619   -4.4693    4.6042 H         1 <0>         0.0715
     70 H34         3.9912   -6.2053    2.9831 H         1 <0>         0.0746
     71 H35         3.1503   -4.6742    2.6775 H         1 <0>         0.0718
     72 H36         5.3799   -5.9537    1.0621 H         1 <0>         0.1302
@<TRIPOS>BOND
     1    1    2 1
     2    1   38 1
     3    1   39 1
     4    1   40 1
     5    2    3 1
     6    2   41 1
     7    2   42 1
     8    3    4 1
     9    3   43 1
    10    3   44 1
    11    4    9 ar
    12    4    5 ar
    13    5    6 ar
    14    5   45 1
    15    6    7 ar
    16    6   29 1
    17    7    8 ar
    18    7   46 1
    19    8    9 ar
    20    8   47 1
    21    9   10 1
    22   10   11 1
    23   11   12 1
    24   11   48 1
    25   11   49 1
    26   12   13 1
    27   12   50 1
    28   12   51 1
    29   13   14 1
    30   13   52 1
    31   13   53 1
    32   14   15 1
    33   15   20 ar
    34   15   16 ar
    35   16   17 ar
    36   16   54 1
    37   17   18 ar
    38   17   55 1
    39   18   23 1
    40   18   19 ar
    41   19   20 ar
    42   19   21 1
    43   20   56 1
    44   21   22 1
    45   21   57 1
    46   21   58 1
    47   22   23 1
    48   22   59 1
    49   22   60 1
    50   23   24 1
    51   23   25 1
    52   25   26 1
    53   25   61 1
    54   25   62 1
    55   26   27 2
    56   26   28 1
    57   29   37 1
    58   29   30 2
    59   30   31 1
    60   31   36 1
    61   31   32 1
    62   31   63 1
    63   32   33 1
    64   32   64 1
    65   32   65 1
    66   33   34 1
    67   33   66 1
    68   33   67 1
    69   34   35 1
    70   34   68 1
    71   34   69 1
    72   35   36 1
    73   35   70 1
    74   35   71 1
    75   36   37 1
    76   36   72 1
@<TRIPOS>MOLECULE
CHEMBL149438
   68    70     0     0     0
SMALL
USER_CHARGES

@<TRIPOS>ATOM
      1 C1         -0.4739    2.2611   -0.7308 C.3       1 <0>        -0.1487
      2 C2         -0.4447    0.7363   -0.6089 C.3       1 <0>        -0.1417
      3 C3         -1.8763    0.1964   -0.6182 C.3       1 <0>         0.1276
      4 N1         -1.8484   -1.2636   -0.5015 N.am      1 <0>        -0.5548
      5 C4         -1.7872   -2.1528   -1.5466 C.2       1 <0>         0.2769
      6 N2         -1.7792   -3.3563   -1.0712 N.2       1 <0>        -0.2668
      7 N3         -1.8364   -3.2736    0.3269 N.am      1 <0>        -0.4491
      8 C5         -1.8725   -1.9639    0.6503 C.2       1 <0>         0.6441
      9 O1         -1.9207   -1.5000    1.7755 O.2       1 <0>        -0.5613
     10 C6         -1.8483   -4.3999    1.2637 C.3       1 <0>         0.1643
     11 C7         -3.2935   -4.8245    1.5323 C.3       1 <0>        -0.1043
     12 C8         -3.9146   -5.3643    0.2423 C.3       1 <0>        -0.1097
     13 C9         -5.3597   -5.7889    0.5109 C.3       1 <0>        -0.1196
     14 C10        -5.3796   -6.8809    1.5824 C.3       1 <0>        -0.1202
     15 C11        -4.7585   -6.3412    2.8723 C.3       1 <0>        -0.1170
     16 C12        -3.3134   -5.9166    2.6037 C.3       1 <0>        -0.1108
     17 C13        -1.7375   -1.7868   -3.0077 C.3       1 <0>        -0.0438
     18 C14        -1.6757   -3.0619   -3.8510 C.3       1 <0>        -0.1039
     19 C15        -1.6253   -2.6903   -5.3344 C.3       1 <0>        -0.0663
     20 C16        -1.5645   -3.9462   -6.1651 C.ar      1 <0>        -0.1402
     21 C17        -0.3399   -4.4978   -6.4934 C.ar      1 <0>        -0.0897
     22 C18        -0.2814   -5.6488   -7.2551 C.ar      1 <0>        -0.1710
     23 C19        -1.4528   -6.2514   -7.6904 C.ar      1 <0>         0.1670
     24 C20        -2.6802   -5.6961   -7.3592 C.ar      1 <0>        -0.1573
     25 C21        -2.7335   -4.5480   -6.5929 C.ar      1 <0>        -0.0895
     26 O2         -1.3979   -7.3834   -8.4403 O.3       1 <0>        -0.3043
     27 C22        -2.6404   -8.0186   -8.7480 C.3       1 <0>         0.0304
     28 C23        -2.3767   -9.2887   -9.5594 C.3       1 <0>        -0.1153
     29 C24        -3.3619   -8.3838   -7.4492 C.3       1 <0>        -0.1753
     30 C25        -3.4997   -7.0778   -9.5527 C.2       1 <0>         0.4821
     31 O3         -3.0865   -5.9664   -9.8363 O.co2     1 <0>        -0.6696
     32 O4         -4.6083   -7.4281   -9.9201 O.co2     1 <0>        -0.6872
     33 H1          0.5460    2.6457   -0.7242 H         1 <0>         0.0612
     34 H2         -0.9619    2.5417   -1.6641 H         1 <0>         0.0598
     35 H3         -1.0264    2.6823    0.1091 H         1 <0>         0.0578
     36 H4          0.1079    0.3151   -1.4488 H         1 <0>         0.0697
     37 H5          0.0434    0.4556    0.3245 H         1 <0>         0.0684
     38 H6         -2.4288    0.6176    0.2217 H         1 <0>         0.0933
     39 H7         -2.3643    0.4771   -1.5515 H         1 <0>         0.0945
     40 H8         -1.2979   -5.2364    0.8331 H         1 <0>         0.0943
     41 H9         -1.3781   -4.0989    2.1998 H         1 <0>         0.0917
     42 H10        -3.8663   -3.9646    1.8792 H         1 <0>         0.0727
     43 H11        -3.9004   -4.5863   -0.5210 H         1 <0>         0.0659
     44 H12        -3.3417   -6.2242   -0.1046 H         1 <0>         0.0654
     45 H13        -5.9326   -4.9289    0.8579 H         1 <0>         0.0568
     46 H14        -5.8022   -6.1734   -0.4080 H         1 <0>         0.0633
     47 H15        -6.4092   -7.1834    1.7737 H         1 <0>         0.0595
     48 H16        -4.8068   -7.7409    1.2354 H         1 <0>         0.0628
     49 H17        -5.3314   -5.4812    3.2193 H         1 <0>         0.0602
     50 H18        -4.7727   -7.1192    3.6356 H         1 <0>         0.0623
     51 H19        -2.7405   -6.7765    2.2567 H         1 <0>         0.0668
     52 H20        -2.8709   -5.5321    3.5226 H         1 <0>         0.0638
     53 H21        -2.6306   -1.2201   -3.2708 H         1 <0>         0.0958
     54 H22        -0.8525   -1.1804   -3.2004 H         1 <0>         0.0956
     55 H23        -0.7826   -3.6286   -3.5879 H         1 <0>         0.0738
     56 H24        -2.5608   -3.6682   -3.6583 H         1 <0>         0.0742
     57 H25        -2.5184   -2.1235   -5.5975 H         1 <0>         0.0672
     58 H26        -0.7403   -2.0839   -5.5271 H         1 <0>         0.0665
     59 H27         0.5717   -4.0283   -6.1543 H         1 <0>         0.1154
     60 H28         0.6754   -6.0789   -7.5119 H         1 <0>         0.1180
     61 H29        -3.5935   -6.1634   -7.6969 H         1 <0>         0.1381
     62 H30        -3.6889   -4.1178   -6.3311 H         1 <0>         0.1120
     63 H31        -1.8280  -10.0039   -8.9466 H         1 <0>         0.0500
     64 H32        -3.3261   -9.7269   -9.8672 H         1 <0>         0.0779
     65 H33        -1.7880   -9.0400  -10.4425 H         1 <0>         0.0565
     66 H34        -3.4331   -7.5018   -6.8127 H         1 <0>         0.0700
     67 H35        -4.3634   -8.7472   -7.6798 H         1 <0>         0.0738
     68 H36        -2.8034   -9.1626   -6.9299 H         1 <0>         0.0500
@<TRIPOS>BOND
     1    1    2 1
     2    1   33 1
     3    1   34 1
     4    1   35 1
     5    2    3 1
     6    2   36 1
     7    2   37 1
     8    3    4 1
     9    3   38 1
    10    3   39 1
    11    4    8 am
    12    4    5 1
    13    5    6 2
    14    5   17 1
    15    6    7 1
    16    7    8 am
    17    7   10 1
    18    8    9 2
    19   10   11 1
    20   10   40 1
    21   10   41 1
    22   11   16 1
    23   11   12 1
    24   11   42 1
    25   12   13 1
    26   12   43 1
    27   12   44 1
    28   13   14 1
    29   13   45 1
    30   13   46 1
    31   14   15 1
    32   14   47 1
    33   14   48 1
    34   15   16 1
    35   15   49 1
    36   15   50 1
    37   16   51 1
    38   16   52 1
    39   17   18 1
    40   17   53 1
    41   17   54 1
    42   18   19 1
    43   18   55 1
    44   18   56 1
    45   19   20 1
    46   19   57 1
    47   19   58 1
    48   20   25 ar
    49   20   21 ar
    50   21   22 ar
    51   21   59 1
    52   22   23 ar
    53   22   60 1
    54   23   24 ar
    55   23   26 1
    56   24   25 ar
    57   24   61 1
    58   25   62 1
    59   26   27 1
    60   27   28 1
    61   27   29 1
    62   27   30 1
    63   28   63 1
    64   28   64 1
    65   28   65 1
    66   29   66 1
    67   29   67 1
    68   29   68 1
    69   30   31 2
    70   30   32 1
@<TRIPOS>MOLECULE
CHEMBL209563
   59    61     0     0     0
SMALL
USER_CHARGES

@<TRIPOS>ATOM
      1 C1         -0.0187    1.5258    0.0104 C.3       1 <0>        -0.1521
      2 C2          0.0021   -0.0041    0.0020 C.3       1 <0>        -0.1163
      3 C3         -1.4333   -0.5336    0.0129 C.3       1 <0>        -0.0696
      4 C4         -1.4129   -2.0405    0.0046 C.ar      1 <0>        -0.1250
      5 C5         -1.4091   -2.7284   -1.1962 C.ar      1 <0>         0.2043
      6 C6         -1.3902   -4.1210   -1.2125 C.ar      1 <0>        -0.2162
      7 C7         -1.3752   -4.8265   -0.0438 C.ar      1 <0>         0.0008
      8 C8         -1.3783   -4.1488    1.1782 C.ar      1 <0>        -0.2154
      9 C9         -1.3920   -2.7433    1.2011 C.ar      1 <0>         0.1308
     10 O1         -1.3852   -2.3679    2.4962 O.3       1 <0>        -0.0564
     11 N1         -1.3616   -3.5187    3.3166 N.2       1 <0>        -0.2276
     12 C10        -1.3657   -4.5850    2.5767 C.2       1 <0>         0.0482
     13 C11        -1.3444   -6.0101    3.0661 C.3       1 <0>         0.5556
     14 F1         -0.0190   -6.4336    3.2112 F         1 <0>        -0.1563
     15 F2         -1.9969   -6.0889    4.3011 F         1 <0>        -0.1570
     16 F3         -1.9976   -6.8309    2.1405 F         1 <0>        -0.1550
     17 O2         -1.4243   -2.0406   -2.3674 O.3       1 <0>        -0.2942
     18 C12        -1.4195   -2.8099   -3.5717 C.3       1 <0>         0.0574
     19 C13        -1.4384   -1.8689   -4.7780 C.3       1 <0>        -0.1423
     20 C14        -1.4332   -2.6926   -6.0673 C.3       1 <0>         0.1548
     21 N2         -1.4513   -1.7916   -7.2224 N.pl3     1 <0>        -0.6691
     22 C15        -0.1918   -1.3235   -7.8061 C.3       1 <0>         0.1172
     23 C16        -2.6694   -1.3790   -7.7672 C.ar      1 <0>         0.1334
     24 C17        -3.2834   -0.2223   -7.3032 C.ar      1 <0>        -0.1183
     25 C18        -4.4874    0.1831   -7.8443 C.ar      1 <0>        -0.1166
     26 C19        -5.0824   -0.5613   -8.8467 C.ar      1 <0>        -0.0149
     27 C20        -4.4743   -1.7132   -9.3105 C.ar      1 <0>        -0.1121
     28 C21        -3.2668   -2.1210   -8.7779 C.ar      1 <0>        -0.0916
     29 C22        -2.6015   -3.3730   -9.2887 C.3       1 <0>        -0.1001
     30 C23        -6.3966   -0.1160   -9.4345 C.3       1 <0>        -0.1600
     31 C24        -6.1396    0.7936  -10.6082 C.2       1 <0>         0.4967
     32 O3         -4.9952    1.0560  -10.9369 O.co2     1 <0>        -0.6865
     33 O4         -7.0760    1.2671  -11.2291 O.co2     1 <0>        -0.7032
     34 H1          1.0039    1.9031    0.0027 H         1 <0>         0.0547
     35 H2         -0.5459    1.8868   -0.8726 H         1 <0>         0.0575
     36 H3         -0.5289    1.8773    0.9072 H         1 <0>         0.0542
     37 H4          0.5123   -0.3556   -0.8948 H         1 <0>         0.0648
     38 H5          0.5293   -0.3651    0.8851 H         1 <0>         0.0586
     39 H6         -1.9435   -0.1821    0.9097 H         1 <0>         0.0747
     40 H7         -1.9605   -0.1726   -0.8702 H         1 <0>         0.0865
     41 H8         -1.3878   -4.6463   -2.1561 H         1 <0>         0.1488
     42 H9         -1.3613   -5.9062   -0.0637 H         1 <0>         0.1438
     43 H10        -0.5210   -3.4260   -3.6056 H         1 <0>         0.0679
     44 H11        -2.3007   -3.4508   -3.5969 H         1 <0>         0.0693
     45 H12        -2.3369   -1.2528   -4.7441 H         1 <0>         0.0788
     46 H13        -0.5571   -1.2280   -4.7527 H         1 <0>         0.0742
     47 H14        -0.5347   -3.3087   -6.1012 H         1 <0>         0.0636
     48 H15        -2.3144   -3.3335   -6.0926 H         1 <0>         0.0650
     49 H16         0.1288   -2.0176   -8.5829 H         1 <0>         0.0319
     50 H17        -0.3380   -0.3345   -8.2403 H         1 <0>         0.0568
     51 H18         0.5710   -1.2700   -7.0292 H         1 <0>         0.0509
     52 H19        -2.8197    0.3590   -6.5200 H         1 <0>         0.1117
     53 H20        -4.9652    1.0821   -7.4841 H         1 <0>         0.1133
     54 H21        -4.9419   -2.2924  -10.0929 H         1 <0>         0.1133
     55 H22        -2.9438   -4.2293   -8.7076 H         1 <0>         0.0579
     56 H23        -2.8590   -3.5193  -10.3377 H         1 <0>         0.0582
     57 H24        -1.5203   -3.2759   -9.1902 H         1 <0>         0.0634
     58 H25        -6.9599   -0.9880   -9.7671 H         1 <0>         0.0682
     59 H26        -6.9699    0.4200   -8.6782 H         1 <0>         0.0685
@<TRIPOS>BOND
     1    1    2 1
     2    1   34 1
     3    1   35 1
     4    1   36 1
     5    2    3 1
     6    2   37 1
     7    2   38 1
     8    3    4 1
     9    3   39 1
    10    3   40 1
    11    4    9 ar
    12    4    5 ar
    13    5    6 ar
    14    5   17 1
    15    6    7 ar
    16    6   41 1
    17    7    8 ar
    18    7   42 1
    19    8   12 1
    20    8    9 ar
    21    9   10 1
    22   10   11 1
    23   11   12 2
    24   12   13 1
    25   13   14 1
    26   13   15 1
    27   13   16 1
    28   17   18 1
    29   18   19 1
    30   18   43 1
    31   18   44 1
    32   19   20 1
    33   19   45 1
    34   19   46 1
    35   20   21 1
    36   20   47 1
    37   20   48 1
    38   21   22 1
    39   21   23 1
    40   22   49 1
    41   22   50 1
    42   22   51 1
    43   23   28 ar
    44   23   24 ar
    45   24   25 ar
    46   24   52 1
    47   25   26 ar
    48   25   53 1
    49   26   27 ar
    50   26   30 1
    51   27   28 ar
    52   27   54 1
    53   28   29 1
    54   29   55 1
    55   29   56 1
    56   29   57 1
    57   30   31 1
    58   30   58 1
    59   30   59 1
    60   31   32 2
    61   31   33 1
@<TRIPOS>MOLECULE
CHEMBL262558
   52    53     0     0     0
SMALL
USER_CHARGES

@<TRIPOS>ATOM
      1 C1          2.4202    0.3134   -0.3075 C.3       1 <0>        -0.1492
      2 C2          1.5132    0.6186    0.8863 C.3       1 <0>        -0.1022
      3 C3          0.6827   -0.6207    1.2257 C.3       1 <0>        -0.1510
      4 C4         -0.2383   -0.9549    0.0506 C.3       1 <0>        -0.0573
      5 C5         -0.9664   -2.2437    0.3337 C.ar      1 <0>        -0.0921
      6 C6         -0.4102   -3.4497   -0.0517 C.ar      1 <0>        -0.0864
      7 C7         -1.0757   -4.6322    0.2062 C.ar      1 <0>        -0.2093
      8 C8         -2.3031   -4.6094    0.8530 C.ar      1 <0>         0.1130
      9 C9         -2.8586   -3.3984    1.2390 C.ar      1 <0>        -0.1109
     10 C10        -2.1865   -2.2186    0.9833 C.ar      1 <0>        -0.0530
     11 C11        -4.1915   -3.3700    1.9416 C.3       1 <0>        -0.0674
     12 C12        -5.3140   -3.5128    0.9119 C.3       1 <0>        -0.1026
     13 C13        -6.6672   -3.4839    1.6252 C.3       1 <0>        -0.0893
     14 C14        -7.7729   -3.6245    0.6109 C.ar      1 <0>        -0.0382
     15 C15        -8.3152   -2.4991    0.0192 C.ar      1 <0>        -0.1185
     16 C16        -9.3294   -2.6281   -0.9112 C.ar      1 <0>        -0.0679
     17 C17        -9.8010   -3.8825   -1.2502 C.ar      1 <0>        -0.1953
     18 C18        -9.2580   -5.0080   -0.6591 C.ar      1 <0>        -0.0693
     19 C19        -8.2409   -4.8793    0.2681 C.ar      1 <0>        -0.1191
     20 C20       -10.9073   -4.0231   -2.2637 C.3       1 <0>         0.5091
     21 F1        -10.3549   -4.1419   -3.5436 F         1 <0>        -0.1778
     22 F2        -11.6628   -5.1644   -1.9742 F         1 <0>        -0.1792
     23 F3        -11.7312   -2.8936   -2.2144 F         1 <0>        -0.1785
     24 O1         -2.9600   -5.7715    1.1075 O.3       1 <0>        -0.3166
     25 C21        -2.3286   -6.9805    0.6813 C.3       1 <0>         0.0298
     26 C22        -0.1480   -0.3480    2.4532 C.2       1 <0>         0.5022
     27 O2         -0.0699   -1.0881    3.4189 O.co2     1 <0>        -0.6993
     28 O3         -0.8981    0.6128    2.4805 O.co2     1 <0>        -0.7018
     29 H1          1.8091    0.1444   -1.1942 H         1 <0>         0.0508
     30 H2          3.0877    1.1573   -0.4817 H         1 <0>         0.0441
     31 H3          3.0098   -0.5789   -0.0971 H         1 <0>         0.0474
     32 H4          2.1244    0.8930    1.7461 H         1 <0>         0.0517
     33 H5          0.8476    1.4444    0.6352 H         1 <0>         0.0637
     34 H6          1.3479   -1.4627    1.4169 H         1 <0>         0.0572
     35 H7         -0.9619   -0.1509   -0.0841 H         1 <0>         0.0707
     36 H8          0.3556   -1.0650   -0.8567 H         1 <0>         0.0578
     37 H9          0.5451   -3.4669   -0.5551 H         1 <0>         0.1170
     38 H10        -0.6413   -5.5738   -0.0956 H         1 <0>         0.1198
     39 H11        -2.6166   -1.2758    1.2872 H         1 <0>         0.1310
     40 H12        -4.2446   -4.1937    2.6535 H         1 <0>         0.0723
     41 H13        -4.3027   -2.4240    2.4716 H         1 <0>         0.0731
     42 H14        -5.2609   -2.6891    0.2000 H         1 <0>         0.0635
     43 H15        -5.2027   -4.4587    0.3819 H         1 <0>         0.0668
     44 H16        -6.7203   -4.3076    2.3371 H         1 <0>         0.0783
     45 H17        -6.7785   -2.5379    2.1552 H         1 <0>         0.0798
     46 H18        -7.9468   -1.5190    0.2840 H         1 <0>         0.1367
     47 H19        -9.7536   -1.7488   -1.3730 H         1 <0>         0.1342
     48 H20        -9.6266   -5.9881   -0.9237 H         1 <0>         0.1331
     49 H21        -7.8141   -5.7588    0.7272 H         1 <0>         0.1347
     50 H22        -2.9570   -7.8312    0.9451 H         1 <0>         0.0930
     51 H23        -2.1866   -6.9549   -0.3991 H         1 <0>         0.0498
     52 H24        -1.3605   -7.0776    1.1727 H         1 <0>         0.0515
@<TRIPOS>BOND
     1    1    2 1
     2    1   29 1
     3    1   30 1
     4    1   31 1
     5    2    3 1
     6    2   32 1
     7    2   33 1
     8    3    4 1
     9    3   26 1
    10    3   34 1
    11    4    5 1
    12    4   35 1
    13    4   36 1
    14    5   10 ar
    15    5    6 ar
    16    6    7 ar
    17    6   37 1
    18    7    8 ar
    19    7   38 1
    20    8    9 ar
    21    8   24 1
    22    9   10 ar
    23    9   11 1
    24   10   39 1
    25   11   12 1
    26   11   40 1
    27   11   41 1
    28   12   13 1
    29   12   42 1
    30   12   43 1
    31   13   14 1
    32   13   44 1
    33   13   45 1
    34   14   19 ar
    35   14   15 ar
    36   15   16 ar
    37   15   46 1
    38   16   17 ar
    39   16   47 1
    40   17   18 ar
    41   17   20 1
    42   18   19 ar
    43   18   48 1
    44   19   49 1
    45   20   21 1
    46   20   22 1
    47   20   23 1
    48   24   25 1
    49   25   50 1
    50   25   51 1
    51   25   52 1
    52   26   27 2
    53   26   28 1
@<TRIPOS>MOLECULE
CHEMBL262558__1
   52    53     0     0     0
SMALL
USER_CHARGES

@<TRIPOS>ATOM
      1 C1         -0.0187    1.5258    0.0104 C.3       1 <0>        -0.1446
      2 C2          0.0021   -0.0041    0.0020 C.3       1 <0>        -0.1003
      3 C3          0.7421   -0.5109    1.2415 C.3       1 <0>        -0.1541
      4 C4          0.6554   -2.0374    1.2986 C.3       1 <0>        -0.0573
      5 C5          1.2769   -2.5282    2.5808 C.ar      1 <0>        -0.0924
      6 C6          2.6261   -2.8284    2.6232 C.ar      1 <0>        -0.0578
      7 C7          3.1980   -3.2789    3.7970 C.ar      1 <0>        -0.2017
      8 C8          2.4176   -3.4297    4.9343 C.ar      1 <0>         0.1139
      9 C9          1.0646   -3.1274    4.8893 C.ar      1 <0>        -0.1216
     10 C10         0.4983   -2.6722    3.7141 C.ar      1 <0>        -0.0809
     11 C11         0.2140   -3.2900    6.1227 C.3       1 <0>        -0.0629
     12 C12        -0.1602   -4.7637    6.2935 C.3       1 <0>        -0.1045
     13 C13        -1.0237   -4.9288    7.5457 C.3       1 <0>        -0.0879
     14 C14        -1.3923   -6.3803    7.7139 C.ar      1 <0>        -0.0401
     15 C15        -2.5440   -6.8732    7.1296 C.ar      1 <0>        -0.1192
     16 C16        -2.8822   -8.2046    7.2839 C.ar      1 <0>        -0.0681
     17 C17        -2.0682   -9.0433    8.0221 C.ar      1 <0>        -0.1939
     18 C18        -0.9160   -8.5507    8.6056 C.ar      1 <0>        -0.0684
     19 C19        -0.5756   -7.2202    8.4478 C.ar      1 <0>        -0.1184
     20 C20        -2.4373  -10.4946    8.1911 C.3       1 <0>         0.5088
     21 F1         -1.8719  -11.2435    7.1535 F         1 <0>        -0.1772
     22 F2         -1.9532  -10.9590    9.4188 F         1 <0>        -0.1788
     23 F3         -3.8295  -10.6286    8.1580 F         1 <0>        -0.1786
     24 O1          2.9778   -3.8731    6.0903 O.3       1 <0>        -0.3182
     25 C21         4.3763   -4.1654    6.0631 C.3       1 <0>         0.0285
     26 C22         2.1879   -0.0922    1.1696 C.2       1 <0>         0.5068
     27 O2          2.6616    0.6161    2.0417 O.co2     1 <0>        -0.7010
     28 O3          2.8841   -0.4617    0.2394 O.co2     1 <0>        -0.7026
     29 H1          1.0039    1.9031    0.0027 H         1 <0>         0.0583
     30 H2         -0.5459    1.8868   -0.8726 H         1 <0>         0.0417
     31 H3         -0.5289    1.8773    0.9072 H         1 <0>         0.0459
     32 H4         -1.0205   -0.3814    0.0098 H         1 <0>         0.0435
     33 H5          0.5123   -0.3556   -0.8948 H         1 <0>         0.0629
     34 H6          0.2852   -0.0874    2.1360 H         1 <0>         0.0578
     35 H7         -0.3900   -2.3436    1.2611 H         1 <0>         0.0547
     36 H8          1.1896   -2.4636    0.4495 H         1 <0>         0.0721
     37 H9          3.2331   -2.7109    1.7377 H         1 <0>         0.1287
     38 H10         4.2516   -3.5139    3.8295 H         1 <0>         0.1216
     39 H11        -0.5542   -2.4328    3.6796 H         1 <0>         0.1218
     40 H12         0.7725   -2.9534    6.9961 H         1 <0>         0.0719
     41 H13        -0.6930   -2.6944    6.0197 H         1 <0>         0.0674
     42 H14        -0.7187   -5.1003    5.4200 H         1 <0>         0.0633
     43 H15         0.7469   -5.3593    6.3965 H         1 <0>         0.0685
     44 H16        -0.4652   -4.5922    8.4191 H         1 <0>         0.0782
     45 H17        -1.9307   -4.3332    7.4427 H         1 <0>         0.0774
     46 H18        -3.1799   -6.2179    6.5528 H         1 <0>         0.1353
     47 H19        -3.7824   -8.5895    6.8279 H         1 <0>         0.1342
     48 H20        -0.2803   -9.2059    9.1827 H         1 <0>         0.1339
     49 H21         0.3265   -6.8362    8.9006 H         1 <0>         0.1352
     50 H22         4.6949   -4.5090    7.0473 H         1 <0>         0.0933
     51 H23         4.5704   -4.9445    5.3259 H         1 <0>         0.0511
     52 H24         4.9304   -3.2657    5.7954 H         1 <0>         0.0540
@<TRIPOS>BOND
     1    1    2 1
     2    1   29 1
     3    1   30 1
     4    1   31 1
     5    2    3 1
     6    2   32 1
     7    2   33 1
     8    3    4 1
     9    3   26 1
    10    3   34 1
    11    4    5 1
    12    4   35 1
    13    4   36 1
    14    5   10 ar
    15    5    6 ar
    16    6    7 ar
    17    6   37 1
    18    7    8 ar
    19    7   38 1
    20    8    9 ar
    21    8   24 1
    22    9   10 ar
    23    9   11 1
    24   10   39 1
    25   11   12 1
    26   11   40 1
    27   11   41 1
    28   12   13 1
    29   12   42 1
    30   12   43 1
    31   13   14 1
    32   13   44 1
    33   13   45 1
    34   14   19 ar
    35   14   15 ar
    36   15   16 ar
    37   15   46 1
    38   16   17 ar
    39   16   47 1
    40   17   18 ar
    41   17   20 1
    42   18   19 ar
    43   18   48 1
    44   19   49 1
    45   20   21 1
    46   20   22 1
    47   20   23 1
    48   24   25 1
    49   25   50 1
    50   25   51 1
    51   25   52 1
    52   26   27 2
    53   26   28 1
@<TRIPOS>MOLECULE
CHEMBL121206
   56    59     0     0     0
SMALL
USER_CHARGES

@<TRIPOS>ATOM
      1 C1         -0.0187    1.5258    0.0104 C.3       1 <0>        -0.1520
      2 C2          0.0021   -0.0041    0.0020 C.3       1 <0>        -0.1173
      3 C3          0.7182   -0.4975   -1.2568 C.3       1 <0>        -0.0698
      4 C4          0.7386   -2.0043   -1.2651 C.ar      1 <0>        -0.1232
      5 C5          1.7874   -2.6879   -0.6752 C.ar      1 <0>         0.2032
      6 C6          1.8138   -4.0805   -0.6786 C.ar      1 <0>        -0.2160
      7 C7          0.8051   -4.7902   -1.2640 C.ar      1 <0>         0.0015
      8 C8         -0.2622   -4.1169   -1.8640 C.ar      1 <0>        -0.2138
      9 C9         -0.2971   -2.7116   -1.8592 C.ar      1 <0>         0.1307
     10 O1         -1.4279   -2.3410   -2.4934 O.3       1 <0>        -0.0560
     11 N1         -2.1323   -3.4949   -2.9061 N.2       1 <0>        -0.2266
     12 C10        -1.4728   -4.5582   -2.5610 C.2       1 <0>         0.0484
     13 C11        -1.8852   -5.9851   -2.8158 C.3       1 <0>         0.5555
     14 F1         -2.6666   -6.4423   -1.7492 F         1 <0>        -0.1559
     15 F2         -2.6274   -6.0518   -3.9998 F         1 <0>        -0.1568
     16 F3         -0.7443   -6.7860   -2.9349 F         1 <0>        -0.1548
     17 O2          2.7986   -1.9959   -0.0891 O.3       1 <0>        -0.2928
     18 C12         3.8511   -2.7608    0.5018 C.3       1 <0>         0.0595
     19 C13         4.8906   -1.8155    1.1073 C.3       1 <0>        -0.1196
     20 C14         6.0175   -2.6345    1.7400 C.3       1 <0>         0.0655
     21 O3          6.9884   -1.7516    2.3056 O.3       1 <0>        -0.3088
     22 C15         8.0625   -2.3223    2.9113 C.ar      1 <0>         0.1698
     23 C16         8.1856   -3.6977    2.9572 C.ar      1 <0>        -0.2532
     24 C17         9.2818   -4.2825    3.5749 C.ar      1 <0>        -0.0753
     25 C18        10.2624   -3.5053    4.1512 C.ar      1 <0>        -0.1478
     26 C19        10.1607   -2.1176    4.1177 C.ar      1 <0>         0.1493
     27 C20         9.0549   -1.5204    3.4881 C.ar      1 <0>        -0.1352
     28 C21         9.2467   -0.0738    3.6167 C.2       1 <0>        -0.2062
     29 C22        10.4001    0.1117    4.2772 C.2       1 <0>         0.0602
     30 N2         10.9566   -1.0992    4.5924 N.pl3     1 <0>        -0.4399
     31 C23        12.2186   -1.2835    5.3133 C.3       1 <0>         0.0320
     32 C24        13.3431   -1.4478    4.3235 C.2       1 <0>         0.4806
     33 O4         13.1118   -1.4141    3.1269 O.co2     1 <0>        -0.6712
     34 O5         14.4842   -1.6144    4.7194 O.co2     1 <0>        -0.6923
     35 H1          1.0039    1.9031    0.0027 H         1 <0>         0.0575
     36 H2         -0.5459    1.8868   -0.8726 H         1 <0>         0.0540
     37 H3         -0.5289    1.8773    0.9072 H         1 <0>         0.0551
     38 H4          0.5293   -0.3651    0.8851 H         1 <0>         0.0657
     39 H5         -1.0205   -0.3814    0.0098 H         1 <0>         0.0591
     40 H6          0.1910   -0.1364   -2.1398 H         1 <0>         0.0751
     41 H7          1.7408   -0.1202   -1.2645 H         1 <0>         0.0867
     42 H8          2.6380   -4.6024   -0.2152 H         1 <0>         0.1495
     43 H9          0.8322   -5.8699   -1.2636 H         1 <0>         0.1448
     44 H10         3.4411   -3.3992    1.2844 H         1 <0>         0.0735
     45 H11         4.3234   -3.3793   -0.2614 H         1 <0>         0.0740
     46 H12         5.3007   -1.1771    0.3248 H         1 <0>         0.0886
     47 H13         4.4184   -1.1969    1.8705 H         1 <0>         0.0879
     48 H14         5.6075   -3.2729    2.5226 H         1 <0>         0.0633
     49 H15         6.4898   -3.2530    0.9768 H         1 <0>         0.0641
     50 H16         7.4247   -4.3205    2.5106 H         1 <0>         0.1188
     51 H17         9.3670   -5.3587    3.6045 H         1 <0>         0.1206
     52 H18        11.1103   -3.9730    4.6294 H         1 <0>         0.1159
     53 H19         8.5856    0.6971    3.2491 H         1 <0>         0.1412
     54 H20        10.8221    1.0730    4.5306 H         1 <0>         0.1607
     55 H21        12.4100   -0.4119    5.9393 H         1 <0>         0.0884
     56 H22        12.1528   -2.1732    5.9394 H         1 <0>         0.0840
@<TRIPOS>BOND
     1    1    2 1
     2    1   35 1
     3    1   36 1
     4    1   37 1
     5    2    3 1
     6    2   38 1
     7    2   39 1
     8    3    4 1
     9    3   40 1
    10    3   41 1
    11    4    9 ar
    12    4    5 ar
    13    5    6 ar
    14    5   17 1
    15    6    7 ar
    16    6   42 1
    17    7    8 ar
    18    7   43 1
    19    8   12 1
    20    8    9 ar
    21    9   10 1
    22   10   11 1
    23   11   12 2
    24   12   13 1
    25   13   14 1
    26   13   15 1
    27   13   16 1
    28   17   18 1
    29   18   19 1
    30   18   44 1
    31   18   45 1
    32   19   20 1
    33   19   46 1
    34   19   47 1
    35   20   21 1
    36   20   48 1
    37   20   49 1
    38   21   22 1
    39   22   27 ar
    40   22   23 ar
    41   23   24 ar
    42   23   50 1
    43   24   25 ar
    44   24   51 1
    45   25   26 ar
    46   25   52 1
    47   26   30 1
    48   26   27 ar
    49   27   28 1
    50   28   29 2
    51   28   53 1
    52   29   30 1
    53   29   54 1
    54   30   31 1
    55   31   32 1
    56   31   55 1
    57   31   56 1
    58   32   33 2
    59   32   34 1
@<TRIPOS>MOLECULE
CHEMBL459789
   54    56     0     0     0
SMALL
USER_CHARGES

@<TRIPOS>ATOM
      1 C1         -3.0947   -3.2951    3.3802 C.3       1 <0>        -0.1058
      2 C2         -2.0722   -3.2396    2.2746 C.ar      1 <0>        -0.1053
      3 C3         -2.1778   -4.0922    1.1932 C.ar      1 <0>        -0.0575
      4 C4         -1.2352   -4.0408    0.1743 C.ar      1 <0>        -0.1445
      5 C5         -0.1870   -3.1315    0.2442 C.ar      1 <0>        -0.0937
      6 C6         -0.0834   -2.2801    1.3261 C.ar      1 <0>        -0.1962
      7 C7         -1.0287   -2.3284    2.3405 C.ar      1 <0>         0.1429
      8 O1         -0.9290   -1.4851    3.4029 O.3       1 <0>        -0.2740
      9 C8          0.1706   -0.5726    3.4060 C.3       1 <0>        -0.0086
     10 C9          0.1169    0.2746    4.6511 C.2       1 <0>         0.5014
     11 O2         -0.7799    0.1120    5.4609 O.co2     1 <0>        -0.6692
     12 O3          0.9703    1.1227    4.8487 O.co2     1 <0>        -0.6865
     13 S1         -1.3684   -5.1284   -1.2056 S.3       1 <0>        -0.0845
     14 C10         0.0549   -4.6962   -2.2439 C.3       1 <0>        -0.1752
     15 C11         0.0605   -5.5780   -3.4943 C.3       1 <0>         0.3029
     16 O4          1.1554   -5.2059   -4.3349 O.3       1 <0>        -0.3671
     17 C12         1.0941   -3.8530   -4.7969 C.3       1 <0>         0.0497
     18 C13        -0.2189   -3.6470   -5.5602 C.3       1 <0>        -0.1925
     19 C14        -1.3862   -4.0643   -4.6590 C.3       1 <0>         0.0516
     20 O5         -1.1673   -5.4038   -4.2058 O.3       1 <0>        -0.3616
     21 C15         0.2082   -7.0444   -3.0835 C.3       1 <0>         0.0821
     22 O6          0.2135   -7.8680   -4.2513 O.3       1 <0>        -0.2859
     23 C16         0.3382   -9.2078   -4.0608 C.ar      1 <0>         0.1681
     24 C17         0.4474   -9.7197   -2.7760 C.ar      1 <0>        -0.2134
     25 C18         0.5736  -11.0821   -2.5850 C.ar      1 <0>        -0.0254
     26 C19         0.5916  -11.9351   -3.6730 C.ar      1 <0>        -0.2284
     27 C20         0.4834  -11.4274   -4.9545 C.ar      1 <0>        -0.0304
     28 C21         0.3508  -10.0663   -5.1505 C.ar      1 <0>        -0.1521
     29 C22         0.7299  -13.4208   -3.4618 C.3       1 <0>         0.5125
     30 F1         -0.5398  -13.9933   -3.3297 F         1 <0>        -0.1779
     31 F2          1.3857  -13.9889   -4.5593 F         1 <0>        -0.1789
     32 F3          1.4722  -13.6596   -2.3002 F         1 <0>        -0.1784
     33 H1         -3.9152   -2.6152    3.1508 H         1 <0>         0.0690
     34 H2         -3.4789   -4.3113    3.4691 H         1 <0>         0.0615
     35 H3         -2.6295   -2.9990    4.3205 H         1 <0>         0.0803
     36 H4         -2.9928   -4.7989    1.1401 H         1 <0>         0.1305
     37 H5          0.5466   -3.0909   -0.5473 H         1 <0>         0.1160
     38 H6          0.7312   -1.5732    1.3807 H         1 <0>         0.1322
     39 H7          1.1064   -1.1312    3.3866 H         1 <0>         0.0595
     40 H8          0.1125    0.0694    2.5270 H         1 <0>         0.0593
     41 H9         -0.0148   -3.6490   -2.5382 H         1 <0>         0.1038
     42 H10         0.9757   -4.8555   -1.6829 H         1 <0>         0.1091
     43 H11         1.1311   -3.1744   -3.9447 H         1 <0>         0.0580
     44 H12         1.9364   -3.6552   -5.4597 H         1 <0>         0.1054
     45 H13        -0.3234   -2.5961   -5.8300 H         1 <0>         0.0878
     46 H14        -0.2169   -4.2590   -6.4621 H         1 <0>         0.0850
     47 H15        -1.4431   -3.3937   -3.8016 H         1 <0>         0.0605
     48 H16        -2.3176   -4.0176   -5.2232 H         1 <0>         0.1058
     49 H17         1.1443   -7.1772   -2.5410 H         1 <0>         0.0913
     50 H18        -0.6265   -7.3281   -2.4426 H         1 <0>         0.1000
     51 H19         0.4341   -9.0537   -1.9259 H         1 <0>         0.1416
     52 H20         0.6587  -11.4811   -1.5851 H         1 <0>         0.1393
     53 H21         0.4981  -12.0957   -5.8027 H         1 <0>         0.1419
     54 H22         0.2618   -9.6705   -6.1514 H         1 <0>         0.1436
@<TRIPOS>BOND
     1    1    2 1
     2    1   33 1
     3    1   34 1
     4    1   35 1
     5    2    7 ar
     6    2    3 ar
     7    3    4 ar
     8    3   36 1
     9    4    5 ar
    10    4   13 1
    11    5    6 ar
    12    5   37 1
    13    6    7 ar
    14    6   38 1
    15    7    8 1
    16    8    9 1
    17    9   10 1
    18    9   39 1
    19    9   40 1
    20   10   11 2
    21   10   12 1
    22   13   14 1
    23   14   15 1
    24   14   41 1
    25   14   42 1
    26   15   20 1
    27   15   16 1
    28   15   21 1
    29   16   17 1
    30   17   18 1
    31   17   43 1
    32   17   44 1
    33   18   19 1
    34   18   45 1
    35   18   46 1
    36   19   20 1
    37   19   47 1
    38   19   48 1
    39   21   22 1
    40   21   49 1
    41   21   50 1
    42   22   23 1
    43   23   28 ar
    44   23   24 ar
    45   24   25 ar
    46   24   51 1
    47   25   26 ar
    48   25   52 1
    49   26   27 ar
    50   26   29 1
    51   27   28 ar
    52   27   53 1
    53   28   54 1
    54   29   30 1
    55   29   31 1
    56   29   32 1
@<TRIPOS>MOLECULE
CHEMBL1081046
   56    59     0     0     0
SMALL
USER_CHARGES

@<TRIPOS>ATOM
      1 C1          0.5530    0.0100    1.1761 C.3       1 <0>         0.0262
      2 O1         -0.1927   -0.1482   -0.0326 O.3       1 <0>        -0.3166
      3 C2          0.4501   -0.7224   -1.0834 C.ar      1 <0>         0.1355
      4 C3          1.7705   -1.1295   -0.9488 C.ar      1 <0>        -0.2078
      5 C4          2.4259   -1.7124   -2.0129 C.ar      1 <0>        -0.0502
      6 C5          1.7606   -1.8928   -3.2256 C.ar      1 <0>        -0.0564
      7 C6          0.4338   -1.4825   -3.3572 C.ar      1 <0>        -0.0447
      8 C7         -0.2170   -0.9054   -2.2871 C.ar      1 <0>        -0.1535
      9 C8          2.4613   -2.5181   -4.3711 C.2       1 <0>         0.1221
     10 C9          3.2837   -3.6317   -4.2163 C.2       1 <0>        -0.1507
     11 S1          3.8071   -3.8878   -5.9041 S.3       1 <0>         0.1572
     12 C10         2.9674   -2.6120   -6.6094 C.2       1 <0>         0.0581
     13 N1          2.3404   -2.0566   -5.6057 N.2       1 <0>        -0.4850
     14 C11         2.9399   -2.2072   -8.0608 C.3       1 <0>        -0.0336
     15 S2          4.2708   -1.0171   -8.3819 S.3       1 <0>        -0.0638
     16 C12         4.1071   -0.6469  -10.0967 C.ar      1 <0>        -0.1403
     17 C13         3.1018   -1.2466  -10.8443 C.ar      1 <0>        -0.0805
     18 C14         2.9739   -0.9554  -12.1883 C.ar      1 <0>        -0.1350
     19 C15         3.8489   -0.0644  -12.7922 C.ar      1 <0>         0.1567
     20 C16         4.8534    0.5355  -12.0474 C.ar      1 <0>        -0.1934
     21 C17         4.9802    0.2499  -10.7012 C.ar      1 <0>         0.0288
     22 Cl1         6.2330    1.0060   -9.7671 Cl        1 <0>        -0.0564
     23 O2          3.7219    0.2209  -14.1159 O.3       1 <0>        -0.2718
     24 C18         4.6570    1.1471  -14.6725 C.3       1 <0>        -0.0118
     25 C19         4.3631    1.3380  -16.1382 C.2       1 <0>         0.5022
     26 O3          3.4386    0.7366  -16.6579 O.co2     1 <0>        -0.6699
     27 O4          5.0498    2.0938  -16.8043 O.co2     1 <0>        -0.6842
     28 C20         3.6275   -4.3889   -2.9963 C.ar      1 <0>        -0.0422
     29 C21         2.6213   -4.7929   -2.1158 C.ar      1 <0>        -0.0437
     30 C22         2.9468   -5.5001   -0.9782 C.ar      1 <0>        -0.1483
     31 C23         4.2727   -5.8108   -0.7070 C.ar      1 <0>         0.1384
     32 C24         5.2762   -5.4112   -1.5795 C.ar      1 <0>        -0.2062
     33 C25         4.9593   -4.7083   -2.7222 C.ar      1 <0>        -0.0576
     34 O5          4.5891   -6.5078    0.4160 O.3       1 <0>        -0.3154
     35 C26         5.9721   -6.7937    0.6339 C.3       1 <0>         0.0251
     36 H1          0.8805   -0.9670    1.5315 H         1 <0>         0.0563
     37 H2          1.4233    0.6382    0.9865 H         1 <0>         0.0562
     38 H3         -0.0762    0.4795    1.9323 H         1 <0>         0.1001
     39 H4          2.2851   -0.9892   -0.0098 H         1 <0>         0.1303
     40 H5          3.4532   -2.0286   -1.9076 H         1 <0>         0.1256
     41 H6         -0.0842   -1.6202   -4.2947 H         1 <0>         0.1336
     42 H7         -1.2456   -0.5918   -2.3867 H         1 <0>         0.1338
     43 H8          3.0817   -3.0884   -8.6865 H         1 <0>         0.1142
     44 H9          1.9786   -1.7484   -8.2919 H         1 <0>         0.1217
     45 H10         2.4205   -1.9407  -10.3749 H         1 <0>         0.1340
     46 H11         2.1924   -1.4221  -12.7695 H         1 <0>         0.1425
     47 H12         5.5343    1.2288  -12.5186 H         1 <0>         0.1455
     48 H13         4.5714    2.1038  -14.1572 H         1 <0>         0.0632
     49 H14         5.6684    0.7588  -14.5523 H         1 <0>         0.0632
     50 H15         1.5898   -4.5513   -2.3258 H         1 <0>         0.1334
     51 H16         2.1694   -5.8125   -0.2967 H         1 <0>         0.1358
     52 H17         6.3062   -5.6548   -1.3645 H         1 <0>         0.1335
     53 H18         5.7401   -4.4014   -3.4024 H         1 <0>         0.1297
     54 H19         6.0856   -7.3531    1.5625 H         1 <0>         0.1013
     55 H20         6.3559   -7.3864   -0.1965 H         1 <0>         0.0576
     56 H21         6.5299   -5.8597    0.7019 H         1 <0>         0.0573
@<TRIPOS>BOND
     1    1    2 1
     2    1   36 1
     3    1   37 1
     4    1   38 1
     5    2    3 1
     6    3    8 ar
     7    3    4 ar
     8    4    5 ar
     9    4   39 1
    10    5    6 ar
    11    5   40 1
    12    6    7 ar
    13    6    9 1
    14    7    8 ar
    15    7   41 1
    16    8   42 1
    17    9   13 1
    18    9   10 2
    19   10   11 1
    20   10   28 1
    21   11   12 1
    22   12   13 2
    23   12   14 1
    24   14   15 1
    25   14   43 1
    26   14   44 1
    27   15   16 1
    28   16   21 ar
    29   16   17 ar
    30   17   18 ar
    31   17   45 1
    32   18   19 ar
    33   18   46 1
    34   19   20 ar
    35   19   23 1
    36   20   21 ar
    37   20   47 1
    38   21   22 1
    39   23   24 1
    40   24   25 1
    41   24   48 1
    42   24   49 1
    43   25   26 2
    44   25   27 1
    45   28   33 ar
    46   28   29 ar
    47   29   30 ar
    48   29   50 1
    49   30   31 ar
    50   30   51 1
    51   31   32 ar
    52   31   34 1
    53   32   33 ar
    54   32   52 1
    55   33   53 1
    56   34   35 1
    57   35   54 1
    58   35   55 1
    59   35   56 1
@<TRIPOS>MOLECULE
CHEMBL1081926
   54    57     0     0     0
SMALL
USER_CHARGES

@<TRIPOS>ATOM
      1 C1         -0.4906    2.0119   -0.7930 C.3       1 <0>        -0.1056
      2 C2         -0.3833    0.5176   -0.6300 C.ar      1 <0>        -0.0847
      3 C3         -0.3207   -0.2961   -1.7447 C.ar      1 <0>        -0.1078
      4 C4         -0.2215   -1.6712   -1.5947 C.ar      1 <0>         0.0749
      5 C5         -0.1850   -2.2296   -0.3254 C.ar      1 <0>        -0.1697
      6 C6         -0.2476   -1.4161    0.7889 C.ar      1 <0>        -0.1756
      7 C7         -0.3415   -0.0403    0.6389 C.ar      1 <0>         0.1108
      8 O1         -0.3975    0.7611    1.7361 O.3       1 <0>        -0.2773
      9 C8         -0.3496    0.1187    3.0117 C.3       1 <0>        -0.0071
     10 C9         -0.4226    1.1581    4.1005 C.2       1 <0>         0.5012
     11 O2         -0.5077    2.3394    3.8110 O.co2     1 <0>        -0.6702
     12 O3         -0.3966    0.8176    5.2710 O.co2     1 <0>        -0.6884
     13 O4         -0.1603   -2.4721   -2.6919 O.3       1 <0>        -0.3101
     14 C10        -0.0590   -3.8791   -2.4632 C.3       1 <0>         0.1509
     15 C11        -0.0030   -4.6001   -3.7853 C.2       1 <0>         0.0512
     16 N1          1.0539   -4.9161   -4.4872 N.2       1 <0>        -0.4839
     17 C12         0.9544   -5.5560   -5.6413 C.2       1 <0>         0.1368
     18 C13        -0.3389   -5.8674   -6.0543 C.2       1 <0>        -0.1737
     19 S1         -1.2855   -5.1927   -4.6988 S.3       1 <0>         0.1819
     20 C14        -0.7988   -6.5651   -7.2716 C.ar      1 <0>        -0.0468
     21 C15        -0.2027   -7.7685   -7.6709 C.ar      1 <0>        -0.0311
     22 C16        -0.6702   -8.3826   -8.8182 C.ar      1 <0>        -0.1479
     23 C17        -1.7030   -7.7942   -9.5295 C.ar      1 <0>         0.1799
     24 N2         -2.2455   -6.6592   -9.1295 N.ar      1 <0>        -0.4705
     25 C18        -1.8386   -6.0397   -8.0405 C.ar      1 <0>         0.1401
     26 Cl1        -2.2932   -8.5616  -10.9705 Cl        1 <0>        -0.0251
     27 C19         2.1451   -5.9185   -6.4446 C.ar      1 <0>        -0.0625
     28 C20         2.1349   -5.7422   -7.8283 C.ar      1 <0>        -0.0545
     29 C21         3.2451   -6.0807   -8.5729 C.ar      1 <0>        -0.1507
     30 C22         4.3718   -6.5968   -7.9472 C.ar      1 <0>         0.1388
     31 C23         4.3854   -6.7736   -6.5702 C.ar      1 <0>        -0.2093
     32 C24         3.2811   -6.4315   -5.8185 C.ar      1 <0>        -0.0410
     33 O5          5.4638   -6.9302   -8.6843 O.3       1 <0>        -0.3158
     34 C25         6.5885   -7.4557   -7.9766 C.3       1 <0>         0.0254
     35 H1          0.5085    2.4457   -0.8337 H         1 <0>         0.0696
     36 H2         -1.0234    2.2394   -1.7163 H         1 <0>         0.0615
     37 H3         -1.0347    2.4315    0.0532 H         1 <0>         0.0810
     38 H4         -0.3495    0.1386   -2.7329 H         1 <0>         0.1328
     39 H5         -0.1081   -3.3005   -0.2086 H         1 <0>         0.1248
     40 H6         -0.2199   -1.8509    1.7771 H         1 <0>         0.1324
     41 H7         -1.1927   -0.5657    3.1057 H         1 <0>         0.0580
     42 H8          0.5827   -0.4385    3.1032 H         1 <0>         0.0580
     43 H9          0.8471   -4.0905   -1.8954 H         1 <0>         0.0968
     44 H10        -0.9282   -4.2192   -1.9004 H         1 <0>         0.0904
     45 H11         0.6016   -8.2051   -7.0975 H         1 <0>         0.1487
     46 H12        -0.2344   -9.3111   -9.1565 H         1 <0>         0.1521
     47 H13        -2.3106   -5.1152   -7.7425 H         1 <0>         0.1697
     48 H14         1.2586   -5.3413   -8.3158 H         1 <0>         0.1277
     49 H15         3.2380   -5.9444   -9.6443 H         1 <0>         0.1347
     50 H16         5.2635   -7.1757   -6.0868 H         1 <0>         0.1326
     51 H17         3.2942   -6.5648   -4.7469 H         1 <0>         0.1306
     52 H18         7.3891   -7.6797   -8.6815 H         1 <0>         0.1013
     53 H19         6.9377   -6.7203   -7.2518 H         1 <0>         0.0577
     54 H20         6.2965   -8.3681   -7.4565 H         1 <0>         0.0569
@<TRIPOS>BOND
     1    1    2 1
     2    1   35 1
     3    1   36 1
     4    1   37 1
     5    2    7 ar
     6    2    3 ar
     7    3    4 ar
     8    3   38 1
     9    4    5 ar
    10    4   13 1
    11    5    6 ar
    12    5   39 1
    13    6    7 ar
    14    6   40 1
    15    7    8 1
    16    8    9 1
    17    9   10 1
    18    9   41 1
    19    9   42 1
    20   10   11 2
    21   10   12 1
    22   13   14 1
    23   14   15 1
    24   14   43 1
    25   14   44 1
    26   15   19 1
    27   15   16 2
    28   16   17 1
    29   17   18 2
    30   17   27 1
    31   18   19 1
    32   18   20 1
    33   20   25 ar
    34   20   21 ar
    35   21   22 ar
    36   21   45 1
    37   22   23 ar
    38   22   46 1
    39   23   24 ar
    40   23   26 1
    41   24   25 ar
    42   25   47 1
    43   27   32 ar
    44   27   28 ar
    45   28   29 ar
    46   28   48 1
    47   29   30 ar
    48   29   49 1
    49   30   31 ar
    50   30   33 1
    51   31   32 ar
    52   31   50 1
    53   32   51 1
    54   33   34 1
    55   34   52 1
    56   34   53 1
    57   34   54 1
@<TRIPOS>MOLECULE
CHEMBL210768
   52    54     0     0     0
SMALL
USER_CHARGES

@<TRIPOS>ATOM
      1 C1         -0.0187    1.5258    0.0104 C.3       1 <0>        -0.1519
      2 C2          0.0021   -0.0041    0.0020 C.3       1 <0>        -0.1173
      3 C3          0.7421   -0.5109    1.2415 C.3       1 <0>        -0.0696
      4 C4          0.7625   -2.0177    1.2333 C.ar      1 <0>        -0.1232
      5 C5         -0.2618   -2.7295    1.8327 C.ar      1 <0>         0.2029
      6 C6         -0.2503   -4.1223    1.8294 C.ar      1 <0>        -0.2159
      7 C7          0.7717   -4.8044    1.2346 C.ar      1 <0>         0.0018
      8 C8          1.8143   -4.1024    0.6239 C.ar      1 <0>        -0.2135
      9 C9          1.8057   -2.6968    0.6194 C.ar      1 <0>         0.1306
     10 O1          2.9142   -2.2956   -0.0353 O.3       1 <0>        -0.0562
     11 N1          3.6416   -3.4301   -0.4619 N.2       1 <0>        -0.2265
     12 C10         3.0298   -4.5107   -0.0846 C.2       1 <0>         0.0487
     13 C11         3.4787   -5.9260   -0.3428 C.3       1 <0>         0.5554
     14 F1          2.9526   -6.3671   -1.5617 F         1 <0>        -0.1559
     15 F2          4.8760   -5.9698   -0.3949 F         1 <0>        -0.1568
     16 F3          3.0242   -6.7548    0.6885 F         1 <0>        -0.1546
     17 O2         -1.2855   -2.0651    2.4291 O.3       1 <0>        -0.2930
     18 C12        -2.3113   -2.8583    3.0296 C.3       1 <0>         0.0592
     19 C13        -3.3699   -1.9415    3.6458 C.3       1 <0>        -0.1186
     20 C14        -4.4682   -2.7907    4.2888 C.3       1 <0>         0.0643
     21 O3         -5.4569   -1.9344    4.8643 O.3       1 <0>        -0.3048
     22 C15        -6.5097   -2.5342    5.4803 C.ar      1 <0>         0.1109
     23 C16        -6.5865   -3.9181    5.5346 C.ar      1 <0>        -0.1924
     24 C17        -7.6573   -4.5255    6.1615 C.ar      1 <0>        -0.0735
     25 C18        -8.6527   -3.7555    6.7345 C.ar      1 <0>        -0.0378
     26 C19        -8.5796   -2.3760    6.6818 C.ar      1 <0>        -0.0708
     27 C20        -7.5071   -1.7629    6.0610 C.ar      1 <0>        -0.0568
     28 Cl1        -7.4118   -0.0306    6.0012 Cl        1 <0>        -0.0731
     29 C21        -9.8196   -4.4214    7.4172 C.3       1 <0>        -0.1565
     30 C22        -9.4948   -4.6347    8.8732 C.2       1 <0>         0.4958
     31 O4         -8.4158   -4.2790    9.3156 O.co2     1 <0>        -0.6864
     32 O5        -10.3111   -5.1629    9.6089 O.co2     1 <0>        -0.7003
     33 H1          1.0039    1.9031    0.0027 H         1 <0>         0.0541
     34 H2         -0.5459    1.8868   -0.8726 H         1 <0>         0.0551
     35 H3         -0.5289    1.8773    0.9072 H         1 <0>         0.0572
     36 H4         -1.0205   -0.3814    0.0098 H         1 <0>         0.0656
     37 H5          0.5123   -0.3556   -0.8948 H         1 <0>         0.0592
     38 H6          1.7647   -0.1336    1.2338 H         1 <0>         0.0751
     39 H7          0.2319   -0.1594    2.1383 H         1 <0>         0.0864
     40 H8         -1.0553   -4.6663    2.3009 H         1 <0>         0.1496
     41 H9          0.7747   -5.8844    1.2363 H         1 <0>         0.1451
     42 H10        -2.7742   -3.4889    2.2706 H         1 <0>         0.0738
     43 H11        -1.8767   -3.4858    3.8077 H         1 <0>         0.0746
     44 H12        -2.9070   -1.3108    4.4049 H         1 <0>         0.0892
     45 H13        -3.8045   -1.3139    2.8677 H         1 <0>         0.0883
     46 H14        -4.9311   -3.4213    3.5298 H         1 <0>         0.0646
     47 H15        -4.0336   -3.4182    5.0669 H         1 <0>         0.0662
     48 H16        -5.8099   -4.5204    5.0868 H         1 <0>         0.1287
     49 H17        -7.7172   -5.6030    6.2039 H         1 <0>         0.1253
     50 H18        -9.3587   -1.7768    7.1294 H         1 <0>         0.1335
     51 H19       -10.7015   -3.7866    7.3309 H         1 <0>         0.0720
     52 H20       -10.0167   -5.3834    6.9441 H         1 <0>         0.0722
@<TRIPOS>BOND
     1    1    2 1
     2    1   33 1
     3    1   34 1
     4    1   35 1
     5    2    3 1
     6    2   36 1
     7    2   37 1
     8    3    4 1
     9    3   38 1
    10    3   39 1
    11    4    9 ar
    12    4    5 ar
    13    5    6 ar
    14    5   17 1
    15    6    7 ar
    16    6   40 1
    17    7    8 ar
    18    7   41 1
    19    8   12 1
    20    8    9 ar
    21    9   10 1
    22   10   11 1
    23   11   12 2
    24   12   13 1
    25   13   14 1
    26   13   15 1
    27   13   16 1
    28   17   18 1
    29   18   19 1
    30   18   42 1
    31   18   43 1
    32   19   20 1
    33   19   44 1
    34   19   45 1
    35   20   21 1
    36   20   46 1
    37   20   47 1
    38   21   22 1
    39   22   27 ar
    40   22   23 ar
    41   23   24 ar
    42   23   48 1
    43   24   25 ar
    44   24   49 1
    45   25   26 ar
    46   25   29 1
    47   26   27 ar
    48   26   50 1
    49   27   28 1
    50   29   30 1
    51   29   51 1
    52   29   52 1
    53   30   31 2
    54   30   32 1
@<TRIPOS>MOLECULE
CHEMBL1080033
   60    64     0     0     0
SMALL
USER_CHARGES

@<TRIPOS>ATOM
      1 C1          0.5526    0.0098    1.1761 C.3       1 <0>         0.0258
      2 O1         -0.1929   -0.1484   -0.0327 O.3       1 <0>        -0.3156
      3 C2          0.4500   -0.7224   -1.0834 C.ar      1 <0>         0.1384
      4 C3          1.7705   -1.1295   -0.9487 C.ar      1 <0>        -0.2081
      5 C4          2.4260   -1.7123   -2.0128 C.ar      1 <0>        -0.0512
      6 C5          1.7606   -1.8930   -3.2254 C.ar      1 <0>        -0.0631
      7 C6          0.4338   -1.4832   -3.3569 C.ar      1 <0>        -0.0418
      8 C7         -0.2170   -0.9056   -2.2872 C.ar      1 <0>        -0.1525
      9 C8          2.4616   -2.5182   -4.3708 C.2       1 <0>         0.1394
     10 C9          3.2844   -3.6315   -4.2159 C.2       1 <0>        -0.1840
     11 S1          3.8079   -3.8877   -5.9037 S.3       1 <0>         0.1783
     12 C10         2.9676   -2.6123   -6.6091 C.2       1 <0>         0.0533
     13 N1          2.3404   -2.0570   -5.6051 N.2       1 <0>        -0.4835
     14 C11         2.9397   -2.2077   -8.0605 C.3       1 <0>         0.1485
     15 O2          3.9877   -1.2700   -8.3139 O.3       1 <0>        -0.3111
     16 C12         4.1024   -0.8013   -9.5842 C.ar      1 <0>         0.1252
     17 C13         3.2081   -1.2412  -10.5654 C.ar      1 <0>        -0.2104
     18 C14         3.2976   -0.7908  -11.8453 C.ar      1 <0>        -0.0347
     19 C15         4.3016    0.1305  -12.1916 C.ar      1 <0>        -0.0692
     20 C16         5.2091    0.5783  -11.1986 C.ar      1 <0>        -0.0073
     21 C17         5.0860    0.0972   -9.8847 C.ar      1 <0>        -0.1540
     22 C18         6.2116    1.4996  -11.5466 C.ar      1 <0>        -0.1472
     23 C19         6.2981    1.9487  -12.8287 C.ar      1 <0>        -0.0863
     24 C20         5.4059    1.5089  -13.8044 C.ar      1 <0>        -0.1463
     25 C21         4.4225    0.6167  -13.5041 C.ar      1 <0>         0.0134
     26 C22         3.4683    0.1529  -14.5744 C.3       1 <0>        -0.1651
     27 C23         2.2192    0.9951  -14.5330 C.2       1 <0>         0.4976
     28 O3          2.1137    1.8890  -13.7107 O.co2     1 <0>        -0.6822
     29 O4          1.3142    0.7824  -15.3219 O.co2     1 <0>        -0.7006
     30 C24         3.6283   -4.3885   -2.9959 C.ar      1 <0>         0.0376
     31 C25         2.6231   -4.7932   -2.1147 C.ar      1 <0>        -0.0891
     32 C26         2.9516   -5.5001   -0.9767 C.ar      1 <0>        -0.0653
     33 C27         4.2734   -5.8080   -0.7070 C.ar      1 <0>        -0.1790
     34 C28         5.2744   -5.4098   -1.5754 C.ar      1 <0>        -0.0652
     35 C29         4.9596   -4.7081   -2.7205 C.ar      1 <0>        -0.1043
     36 C30         4.6244   -6.5802    0.5386 C.3       1 <0>         0.5084
     37 F1          4.6053   -7.9507    0.2585 F         1 <0>        -0.1754
     38 F2          5.9023   -6.2105    0.9718 F         1 <0>        -0.1763
     39 F3          3.6916   -6.2961    1.5418 F         1 <0>        -0.1764
     40 H1          0.8803   -0.9671    1.5315 H         1 <0>         0.0566
     41 H2          1.4229    0.6382    0.9866 H         1 <0>         0.0567
     42 H3         -0.0767    0.4792    1.9323 H         1 <0>         0.1008
     43 H4          2.2850   -0.9892   -0.0096 H         1 <0>         0.1316
     44 H5          3.4534   -2.0281   -1.9075 H         1 <0>         0.1248
     45 H6         -0.0843   -1.6213   -4.2944 H         1 <0>         0.1352
     46 H7         -1.2454   -0.5914   -2.3871 H         1 <0>         0.1355
     47 H8          3.0815   -3.0890   -8.6861 H         1 <0>         0.0923
     48 H9          1.9781   -1.7492   -8.2915 H         1 <0>         0.1005
     49 H10         2.4357   -1.9489  -10.3029 H         1 <0>         0.1250
     50 H11         2.6006   -1.1397  -12.5928 H         1 <0>         0.1325
     51 H12         5.7677    0.4331   -9.1173 H         1 <0>         0.1285
     52 H13         6.9097    1.8497  -10.8006 H         1 <0>         0.1199
     53 H14         7.0695    2.6567  -13.0935 H         1 <0>         0.1167
     54 H15         5.4959    1.8815  -14.8141 H         1 <0>         0.1162
     55 H16         3.9415    0.2526  -15.5512 H         1 <0>         0.0730
     56 H17         3.2082   -0.8914  -14.4015 H         1 <0>         0.0718
     57 H18         1.5911   -4.5529   -2.3237 H         1 <0>         0.1394
     58 H19         2.1753   -5.8137   -0.2945 H         1 <0>         0.1410
     59 H20         6.3040   -5.6531   -1.3586 H         1 <0>         0.1417
     60 H21         5.7414   -4.4024   -3.4001 H         1 <0>         0.1396
@<TRIPOS>BOND
     1    1    2 1
     2    1   40 1
     3    1   41 1
     4    1   42 1
     5    2    3 1
     6    3    8 ar
     7    3    4 ar
     8    4    5 ar
     9    4   43 1
    10    5    6 ar
    11    5   44 1
    12    6    7 ar
    13    6    9 1
    14    7    8 ar
    15    7   45 1
    16    8   46 1
    17    9   13 1
    18    9   10 2
    19   10   11 1
    20   10   30 1
    21   11   12 1
    22   12   13 2
    23   12   14 1
    24   14   15 1
    25   14   47 1
    26   14   48 1
    27   15   16 1
    28   16   21 ar
    29   16   17 ar
    30   17   18 ar
    31   17   49 1
    32   18   19 ar
    33   18   50 1
    34   19   25 ar
    35   19   20 ar
    36   20   21 ar
    37   20   22 ar
    38   21   51 1
    39   22   23 ar
    40   22   52 1
    41   23   24 ar
    42   23   53 1
    43   24   25 ar
    44   24   54 1
    45   25   26 1
    46   26   27 1
    47   26   55 1
    48   26   56 1
    49   27   28 2
    50   27   29 1
    51   30   35 ar
    52   30   31 ar
    53   31   32 ar
    54   31   57 1
    55   32   33 ar
    56   32   58 1
    57   33   34 ar
    58   33   36 1
    59   34   35 ar
    60   34   59 1
    61   35   60 1
    62   36   37 1
    63   36   38 1
    64   36   39 1
@<TRIPOS>MOLECULE
CHEMBL278994
   60    63     0     0     0
SMALL
USER_CHARGES

@<TRIPOS>ATOM
      1 C1         -0.0187    1.5258    0.0104 C.3       1 <0>        -0.1513
      2 C2          0.0021   -0.0041    0.0020 C.3       1 <0>        -0.1155
      3 C3          0.7421   -0.5109    1.2415 C.3       1 <0>        -0.0680
      4 C4          0.7625   -2.0177    1.2333 C.ar      1 <0>        -0.1094
      5 C5         -0.2622   -2.7274    1.8330 C.ar      1 <0>         0.1620
      6 C6         -0.2540   -4.1189    1.8315 C.ar      1 <0>        -0.2108
      7 C7          0.7782   -4.8047    1.2302 C.ar      1 <0>        -0.0330
      8 C8          1.8138   -4.0993    0.6236 C.ar      1 <0>        -0.1491
      9 C9          1.8073   -2.6955    0.6185 C.ar      1 <0>         0.0956
     10 O1          2.9140   -2.2868   -0.0352 O.3       1 <0>        -0.1848
     11 C10         3.6401   -3.3342   -0.4612 C.2       1 <0>         0.0145
     12 C11         3.0420   -4.4901   -0.0933 C.2       1 <0>        -0.1334
     13 C12         3.5163   -5.8679   -0.3673 C.ar      1 <0>        -0.0149
     14 C13         3.5794   -6.8041    0.6637 C.ar      1 <0>        -0.1048
     15 C14         4.0217   -8.0850    0.4028 C.ar      1 <0>        -0.1169
     16 C15         4.4021   -8.4406   -0.8788 C.ar      1 <0>        -0.1199
     17 C16         4.3420   -7.5157   -1.9057 C.ar      1 <0>        -0.1176
     18 C17         3.8955   -6.2337   -1.6579 C.ar      1 <0>        -0.1102
     19 O2         -1.2854   -2.0601    2.4291 O.3       1 <0>        -0.3024
     20 C18        -2.3126   -2.8507    3.0304 C.3       1 <0>         0.0641
     21 C19        -3.3696   -1.9314    3.6457 C.3       1 <0>        -0.1000
     22 C20        -4.4694   -2.7779    4.2895 C.3       1 <0>        -0.1165
     23 S1         -5.7226   -1.6879    5.0190 S.3       1 <0>        -0.0919
     24 C21        -6.9030   -2.7983    5.7105 C.ar      1 <0>        -0.1051
     25 C22        -6.7115   -4.1707    5.6082 C.ar      1 <0>        -0.1175
     26 C23        -7.6384   -5.0382    6.1516 C.ar      1 <0>        -0.0943
     27 C24        -8.7569   -4.5429    6.7970 C.ar      1 <0>        -0.0048
     28 C25        -8.9519   -3.1778    6.9008 C.ar      1 <0>        -0.0905
     29 C26        -8.0256   -2.3034    6.3649 C.ar      1 <0>        -0.0097
     30 Cl1        -8.2668   -0.5897    6.5023 Cl        1 <0>        -0.0682
     31 C27        -9.7661   -5.4933    7.3882 C.3       1 <0>        -0.1608
     32 C28        -9.3898   -5.8023    8.8144 C.2       1 <0>         0.4972
     33 O3         -8.3944   -5.2975    9.3052 O.co2     1 <0>        -0.6854
     34 O4        -10.0807   -6.5570    9.4773 O.co2     1 <0>        -0.6983
     35 H1          1.0039    1.9031    0.0027 H         1 <0>         0.0526
     36 H2         -0.5459    1.8868   -0.8726 H         1 <0>         0.0536
     37 H3         -0.5289    1.8773    0.9072 H         1 <0>         0.0562
     38 H4         -1.0205   -0.3814    0.0098 H         1 <0>         0.0643
     39 H5          0.5123   -0.3556   -0.8948 H         1 <0>         0.0577
     40 H6          1.7647   -0.1336    1.2338 H         1 <0>         0.0699
     41 H7          0.2319   -0.1594    2.1383 H         1 <0>         0.0809
     42 H8         -1.0590   -4.6627    2.3035 H         1 <0>         0.1379
     43 H9          0.7843   -5.8847    1.2297 H         1 <0>         0.1304
     44 H10         4.5681   -3.2634   -1.0091 H         1 <0>         0.2095
     45 H11         3.2830   -6.5274    1.6647 H         1 <0>         0.1233
     46 H12         4.0713   -8.8110    1.2008 H         1 <0>         0.1247
     47 H13         4.7476   -9.4442   -1.0783 H         1 <0>         0.1226
     48 H14         4.6406   -7.7989   -2.9042 H         1 <0>         0.1242
     49 H15         3.8444   -5.5138   -2.4614 H         1 <0>         0.1232
     50 H16        -2.7767   -3.4813    2.2720 H         1 <0>         0.0679
     51 H17        -1.8792   -3.4782    3.8092 H         1 <0>         0.0686
     52 H18        -2.9056   -1.3008    4.4041 H         1 <0>         0.0867
     53 H19        -3.8030   -1.3039    2.8669 H         1 <0>         0.0860
     54 H20        -4.9335   -3.4085    3.5312 H         1 <0>         0.0898
     55 H21        -4.0360   -3.4054    5.0683 H         1 <0>         0.0913
     56 H22        -5.8389   -4.5586    5.1038 H         1 <0>         0.1239
     57 H23        -7.4899   -6.1050    6.0723 H         1 <0>         0.1258
     58 H24        -9.8266   -2.7945    7.4052 H         1 <0>         0.1323
     59 H25       -10.7546   -5.0346    7.3644 H         1 <0>         0.0740
     60 H26        -9.7796   -6.4159    6.8079 H         1 <0>         0.0742
@<TRIPOS>BOND
     1    1    2 1
     2    1   35 1
     3    1   36 1
     4    1   37 1
     5    2    3 1
     6    2   38 1
     7    2   39 1
     8    3    4 1
     9    3   40 1
    10    3   41 1
    11    4    9 ar
    12    4    5 ar
    13    5    6 ar
    14    5   19 1
    15    6    7 ar
    16    6   42 1
    17    7    8 ar
    18    7   43 1
    19    8   12 1
    20    8    9 ar
    21    9   10 1
    22   10   11 1
    23   11   12 2
    24   11   44 1
    25   12   13 1
    26   13   18 ar
    27   13   14 ar
    28   14   15 ar
    29   14   45 1
    30   15   16 ar
    31   15   46 1
    32   16   17 ar
    33   16   47 1
    34   17   18 ar
    35   17   48 1
    36   18   49 1
    37   19   20 1
    38   20   21 1
    39   20   50 1
    40   20   51 1
    41   21   22 1
    42   21   52 1
    43   21   53 1
    44   22   23 1
    45   22   54 1
    46   22   55 1
    47   23   24 1
    48   24   29 ar
    49   24   25 ar
    50   25   26 ar
    51   25   56 1
    52   26   27 ar
    53   26   57 1
    54   27   28 ar
    55   27   31 1
    56   28   29 ar
    57   28   58 1
    58   29   30 1
    59   31   32 1
    60   31   59 1
    61   31   60 1
    62   32   33 2
    63   32   34 1
@<TRIPOS>MOLECULE
CHEMBL279053
   55    57     0     0     0
SMALL
USER_CHARGES

@<TRIPOS>ATOM
      1 C1         -0.0187    1.5258    0.0104 C.3       1 <0>        -0.1514
      2 C2          0.0021   -0.0041    0.0020 C.3       1 <0>        -0.1163
      3 C3          0.7182   -0.4975   -1.2568 C.3       1 <0>        -0.0672
      4 C4          0.7386   -2.0043   -1.2651 C.ar      1 <0>        -0.1305
      5 C5          1.7874   -2.6879   -0.6752 C.ar      1 <0>         0.1943
      6 C6          1.8138   -4.0805   -0.6786 C.ar      1 <0>        -0.2279
      7 C7          0.8051   -4.7902   -1.2640 C.ar      1 <0>        -0.0005
      8 C8         -0.2622   -4.1169   -1.8640 C.ar      1 <0>        -0.2319
      9 C9         -0.2971   -2.7116   -1.8592 C.ar      1 <0>         0.1268
     10 O1         -1.4279   -2.3410   -2.4934 O.3       1 <0>        -0.0901
     11 N1         -2.1323   -3.4949   -2.9061 N.2       1 <0>        -0.2942
     12 C10        -1.4728   -4.5582   -2.5610 C.2       1 <0>         0.1430
     13 C11        -1.8852   -5.9851   -2.8158 C.3       1 <0>        -0.0561
     14 C12        -2.7397   -6.4851   -1.6493 C.3       1 <0>        -0.1484
     15 O2          2.7986   -1.9959   -0.0891 O.3       1 <0>        -0.2981
     16 C13         3.8511   -2.7608    0.5018 C.3       1 <0>         0.0620
     17 C14         4.8906   -1.8155    1.1073 C.3       1 <0>        -0.1007
     18 C15         6.0175   -2.6345    1.7400 C.3       1 <0>        -0.1169
     19 S1          7.2500   -1.5137    2.4579 S.3       1 <0>        -0.0912
     20 C16         8.4645   -2.5945    3.1373 C.ar      1 <0>        -0.1055
     21 C17         8.3122   -3.9710    3.0260 C.ar      1 <0>        -0.1175
     22 C18         9.2662   -4.8152    3.5591 C.ar      1 <0>        -0.0943
     23 C19        10.3725   -4.2924    4.2040 C.ar      1 <0>        -0.0044
     24 C20        10.5280   -2.9230    4.3175 C.ar      1 <0>        -0.0905
     25 C21         9.5807   -2.0718    3.7811 C.ar      1 <0>        -0.0096
     26 Cl1         9.7802   -0.3527    3.9171 Cl        1 <0>        -0.0679
     27 C22        11.4108   -5.2175    4.7847 C.3       1 <0>        -0.1608
     28 C23        12.4647   -5.5046    3.7466 C.2       1 <0>         0.4971
     29 O3         12.3806   -5.0044    2.6379 O.co2     1 <0>        -0.6855
     30 O4         13.4016   -6.2370    4.0154 O.co2     1 <0>        -0.6981
     31 H1          1.0039    1.9031    0.0027 H         1 <0>         0.0564
     32 H2         -0.5459    1.8868   -0.8726 H         1 <0>         0.0536
     33 H3         -0.5289    1.8773    0.9072 H         1 <0>         0.0541
     34 H4          0.5293   -0.3651    0.8851 H         1 <0>         0.0641
     35 H5         -1.0205   -0.3814    0.0098 H         1 <0>         0.0583
     36 H6          0.1910   -0.1364   -2.1398 H         1 <0>         0.0721
     37 H7          1.7408   -0.1202   -1.2645 H         1 <0>         0.0824
     38 H8          2.6380   -4.6024   -0.2152 H         1 <0>         0.1425
     39 H9          0.8322   -5.8699   -1.2636 H         1 <0>         0.1377
     40 H10        -2.4635   -6.0370   -3.7383 H         1 <0>         0.0921
     41 H11        -0.9963   -6.6091   -2.9086 H         1 <0>         0.0952
     42 H12        -3.0380   -7.5172   -1.8336 H         1 <0>         0.0726
     43 H13        -2.1614   -6.4331   -0.7268 H         1 <0>         0.0617
     44 H14        -3.6286   -5.8611   -1.5565 H         1 <0>         0.0609
     45 H15         3.4411   -3.3992    1.2844 H         1 <0>         0.0706
     46 H16         4.3234   -3.3793   -0.2614 H         1 <0>         0.0713
     47 H17         5.3007   -1.1771    0.3248 H         1 <0>         0.0876
     48 H18         4.4184   -1.1969    1.8705 H         1 <0>         0.0869
     49 H19         5.6075   -3.2729    2.5226 H         1 <0>         0.0901
     50 H20         6.4898   -3.2530    0.9768 H         1 <0>         0.0916
     51 H21         7.4484   -4.3804    2.5233 H         1 <0>         0.1238
     52 H22         9.1481   -5.8853    3.4728 H         1 <0>         0.1259
     53 H23        11.3929   -2.5183    4.8220 H         1 <0>         0.1324
     54 H24        11.8735   -4.7458    5.6515 H         1 <0>         0.0740
     55 H25        10.9366   -6.1507    5.0888 H         1 <0>         0.0743
@<TRIPOS>BOND
     1    1    2 1
     2    1   31 1
     3    1   32 1
     4    1   33 1
     5    2    3 1
     6    2   34 1
     7    2   35 1
     8    3    4 1
     9    3   36 1
    10    3   37 1
    11    4    9 ar
    12    4    5 ar
    13    5    6 ar
    14    5   15 1
    15    6    7 ar
    16    6   38 1
    17    7    8 ar
    18    7   39 1
    19    8   12 1
    20    8    9 ar
    21    9   10 1
    22   10   11 1
    23   11   12 2
    24   12   13 1
    25   13   14 1
    26   13   40 1
    27   13   41 1
    28   14   42 1
    29   14   43 1
    30   14   44 1
    31   15   16 1
    32   16   17 1
    33   16   45 1
    34   16   46 1
    35   17   18 1
    36   17   47 1
    37   17   48 1
    38   18   19 1
    39   18   49 1
    40   18   50 1
    41   19   20 1
    42   20   25 ar
    43   20   21 ar
    44   21   22 ar
    45   21   51 1
    46   22   23 ar
    47   22   52 1
    48   23   24 ar
    49   23   27 1
    50   24   25 ar
    51   24   53 1
    52   25   26 1
    53   27   28 1
    54   27   54 1
    55   27   55 1
    56   28   29 2
    57   28   30 1
@<TRIPOS>MOLECULE
CHEMBL120748
   50    51     0     0     0
SMALL
USER_CHARGES

@<TRIPOS>ATOM
      1 C1         -0.0187    1.5258    0.0104 C.3       1 <0>        -0.1445
      2 C2          0.0021   -0.0041    0.0020 C.3       1 <0>        -0.1000
      3 C3          0.7182   -0.4975   -1.2568 C.3       1 <0>        -0.1549
      4 C4          0.6303   -2.0233   -1.3286 C.3       1 <0>        -0.0590
      5 C5          1.2271   -2.5002   -2.6276 C.ar      1 <0>        -0.0557
      6 C6          0.4279   -2.6265   -3.7486 C.ar      1 <0>        -0.1191
      7 C7          0.9706   -3.0637   -4.9425 C.ar      1 <0>        -0.1748
      8 C8          2.3185   -3.3759   -5.0177 C.ar      1 <0>         0.0824
      9 C9          3.1230   -3.2483   -3.8895 C.ar      1 <0>         0.1027
     10 C10         2.5737   -2.8051   -2.6971 C.ar      1 <0>        -0.1446
     11 O1          4.4465   -3.5536   -3.9582 O.3       1 <0>        -0.3082
     12 C11         5.2110   -3.3988   -2.7609 C.3       1 <0>         0.0613
     13 C12         6.6662   -3.7865   -3.0313 C.3       1 <0>        -0.0799
     14 C13         7.4725   -3.6234   -1.7686 C.ar      1 <0>        -0.0458
     15 C14         8.0829   -2.4149   -1.4896 C.ar      1 <0>        -0.1076
     16 C15         8.8224   -2.2652   -0.3314 C.ar      1 <0>        -0.0655
     17 C16         8.9512   -3.3238    0.5481 C.ar      1 <0>        -0.1882
     18 C17         8.3400   -4.5321    0.2696 C.ar      1 <0>        -0.0703
     19 C18         7.5969   -4.6804   -0.8866 C.ar      1 <0>        -0.1147
     20 C19         9.7583   -3.1610    1.8103 C.3       1 <0>         0.5091
     21 F1          8.9264   -2.7104    2.8409 F         1 <0>        -0.1746
     22 F2         10.3186   -4.3920    2.1677 F         1 <0>        -0.1798
     23 F3         10.7792   -2.2292    1.5941 F         1 <0>        -0.1785
     24 O2          2.8539   -3.8065   -6.1913 O.3       1 <0>        -0.3107
     25 C20         1.9682   -3.9138   -7.3077 C.3       1 <0>         0.0294
     26 C21         2.1652   -0.0794   -1.2080 C.2       1 <0>         0.5071
     27 O3          2.8790   -0.4588   -0.2952 O.co2     1 <0>        -0.7017
     28 O4          2.6222    0.6383   -2.0813 O.co2     1 <0>        -0.6998
     29 H1          1.0039    1.9031    0.0027 H         1 <0>         0.0584
     30 H2         -0.5459    1.8868   -0.8726 H         1 <0>         0.0459
     31 H3         -0.5289    1.8773    0.9072 H         1 <0>         0.0419
     32 H4          0.5293   -0.3651    0.8851 H         1 <0>         0.0631
     33 H5         -1.0205   -0.3814    0.0098 H         1 <0>         0.0437
     34 H6          0.2444   -0.0644   -2.1377 H         1 <0>         0.0584
     35 H7          1.1806   -2.4586   -0.4944 H         1 <0>         0.0730
     36 H8         -0.4142   -2.3300   -1.2744 H         1 <0>         0.0576
     37 H9         -0.6229   -2.3835   -3.6913 H         1 <0>         0.1213
     38 H10         0.3439   -3.1621   -5.8166 H         1 <0>         0.1286
     39 H11         3.1967   -2.7016   -1.8210 H         1 <0>         0.1404
     40 H12         5.1666   -2.3602   -2.4332 H         1 <0>         0.0747
     41 H13         4.8019   -4.0432   -1.9828 H         1 <0>         0.0620
     42 H14         6.7106   -4.8251   -3.3590 H         1 <0>         0.0863
     43 H15         7.0753   -3.1422   -3.8094 H         1 <0>         0.0887
     44 H16         7.9822   -1.5877   -2.1768 H         1 <0>         0.1390
     45 H17         9.2999   -1.3212   -0.1138 H         1 <0>         0.1370
     46 H18         8.4409   -5.3593    0.9566 H         1 <0>         0.1350
     47 H19         7.1164   -5.6232   -1.1023 H         1 <0>         0.1356
     48 H20         2.5216   -4.2669   -8.1778 H         1 <0>         0.0938
     49 H21         1.1715   -4.6195   -7.0728 H         1 <0>         0.0498
     50 H22         1.5361   -2.9367   -7.5239 H         1 <0>         0.0515
@<TRIPOS>BOND
     1    1    2 1
     2    1   29 1
     3    1   30 1
     4    1   31 1
     5    2    3 1
     6    2   32 1
     7    2   33 1
     8    3    4 1
     9    3   26 1
    10    3   34 1
    11    4    5 1
    12    4   35 1
    13    4   36 1
    14    5   10 ar
    15    5    6 ar
    16    6    7 ar
    17    6   37 1
    18    7    8 ar
    19    7   38 1
    20    8    9 ar
    21    8   24 1
    22    9   10 ar
    23    9   11 1
    24   10   39 1
    25   11   12 1
    26   12   13 1
    27   12   40 1
    28   12   41 1
    29   13   14 1
    30   13   42 1
    31   13   43 1
    32   14   19 ar
    33   14   15 ar
    34   15   16 ar
    35   15   44 1
    36   16   17 ar
    37   16   45 1
    38   17   18 ar
    39   17   20 1
    40   18   19 ar
    41   18   46 1
    42   19   47 1
    43   20   21 1
    44   20   22 1
    45   20   23 1
    46   24   25 1
    47   25   48 1
    48   25   49 1
    49   25   50 1
    50   26   27 2
    51   26   28 1
@<TRIPOS>MOLECULE
CHEMBL120748__1
   50    51     0     0     0
SMALL
USER_CHARGES

@<TRIPOS>ATOM
      1 C1         -0.0187    1.5258    0.0104 C.3       1 <0>        -0.1505
      2 C2          0.0021   -0.0041    0.0020 C.3       1 <0>        -0.0910
      3 C3          0.7182   -0.4975   -1.2568 C.3       1 <0>        -0.1557
      4 C4          0.8493   -2.0210   -1.2049 C.3       1 <0>        -0.0544
      5 C5          1.6611   -2.4957   -2.3824 C.ar      1 <0>        -0.0562
      6 C6          1.0310   -2.8158   -3.5706 C.ar      1 <0>        -0.0334
      7 C7          1.7713   -3.2517   -4.6537 C.ar      1 <0>        -0.1764
      8 C8          3.1481   -3.3682   -4.5499 C.ar      1 <0>         0.0865
      9 C9          3.7825   -3.0456   -3.3541 C.ar      1 <0>         0.0803
     10 C10         3.0350   -2.6047   -2.2739 C.ar      1 <0>        -0.1693
     11 O1          5.1335   -3.1584   -3.2474 O.3       1 <0>        -0.3095
     12 C11         5.7163   -2.8100   -1.9900 C.3       1 <0>         0.0661
     13 C12         7.2329   -2.9990   -2.0609 C.3       1 <0>        -0.0835
     14 C13         7.8475   -2.6316   -0.7349 C.ar      1 <0>        -0.0455
     15 C14         8.2479   -1.3303   -0.4955 C.ar      1 <0>        -0.1132
     16 C15         8.8116   -0.9933    0.7208 C.ar      1 <0>        -0.0674
     17 C16         8.9745   -1.9574    1.6980 C.ar      1 <0>        -0.1881
     18 C17         8.5733   -3.2585    1.4589 C.ar      1 <0>        -0.0686
     19 C18         8.0056   -3.5946    0.2442 C.ar      1 <0>        -0.1144
     20 C19         9.5900   -1.5902    3.0236 C.3       1 <0>         0.5087
     21 F1          8.5837   -1.1947    3.9114 F         1 <0>        -0.1758
     22 F2         10.2649   -2.6980    3.5473 F         1 <0>        -0.1783
     23 F3         10.4927   -0.5368    2.8428 F         1 <0>        -0.1778
     24 O2          3.8778   -3.7973   -5.6143 O.3       1 <0>        -0.3144
     25 C20         3.1596   -4.1109   -6.8092 C.3       1 <0>         0.0295
     26 C21        -0.0771   -0.1029   -2.4745 C.2       1 <0>         0.4958
     27 O3         -1.1200    0.5157   -2.3473 O.co2     1 <0>        -0.6955
     28 O4          0.3224   -0.4021   -3.5868 O.co2     1 <0>        -0.6858
     29 H1          1.0039    1.9031    0.0027 H         1 <0>         0.0333
     30 H2         -0.5459    1.8868   -0.8726 H         1 <0>         0.0847
     31 H3         -0.5289    1.8773    0.9072 H         1 <0>         0.0343
     32 H4          0.5293   -0.3651    0.8851 H         1 <0>         0.0340
     33 H5         -1.0205   -0.3814    0.0098 H         1 <0>         0.0581
     34 H6          1.7103   -0.0491   -1.3098 H         1 <0>         0.0588
     35 H7          1.3468   -2.3116   -0.2797 H         1 <0>         0.0548
     36 H8         -0.1422   -2.4724   -1.2416 H         1 <0>         0.0631
     37 H9         -0.0421   -2.7254   -3.6528 H         1 <0>         0.1237
     38 H10         1.2765   -3.5018   -5.5805 H         1 <0>         0.1261
     39 H11         3.5252   -2.3501   -1.3459 H         1 <0>         0.1233
     40 H12         5.4903   -1.7685   -1.7609 H         1 <0>         0.0617
     41 H13         5.3063   -3.4509   -1.2095 H         1 <0>         0.0602
     42 H14         7.4589   -4.0404   -2.2900 H         1 <0>         0.0884
     43 H15         7.6428   -2.3580   -2.8414 H         1 <0>         0.0892
     44 H16         8.1206   -0.5771   -1.2590 H         1 <0>         0.1382
     45 H17         9.1251    0.0232    0.9075 H         1 <0>         0.1369
     46 H18         8.7009   -4.0118    2.2222 H         1 <0>         0.1363
     47 H19         7.6887   -4.6103    0.0588 H         1 <0>         0.1372
     48 H20         3.8590   -4.4397   -7.5778 H         1 <0>         0.0920
     49 H21         2.4440   -4.9072   -6.6046 H         1 <0>         0.0499
     50 H22         2.6279   -3.2251   -7.1566 H         1 <0>         0.0533
@<TRIPOS>BOND
     1    1    2 1
     2    1   29 1
     3    1   30 1
     4    1   31 1
     5    2    3 1
     6    2   32 1
     7    2   33 1
     8    3    4 1
     9    3   26 1
    10    3   34 1
    11    4    5 1
    12    4   35 1
    13    4   36 1
    14    5   10 ar
    15    5    6 ar
    16    6    7 ar
    17    6   37 1
    18    7    8 ar
    19    7   38 1
    20    8    9 ar
    21    8   24 1
    22    9   10 ar
    23    9   11 1
    24   10   39 1
    25   11   12 1
    26   12   13 1
    27   12   40 1
    28   12   41 1
    29   13   14 1
    30   13   42 1
    31   13   43 1
    32   14   19 ar
    33   14   15 ar
    34   15   16 ar
    35   15   44 1
    36   16   17 ar
    37   16   45 1
    38   17   18 ar
    39   17   20 1
    40   18   19 ar
    41   18   46 1
    42   19   47 1
    43   20   21 1
    44   20   22 1
    45   20   23 1
    46   24   25 1
    47   25   48 1
    48   25   49 1
    49   25   50 1
    50   26   27 2
    51   26   28 1
@<TRIPOS>MOLECULE
CHEMBL246510
   62    65     0     0     0
SMALL
USER_CHARGES

@<TRIPOS>ATOM
      1 C1         -0.0030    1.7152   -0.3477 C.3       1 <0>        -0.1475
      2 C2          0.0180    0.2099   -0.0747 C.3       1 <0>        -0.1028
      3 C3         -1.4169   -0.3055    0.0525 C.3       1 <0>         0.0148
      4 C4         -1.3952   -1.7610    0.4424 C.2       1 <0>         0.4794
      5 O1         -0.9472   -2.0953    1.5259 O.co2     1 <0>        -0.6916
      6 O2         -1.8257   -2.6043   -0.3258 O.co2     1 <0>        -0.6734
      7 O3         -2.0889   -0.1578   -1.2000 O.3       1 <0>        -0.2925
      8 C5         -3.4444   -0.0665   -1.1659 C.ar      1 <0>         0.1668
      9 C6         -4.1217   -0.2256    0.0346 C.ar      1 <0>        -0.1905
     10 C7         -5.4993   -0.1318    0.0667 C.ar      1 <0>        -0.0800
     11 C8         -6.2036    0.1203   -1.0964 C.ar      1 <0>        -0.1542
     12 C9         -5.5312    0.2787   -2.2939 C.ar      1 <0>        -0.0879
     13 C10        -4.1528    0.1915   -2.3303 C.ar      1 <0>        -0.1481
     14 C11        -6.3019    0.5528   -3.5596 C.3       1 <0>         0.1660
     15 N1         -6.4539    1.9993   -3.7352 N.pl3     1 <0>        -0.5564
     16 C12        -5.4433    2.7572   -4.4771 C.3       1 <0>         0.1414
     17 C13        -5.8210    2.7959   -5.9592 C.3       1 <0>        -0.1371
     18 C14        -4.7656    3.5875   -6.7341 C.3       1 <0>         0.0629
     19 O4         -5.1184    3.6236   -8.1183 O.3       1 <0>        -0.3118
     20 C15        -4.2786    4.2932   -8.9522 C.ar      1 <0>         0.1269
     21 C16        -3.1365    4.8973   -8.4478 C.ar      1 <0>        -0.1920
     22 C17        -2.2834    5.5775   -9.2948 C.ar      1 <0>        -0.1028
     23 C18        -2.5686    5.6561  -10.6499 C.ar      1 <0>         0.0614
     24 C19        -3.7103    5.0513  -11.1545 C.ar      1 <0>        -0.1050
     25 C20        -4.5611    4.3674  -10.3081 C.ar      1 <0>        -0.1375
     26 O5         -1.7293    6.3265  -11.4836 O.3       1 <0>        -0.4985
     27 C21        -7.5462    2.6462   -3.2031 C.2       1 <0>         0.5171
     28 N2         -7.7811    3.9294   -3.3058 N.2       1 <0>        -0.5454
     29 C22        -8.9462    4.2127   -2.6610 C.ar      1 <0>         0.0677
     30 C23        -9.6695    5.3872   -2.4495 C.ar      1 <0>        -0.0856
     31 C24       -10.8467    5.3455   -1.7350 C.ar      1 <0>        -0.1108
     32 C25       -11.3155    4.1444   -1.2253 C.ar      1 <0>        -0.1191
     33 C26       -10.6098    2.9755   -1.4273 C.ar      1 <0>        -0.0786
     34 C27        -9.4244    2.9995   -2.1440 C.ar      1 <0>        -0.0115
     35 O6         -8.5304    2.0510   -2.5068 O.3       1 <0>        -0.2283
     36 H1          1.0193    2.0823   -0.4383 H         1 <0>         0.0509
     37 H2         -0.5421    1.9087   -1.2750 H         1 <0>         0.0550
     38 H3         -0.5012    2.2269    0.4758 H         1 <0>         0.0482
     39 H4          0.5162   -0.3018   -0.8981 H         1 <0>         0.0667
     40 H5          0.5571    0.0163    0.8527 H         1 <0>         0.0841
     41 H6         -1.9424    0.2675    0.8165 H         1 <0>         0.0645
     42 H7         -3.5721   -0.4228    0.9432 H         1 <0>         0.1281
     43 H8         -6.0270   -0.2559    1.0008 H         1 <0>         0.1193
     44 H9         -7.2808    0.1932   -1.0693 H         1 <0>         0.1153
     45 H10        -3.6276    0.3198   -3.2652 H         1 <0>         0.1241
     46 H11        -5.7619    0.1382   -4.4108 H         1 <0>         0.1007
     47 H12        -7.2863    0.0895   -3.4931 H         1 <0>         0.0910
     48 H13        -5.3938    3.7743   -4.0881 H         1 <0>         0.0945
     49 H14        -4.4717    2.2766   -4.3622 H         1 <0>         0.0940
     50 H15        -5.8705    1.7789   -6.3482 H         1 <0>         0.0787
     51 H16        -6.7926    3.2765   -6.0741 H         1 <0>         0.0818
     52 H17        -4.7161    4.6045   -6.3451 H         1 <0>         0.0678
     53 H18        -3.7941    3.1069   -6.6191 H         1 <0>         0.0676
     54 H19        -2.9144    4.8361   -7.3926 H         1 <0>         0.1345
     55 H20        -1.3944    6.0484   -8.9019 H         1 <0>         0.1315
     56 H21        -3.9325    5.1128  -12.2096 H         1 <0>         0.1346
     57 H22        -5.4481    3.8932  -10.7016 H         1 <0>         0.1352
     58 H23        -1.0306    5.7766  -11.8639 H         1 <0>         0.3867
     59 H24        -9.3078    6.3253   -2.8441 H         1 <0>         0.1311
     60 H25       -11.4074    6.2538   -1.5706 H         1 <0>         0.1321
     61 H26       -12.2392    4.1233   -0.6660 H         1 <0>         0.1354
     62 H27       -10.9809    2.0436   -1.0270 H         1 <0>         0.1308
@<TRIPOS>BOND
     1    1    2 1
     2    1   36 1
     3    1   37 1
     4    1   38 1
     5    2    3 1
     6    2   39 1
     7    2   40 1
     8    3    4 1
     9    3    7 1
    10    3   41 1
    11    4    5 2
    12    4    6 1
    13    7    8 1
    14    8   13 ar
    15    8    9 ar
    16    9   10 ar
    17    9   42 1
    18   10   11 ar
    19   10   43 1
    20   11   12 ar
    21   11   44 1
    22   12   13 ar
    23   12   14 1
    24   13   45 1
    25   14   15 1
    26   14   46 1
    27   14   47 1
    28   15   16 1
    29   15   27 1
    30   16   17 1
    31   16   48 1
    32   16   49 1
    33   17   18 1
    34   17   50 1
    35   17   51 1
    36   18   19 1
    37   18   52 1
    38   18   53 1
    39   19   20 1
    40   20   25 ar
    41   20   21 ar
    42   21   22 ar
    43   21   54 1
    44   22   23 ar
    45   22   55 1
    46   23   24 ar
    47   23   26 1
    48   24   25 ar
    49   24   56 1
    50   25   57 1
    51   26   58 1
    52   27   35 1
    53   27   28 2
    54   28   29 1
    55   29   34 ar
    56   29   30 ar
    57   30   31 ar
    58   30   59 1
    59   31   32 ar
    60   31   60 1
    61   32   33 ar
    62   32   61 1
    63   33   34 ar
    64   33   62 1
    65   34   35 1
@<TRIPOS>MOLECULE
CHEMBL246510__1
   62    65     0     0     0
SMALL
USER_CHARGES

@<TRIPOS>ATOM
      1 C1         -0.2688   -2.2148    2.3281 C.3       1 <0>        -0.1478
      2 C2         -0.0570   -0.7066    2.4746 C.3       1 <0>        -0.1033
      3 C3         -1.4145   -0.0013    2.5027 C.3       1 <0>         0.0157
      4 C4         -1.2118    1.4679    2.7697 C.2       1 <0>         0.4793
      5 O1         -1.5062    2.2887    1.9176 O.co2     1 <0>        -0.6722
      6 O2         -0.7534    1.8358    3.8379 O.co2     1 <0>        -0.6916
      7 O3         -2.0656   -0.1709    1.2420 O.3       1 <0>        -0.2922
      8 C5         -3.4215   -0.0803    1.2307 C.ar      1 <0>         0.1659
      9 C6         -4.1264   -0.3501    0.0664 C.ar      1 <0>        -0.1573
     10 C7         -5.5045   -0.2578    0.0577 C.ar      1 <0>        -0.0852
     11 C8         -6.1817    0.1033    1.2080 C.ar      1 <0>        -0.1549
     12 C9         -5.4818    0.3731    2.3692 C.ar      1 <0>        -0.0811
     13 C10        -4.1036    0.2765    2.3847 C.ar      1 <0>        -0.1808
     14 C11        -6.2230    0.7667    3.6209 C.3       1 <0>         0.1607
     15 N1         -6.5545   -0.4350    4.3904 N.pl3     1 <0>        -0.5545
     16 C12        -5.6189   -0.9411    5.3977 C.3       1 <0>         0.1405
     17 C13        -5.9302   -0.2993    6.7512 C.3       1 <0>        -0.1366
     18 C14        -4.9531   -0.8279    7.8031 C.3       1 <0>         0.0623
     19 O4         -5.2439   -0.2285    9.0673 O.3       1 <0>        -0.3114
     20 C15        -4.4616   -0.5932   10.1181 C.ar      1 <0>         0.1282
     21 C16        -3.4325   -1.5046    9.9330 C.ar      1 <0>        -0.1911
     22 C17        -2.6378   -1.8751   11.0004 C.ar      1 <0>        -0.1020
     23 C18        -2.8686   -1.3354   12.2570 C.ar      1 <0>         0.0602
     24 C19        -3.8971   -0.4233   12.4419 C.ar      1 <0>        -0.1053
     25 C20        -4.6890   -0.0496   11.3736 C.ar      1 <0>        -0.1379
     26 O5         -2.0869   -1.7008   13.3080 O.3       1 <0>        -0.4991
     27 C21        -7.7452   -1.0885    4.1671 C.2       1 <0>         0.5189
     28 N2         -8.1410   -2.1631    4.8003 N.2       1 <0>        -0.5462
     29 C22        -9.3614   -2.5282    4.3198 C.ar      1 <0>         0.0691
     30 C23       -10.2410   -3.5705    4.6155 C.ar      1 <0>        -0.0861
     31 C24       -11.4340   -3.6718    3.9340 C.ar      1 <0>        -0.1109
     32 C25       -11.7646   -2.7453    2.9571 C.ar      1 <0>        -0.1205
     33 C26       -10.9036   -1.7096    2.6549 C.ar      1 <0>        -0.0785
     34 C27        -9.7000   -1.5926    3.3309 C.ar      1 <0>        -0.0127
     35 O6         -8.6740   -0.7127    3.2704 O.3       1 <0>        -0.2289
     36 H1          0.6982   -2.7172    2.3081 H         1 <0>         0.0509
     37 H2         -0.8524   -2.5834    3.1717 H         1 <0>         0.0478
     38 H3         -0.8032   -2.4181    1.4001 H         1 <0>         0.0555
     39 H4          0.4773   -0.5032    3.4026 H         1 <0>         0.0839
     40 H5          0.5265   -0.3380    1.6310 H         1 <0>         0.0669
     41 H6         -2.0316   -0.4322    3.2912 H         1 <0>         0.0619
     42 H7         -3.5979   -0.6318   -0.8323 H         1 <0>         0.1254
     43 H8         -6.0535   -0.4674   -0.8484 H         1 <0>         0.1224
     44 H9         -7.2593    0.1749    1.1992 H         1 <0>         0.1154
     45 H10        -3.5574    0.4831    3.2932 H         1 <0>         0.1270
     46 H11        -5.5950    1.4226    4.2239 H         1 <0>         0.1023
     47 H12        -7.1403    1.2897    3.3506 H         1 <0>         0.0914
     48 H13        -5.7206   -2.0235    5.4768 H         1 <0>         0.0949
     49 H14        -4.5991   -0.6926    5.1037 H         1 <0>         0.0932
     50 H15        -5.8285    0.7830    6.6721 H         1 <0>         0.0800
     51 H16        -6.9500   -0.5479    7.0452 H         1 <0>         0.0814
     52 H17        -5.0548   -1.9103    7.8822 H         1 <0>         0.0673
     53 H18        -3.9333   -0.5794    7.5092 H         1 <0>         0.0702
     54 H19        -3.2528   -1.9248    8.9545 H         1 <0>         0.1347
     55 H20        -1.8370   -2.5853   10.8565 H         1 <0>         0.1313
     56 H21        -4.0770   -0.0034   13.4205 H         1 <0>         0.1340
     57 H22        -5.4875    0.6634   11.5167 H         1 <0>         0.1349
     58 H23        -1.3056   -1.1440   13.4294 H         1 <0>         0.3865
     59 H24        -9.9873   -4.2949    5.3752 H         1 <0>         0.1310
     60 H25       -12.1156   -4.4780    4.1619 H         1 <0>         0.1317
     61 H26       -12.7022   -2.8347    2.4285 H         1 <0>         0.1349
     62 H27       -11.1676   -0.9917    1.8924 H         1 <0>         0.1302
@<TRIPOS>BOND
     1    1    2 1
     2    1   36 1
     3    1   37 1
     4    1   38 1
     5    2    3 1
     6    2   39 1
     7    2   40 1
     8    3    4 1
     9    3    7 1
    10    3   41 1
    11    4    5 2
    12    4    6 1
    13    7    8 1
    14    8   13 ar
    15    8    9 ar
    16    9   10 ar
    17    9   42 1
    18   10   11 ar
    19   10   43 1
    20   11   12 ar
    21   11   44 1
    22   12   13 ar
    23   12   14 1
    24   13   45 1
    25   14   15 1
    26   14   46 1
    27   14   47 1
    28   15   16 1
    29   15   27 1
    30   16   17 1
    31   16   48 1
    32   16   49 1
    33   17   18 1
    34   17   50 1
    35   17   51 1
    36   18   19 1
    37   18   52 1
    38   18   53 1
    39   19   20 1
    40   20   25 ar
    41   20   21 ar
    42   21   22 ar
    43   21   54 1
    44   22   23 ar
    45   22   55 1
    46   23   24 ar
    47   23   26 1
    48   24   25 ar
    49   24   56 1
    50   25   57 1
    51   26   58 1
    52   27   35 1
    53   27   28 2
    54   28   29 1
    55   29   34 ar
    56   29   30 ar
    57   30   31 ar
    58   30   59 1
    59   31   32 ar
    60   31   60 1
    61   32   33 ar
    62   32   61 1
    63   33   34 ar
    64   33   62 1
    65   34   35 1
@<TRIPOS>MOLECULE
CHEMBL1075893
   71    76     0     0     0
SMALL
USER_CHARGES

@<TRIPOS>ATOM
      1 C1         -0.4932    2.0090   -0.7884 C.3       1 <0>        -0.1053
      2 C2         -0.3846    0.5147   -0.6264 C.ar      1 <0>        -0.0849
      3 C3         -0.3222   -0.2983   -1.7416 C.ar      1 <0>        -0.1083
      4 C4         -0.2218   -1.6734   -1.5925 C.ar      1 <0>         0.0756
      5 C5         -0.1840   -2.2325   -0.3235 C.ar      1 <0>        -0.1699
      6 C6         -0.2463   -1.4197    0.7914 C.ar      1 <0>        -0.1753
      7 C7         -0.3415   -0.0438    0.6422 C.ar      1 <0>         0.1103
      8 O1         -0.3972    0.7568    1.7399 O.3       1 <0>        -0.2775
      9 C8         -0.3480    0.1138    3.0151 C.3       1 <0>        -0.0070
     10 C9         -0.4210    1.1525    4.1046 C.2       1 <0>         0.5013
     11 O2         -0.5072    2.3338    3.8158 O.co2     1 <0>        -0.6703
     12 O3         -0.3939    0.8114    5.2748 O.co2     1 <0>        -0.6884
     13 O4         -0.1608   -2.4737   -2.6901 O.3       1 <0>        -0.3105
     14 C10        -0.0582   -3.8807   -2.4623 C.3       1 <0>         0.1526
     15 C11        -0.0026   -4.6010   -3.7849 C.2       1 <0>         0.0433
     16 N1          1.0541   -4.9159   -4.4871 N.2       1 <0>        -0.4806
     17 C12         0.9550   -5.5552   -5.6417 C.2       1 <0>         0.1155
     18 C13        -0.3401   -5.8670   -6.0544 C.2       1 <0>        -0.1564
     19 S1         -1.2856   -5.1934   -4.6977 S.3       1 <0>         0.1703
     20 C14        -0.8003   -6.5639   -7.2704 C.ar      1 <0>        -0.0029
     21 C15        -0.1992   -7.7648   -7.6584 C.ar      1 <0>        -0.0794
     22 C16        -0.6300   -8.4141   -8.7930 C.ar      1 <0>        -0.1068
     23 C17        -1.6661   -7.8743   -9.5556 C.ar      1 <0>        -0.0341
     24 C18        -2.2671   -6.6758   -9.1695 C.ar      1 <0>        -0.1077
     25 C19        -1.8419   -6.0270   -8.0325 C.ar      1 <0>        -0.0949
     26 C20        -2.1287   -8.5747  -10.7778 C.ar      1 <0>        -0.0476
     27 C21        -1.5342   -9.7751  -11.1638 C.ar      1 <0>        -0.1089
     28 C22        -1.9689  -10.4225  -12.3023 C.ar      1 <0>        -0.1180
     29 C23        -2.9925   -9.8825  -13.0601 C.ar      1 <0>        -0.1180
     30 C24        -3.5863   -8.6916  -12.6820 C.ar      1 <0>        -0.1179
     31 C25        -3.1638   -8.0383  -11.5423 C.ar      1 <0>        -0.1091
     32 C26         2.1445   -5.9163   -6.4450 C.ar      1 <0>        -0.0154
     33 C27         2.1323   -5.7385   -7.8296 C.ar      1 <0>        -0.0876
     34 C28         3.2392   -6.0747   -8.5764 C.ar      1 <0>        -0.1093
     35 C29         4.3726   -6.5927   -7.9498 C.ar      1 <0>        -0.0386
     36 C30         4.3855   -6.7706   -6.5663 C.ar      1 <0>        -0.1116
     37 C31         3.2813   -6.4295   -5.8177 C.ar      1 <0>        -0.0817
     38 C32         5.5642   -6.9550   -8.7547 C.ar      1 <0>        -0.0445
     39 C33         5.5564   -6.7735  -10.1367 C.ar      1 <0>        -0.1102
     40 C34         6.6684   -7.1120  -10.8807 C.ar      1 <0>        -0.1181
     41 C35         7.7890   -7.6309  -10.2575 C.ar      1 <0>        -0.1198
     42 C36         7.8023   -7.8136   -8.8863 C.ar      1 <0>        -0.1177
     43 C37         6.6984   -7.4729   -8.1315 C.ar      1 <0>        -0.1101
     44 H1          0.5056    2.4436   -0.8296 H         1 <0>         0.0694
     45 H2         -1.0268    2.2366   -1.7113 H         1 <0>         0.0612
     46 H3         -1.0370    2.4278    0.0584 H         1 <0>         0.0809
     47 H4         -0.3520    0.1369   -2.7295 H         1 <0>         0.1324
     48 H5         -0.1061   -3.3034   -0.2073 H         1 <0>         0.1248
     49 H6         -0.2176   -1.8551    1.7793 H         1 <0>         0.1323
     50 H7         -1.1905   -0.5714    3.1093 H         1 <0>         0.0578
     51 H8          0.5848   -0.4427    3.1056 H         1 <0>         0.0579
     52 H9          0.8484   -4.0918   -1.8953 H         1 <0>         0.0958
     53 H10        -0.9268   -4.2218   -1.8990 H         1 <0>         0.0892
     54 H11         0.6031   -8.1827   -7.0685 H         1 <0>         0.1280
     55 H12        -0.1655   -9.3417   -9.0933 H         1 <0>         0.1304
     56 H13        -3.0688   -6.2589   -9.7610 H         1 <0>         0.1311
     57 H14        -2.3101   -5.1014   -7.7316 H         1 <0>         0.1292
     58 H15        -0.7347  -10.1973  -10.5731 H         1 <0>         0.1260
     59 H16        -1.5088  -11.3523  -12.6025 H         1 <0>         0.1243
     60 H17        -3.3292  -10.3925  -13.9506 H         1 <0>         0.1226
     61 H18        -4.3848   -8.2746  -13.2777 H         1 <0>         0.1245
     62 H19        -3.6313   -7.1111  -11.2454 H         1 <0>         0.1263
     63 H20         1.2547   -5.3378   -8.3150 H         1 <0>         0.1253
     64 H21         3.2297   -5.9375   -9.6476 H         1 <0>         0.1279
     65 H22         5.2633   -7.1718   -6.0817 H         1 <0>         0.1284
     66 H23         3.2930   -6.5631   -4.7461 H         1 <0>         0.1287
     67 H24         4.6817   -6.3691  -10.6244 H         1 <0>         0.1254
     68 H25         6.6635   -6.9718  -11.9515 H         1 <0>         0.1237
     69 H26         8.6569   -7.8947  -10.8437 H         1 <0>         0.1220
     70 H27         8.6799   -8.2195   -8.4051 H         1 <0>         0.1241
     71 H28         6.7116   -7.6115   -7.0605 H         1 <0>         0.1260
@<TRIPOS>BOND
     1    1    2 1
     2    1   44 1
     3    1   45 1
     4    1   46 1
     5    2    7 ar
     6    2    3 ar
     7    3    4 ar
     8    3   47 1
     9    4    5 ar
    10    4   13 1
    11    5    6 ar
    12    5   48 1
    13    6    7 ar
    14    6   49 1
    15    7    8 1
    16    8    9 1
    17    9   10 1
    18    9   50 1
    19    9   51 1
    20   10   11 2
    21   10   12 1
    22   13   14 1
    23   14   15 1
    24   14   52 1
    25   14   53 1
    26   15   19 1
    27   15   16 2
    28   16   17 1
    29   17   18 2
    30   17   32 1
    31   18   19 1
    32   18   20 1
    33   20   25 ar
    34   20   21 ar
    35   21   22 ar
    36   21   54 1
    37   22   23 ar
    38   22   55 1
    39   23   24 ar
    40   23   26 1
    41   24   25 ar
    42   24   56 1
    43   25   57 1
    44   26   31 ar
    45   26   27 ar
    46   27   28 ar
    47   27   58 1
    48   28   29 ar
    49   28   59 1
    50   29   30 ar
    51   29   60 1
    52   30   31 ar
    53   30   61 1
    54   31   62 1
    55   32   37 ar
    56   32   33 ar
    57   33   34 ar
    58   33   63 1
    59   34   35 ar
    60   34   64 1
    61   35   36 ar
    62   35   38 1
    63   36   37 ar
    64   36   65 1
    65   37   66 1
    66   38   43 ar
    67   38   39 ar
    68   39   40 ar
    69   39   67 1
    70   40   41 ar
    71   40   68 1
    72   41   42 ar
    73   41   69 1
    74   42   43 ar
    75   42   70 1
    76   43   71 1
@<TRIPOS>MOLECULE
CHEMBL1079739
   59    62     0     0     0
SMALL
USER_CHARGES

@<TRIPOS>ATOM
      1 C1         -0.0184    1.5028    0.0103 C.3       1 <0>        -0.1053
      2 C2          0.0021   -0.0041    0.0020 C.ar      1 <0>        -0.0851
      3 C3          0.0058   -0.6883   -1.1982 C.ar      1 <0>        -0.1086
      4 C4          0.0251   -2.0749   -1.2058 C.ar      1 <0>         0.0756
      5 C5          0.0406   -2.7749   -0.0083 C.ar      1 <0>        -0.1698
      6 C6          0.0369   -2.0909    1.1915 C.ar      1 <0>        -0.1753
      7 C7          0.0229   -0.7038    1.1991 C.ar      1 <0>         0.1101
      8 O1          0.0250   -0.0303    2.3804 O.3       1 <0>        -0.2775
      9 C8          0.0470   -0.8150    3.5745 C.3       1 <0>        -0.0070
     10 C9          0.0459    0.0965    4.7746 C.2       1 <0>         0.5013
     11 O2          0.0280    1.3060    4.6215 O.co2     1 <0>        -0.6705
     12 O3          0.0630   -0.3755    5.8986 O.co2     1 <0>        -0.6884
     13 O4          0.0283   -2.7483   -2.3872 O.3       1 <0>        -0.3106
     14 C10         0.0485   -4.1756   -2.3202 C.3       1 <0>         0.1528
     15 C11         0.0491   -4.7440   -3.7159 C.2       1 <0>         0.0421
     16 N1          1.0799   -5.0384   -4.4655 N.2       1 <0>        -0.4829
     17 C12         0.9346   -5.5360   -5.6817 C.2       1 <0>         0.1210
     18 C13        -0.3852   -5.7240   -6.1074 C.2       1 <0>        -0.1655
     19 S1         -1.2756   -5.1538   -4.6685 S.3       1 <0>         0.1650
     20 C14        -0.8934   -6.2459   -7.3756 C.2       1 <0>        -0.0654
     21 C15        -2.2228   -6.3440   -7.5801 C.2       1 <0>        -0.0930
     22 C16        -2.7343   -6.8693   -8.8565 C.ar      1 <0>        -0.0579
     23 C17        -1.8449   -7.2731   -9.8572 C.ar      1 <0>        -0.1107
     24 C18        -2.3318   -7.7641  -11.0502 C.ar      1 <0>        -0.1180
     25 C19        -3.6968   -7.8578  -11.2585 C.ar      1 <0>        -0.1167
     26 C20        -4.5835   -7.4598  -10.2731 C.ar      1 <0>        -0.1194
     27 C21        -4.1121   -6.9725   -9.0724 C.ar      1 <0>        -0.1036
     28 C22         2.0937   -5.8722   -6.5384 C.ar      1 <0>        -0.0556
     29 C23         2.0315   -6.9673   -7.4013 C.ar      1 <0>        -0.0672
     30 C24         3.1133   -7.2774   -8.1978 C.ar      1 <0>        -0.1520
     31 C25         4.2638   -6.5021   -8.1418 C.ar      1 <0>         0.1350
     32 C26         4.3297   -5.4120   -7.2842 C.ar      1 <0>        -0.2078
     33 C27         3.2496   -5.0916   -6.4895 C.ar      1 <0>        -0.0409
     34 O5          5.3282   -6.8111   -8.9281 O.3       1 <0>        -0.3167
     35 C28         6.4797   -5.9718   -8.8204 C.3       1 <0>         0.0254
     36 H1          1.0042    1.8801    0.0026 H         1 <0>         0.0693
     37 H2         -0.5455    1.8639   -0.8728 H         1 <0>         0.0612
     38 H3         -0.5286    1.8543    0.9071 H         1 <0>         0.0809
     39 H4         -0.0067   -0.1432   -2.1305 H         1 <0>         0.1324
     40 H5          0.0553   -3.8548   -0.0143 H         1 <0>         0.1249
     41 H6          0.0483   -2.6360    2.1238 H         1 <0>         0.1323
     42 H7         -0.8341   -1.4560    3.6044 H         1 <0>         0.0579
     43 H8          0.9456   -1.4317    3.5875 H         1 <0>         0.0580
     44 H9          0.9459   -4.5020   -1.7946 H         1 <0>         0.0955
     45 H10        -0.8339   -4.5268   -1.7853 H         1 <0>         0.0889
     46 H11        -0.2040   -6.5528   -8.1482 H         1 <0>         0.1450
     47 H12        -2.9122   -6.0371   -6.8074 H         1 <0>         0.1233
     48 H13        -0.7794   -7.2002   -9.6962 H         1 <0>         0.1256
     49 H14        -1.6462   -8.0760  -11.8241 H         1 <0>         0.1246
     50 H15        -4.0721   -8.2432  -12.1950 H         1 <0>         0.1224
     51 H16        -5.6473   -7.5353  -10.4433 H         1 <0>         0.1245
     52 H17        -4.8052   -6.6668   -8.3025 H         1 <0>         0.1262
     53 H18         1.1372   -7.5713   -7.4449 H         1 <0>         0.1346
     54 H19         3.0659   -8.1247   -8.8658 H         1 <0>         0.1353
     55 H20         5.2265   -4.8117   -7.2429 H         1 <0>         0.1322
     56 H21         3.2998   -4.2408   -5.8262 H         1 <0>         0.1325
     57 H22         7.2540   -6.3282   -9.4998 H         1 <0>         0.1009
     58 H23         6.2094   -4.9488   -9.0821 H         1 <0>         0.0571
     59 H24         6.8541   -5.9981   -7.7970 H         1 <0>         0.0574
@<TRIPOS>BOND
     1    1    2 1
     2    1   36 1
     3    1   37 1
     4    1   38 1
     5    2    7 ar
     6    2    3 ar
     7    3    4 ar
     8    3   39 1
     9    4    5 ar
    10    4   13 1
    11    5    6 ar
    12    5   40 1
    13    6    7 ar
    14    6   41 1
    15    7    8 1
    16    8    9 1
    17    9   10 1
    18    9   42 1
    19    9   43 1
    20   10   11 2
    21   10   12 1
    22   13   14 1
    23   14   15 1
    24   14   44 1
    25   14   45 1
    26   15   19 1
    27   15   16 2
    28   16   17 1
    29   17   18 2
    30   17   28 1
    31   18   19 1
    32   18   20 1
    33   20   21 2
    34   20   46 1
    35   21   22 1
    36   21   47 1
    37   22   27 ar
    38   22   23 ar
    39   23   24 ar
    40   23   48 1
    41   24   25 ar
    42   24   49 1
    43   25   26 ar
    44   25   50 1
    45   26   27 ar
    46   26   51 1
    47   27   52 1
    48   28   33 ar
    49   28   29 ar
    50   29   30 ar
    51   29   53 1
    52   30   31 ar
    53   30   54 1
    54   31   32 ar
    55   31   34 1
    56   32   33 ar
    57   32   55 1
    58   33   56 1
    59   34   35 1
    60   35   57 1
    61   35   58 1
    62   35   59 1
@<TRIPOS>MOLECULE
CHEMBL1079911
   65    69     0     0     0
SMALL
USER_CHARGES

@<TRIPOS>ATOM
      1 C1          0.4004    1.9035   -0.6227 C.3       1 <0>        -0.1054
      2 C2          0.4629    0.4026   -0.5023 C.ar      1 <0>        -0.0849
      3 C3          0.3327   -0.3868   -1.6285 C.ar      1 <0>        -0.1072
      4 C4          0.3908   -1.7679   -1.5178 C.ar      1 <0>         0.0755
      5 C5          0.5795   -2.3568   -0.2760 C.ar      1 <0>        -0.1694
      6 C6          0.7097   -1.5676    0.8499 C.ar      1 <0>        -0.1753
      7 C7          0.6569   -0.1859    0.7383 C.ar      1 <0>         0.1110
      8 O1          0.7907    0.5912    1.8461 O.3       1 <0>        -0.2773
      9 C8          0.9878   -0.0821    3.0911 C.3       1 <0>        -0.0071
     10 C9          1.1141    0.9337    4.1971 C.2       1 <0>         0.5012
     11 O2          1.0420    2.1239    3.9428 O.co2     1 <0>        -0.6703
     12 O3          1.2884    0.5653    5.3462 O.co2     1 <0>        -0.6884
     13 O4          0.2622   -2.5449   -2.6263 O.3       1 <0>        -0.3117
     14 C10         0.3318   -3.9598   -2.4384 C.3       1 <0>         0.1607
     15 C11         0.1702   -4.6516   -3.7675 C.2       1 <0>         0.1992
     16 N1          1.1435   -4.9683   -4.5715 N.2       1 <0>        -0.4427
     17 C12         0.6302   -5.5728   -5.6633 C.2       1 <0>         0.0535
     18 C13        -0.7395   -5.6167   -5.4939 C.2       1 <0>         0.0113
     19 O5         -0.9966   -5.0396   -4.2991 O.3       1 <0>        -0.1793
     20 C14        -1.7265   -6.1858   -6.4296 C.ar      1 <0>        -0.0188
     21 C15        -1.5181   -7.4538   -6.9810 C.ar      1 <0>        -0.0764
     22 C16        -2.4407   -7.9838   -7.8539 C.ar      1 <0>        -0.1085
     23 C17        -3.5834   -7.2567   -8.1888 C.ar      1 <0>        -0.0291
     24 C18        -3.7926   -5.9911   -7.6399 C.ar      1 <0>        -0.1099
     25 C19        -2.8749   -5.4606   -6.7622 C.ar      1 <0>        -0.0861
     26 C20        -4.5763   -7.8292   -9.1294 C.ar      1 <0>        -0.0496
     27 C21        -4.3733   -9.0956   -9.6757 C.ar      1 <0>        -0.1079
     28 C22        -5.3010   -9.6236  -10.5503 C.ar      1 <0>        -0.1184
     29 C23        -6.4305   -8.8986  -10.8854 C.ar      1 <0>        -0.1169
     30 C24        -6.6373   -7.6415  -10.3464 C.ar      1 <0>        -0.1180
     31 C25        -5.7192   -7.1056   -9.4663 C.ar      1 <0>        -0.1079
     32 C26         1.3916   -6.0909   -6.8235 C.ar      1 <0>        -0.0508
     33 C27         0.9224   -5.8768   -8.1196 C.ar      1 <0>        -0.0532
     34 C28         1.6337   -6.3605   -9.1972 C.ar      1 <0>        -0.1494
     35 C29         2.8156   -7.0600   -8.9934 C.ar      1 <0>         0.1359
     36 C30         3.2853   -7.2754   -7.7048 C.ar      1 <0>        -0.2089
     37 C31         2.5824   -6.7891   -6.6227 C.ar      1 <0>        -0.0456
     38 O6          3.5141   -7.5354  -10.0578 O.3       1 <0>        -0.3164
     39 C32         4.7215   -8.2461   -9.7763 C.3       1 <0>         0.0257
     40 H1          1.4023    2.2961   -0.7962 H         1 <0>         0.0697
     41 H2         -0.2456    2.1744   -1.4579 H         1 <0>         0.0614
     42 H3         -0.0008    2.3255    0.2987 H         1 <0>         0.0810
     43 H4          0.1854    0.0717   -2.5952 H         1 <0>         0.1330
     44 H5          0.6243   -3.4324   -0.1897 H         1 <0>         0.1256
     45 H6          0.8559   -2.0262    1.8167 H         1 <0>         0.1328
     46 H7          0.1365   -0.7329    3.2909 H         1 <0>         0.0580
     47 H8          1.8980   -0.6796    3.0408 H         1 <0>         0.0582
     48 H9          1.2981   -4.2220   -2.0075 H         1 <0>         0.1079
     49 H10        -0.4644   -4.2765   -1.7648 H         1 <0>         0.0929
     50 H11        -0.6335   -8.0167   -6.7222 H         1 <0>         0.1307
     51 H12        -2.2799   -8.9630   -8.2802 H         1 <0>         0.1330
     52 H13        -4.6775   -5.4293   -7.9004 H         1 <0>         0.1328
     53 H14        -3.0395   -4.4830   -6.3337 H         1 <0>         0.1317
     54 H15        -3.4915   -9.6623   -9.4153 H         1 <0>         0.1264
     55 H16        -5.1448  -10.6046  -10.9741 H         1 <0>         0.1247
     56 H17        -7.1536   -9.3156  -11.5708 H         1 <0>         0.1229
     57 H18        -7.5209   -7.0800  -10.6117 H         1 <0>         0.1250
     58 H19        -5.8837   -6.1258   -9.0429 H         1 <0>         0.1267
     59 H20         0.0029   -5.3331   -8.2789 H         1 <0>         0.1301
     60 H21         1.2709   -6.1955  -10.2010 H         1 <0>         0.1347
     61 H22         4.2049   -7.8202   -7.5499 H         1 <0>         0.1322
     62 H23         2.9511   -6.9525   -5.6208 H         1 <0>         0.1307
     63 H24         5.4111   -7.5931   -9.2414 H         1 <0>         0.0573
     64 H25         4.4953   -9.1173   -9.1617 H         1 <0>         0.0566
     65 H26         5.1789   -8.5698  -10.7112 H         1 <0>         0.1006
@<TRIPOS>BOND
     1    1    2 1
     2    1   40 1
     3    1   41 1
     4    1   42 1
     5    2    7 ar
     6    2    3 ar
     7    3    4 ar
     8    3   43 1
     9    4    5 ar
    10    4   13 1
    11    5    6 ar
    12    5   44 1
    13    6    7 ar
    14    6   45 1
    15    7    8 1
    16    8    9 1
    17    9   10 1
    18    9   46 1
    19    9   47 1
    20   10   11 2
    21   10   12 1
    22   13   14 1
    23   14   15 1
    24   14   48 1
    25   14   49 1
    26   15   19 1
    27   15   16 2
    28   16   17 1
    29   17   18 2
    30   17   32 1
    31   18   19 1
    32   18   20 1
    33   20   25 ar
    34   20   21 ar
    35   21   22 ar
    36   21   50 1
    37   22   23 ar
    38   22   51 1
    39   23   24 ar
    40   23   26 1
    41   24   25 ar
    42   24   52 1
    43   25   53 1
    44   26   31 ar
    45   26   27 ar
    46   27   28 ar
    47   27   54 1
    48   28   29 ar
    49   28   55 1
    50   29   30 ar
    51   29   56 1
    52   30   31 ar
    53   30   57 1
    54   31   58 1
    55   32   37 ar
    56   32   33 ar
    57   33   34 ar
    58   33   59 1
    59   34   35 ar
    60   34   60 1
    61   35   36 ar
    62   35   38 1
    63   36   37 ar
    64   36   61 1
    65   37   62 1
    66   38   39 1
    67   39   63 1
    68   39   64 1
    69   39   65 1
@<TRIPOS>MOLECULE
CHEMBL1082089
   60    64     0     0     0
SMALL
USER_CHARGES

@<TRIPOS>ATOM
      1 C1          0.4252    1.8768   -0.5797 C.3       1 <0>        -0.1056
      2 C2          0.4858    0.3751   -0.4689 C.ar      1 <0>        -0.0848
      3 C3          0.3506   -0.4070   -1.5996 C.ar      1 <0>        -0.1067
      4 C4          0.4069   -1.7888   -1.4977 C.ar      1 <0>         0.0752
      5 C5          0.5989   -2.3858   -0.2604 C.ar      1 <0>        -0.1693
      6 C6          0.7341   -1.6040    0.8700 C.ar      1 <0>        -0.1755
      7 C7          0.6831   -0.2215    0.7673 C.ar      1 <0>         0.1113
      8 O1          0.8218    0.5485    1.8795 O.3       1 <0>        -0.2772
      9 C8          1.0221   -0.1329    3.1195 C.3       1 <0>        -0.0072
     10 C9          1.1537    0.8757    4.2315 C.2       1 <0>         0.5013
     11 O2          1.0826    2.0676    3.9849 O.co2     1 <0>        -0.6703
     12 O3          1.3314    0.4998    5.3776 O.co2     1 <0>        -0.6884
     13 O4          0.2733   -2.5587   -2.6107 O.3       1 <0>        -0.3113
     14 C10         0.3415   -3.9748   -2.4319 C.3       1 <0>         0.1597
     15 C11         0.1743   -4.6580   -3.7648 C.2       1 <0>         0.2055
     16 N1          1.1443   -4.9707   -4.5743 N.2       1 <0>        -0.4424
     17 C12         0.6260   -5.5677   -5.6681 C.2       1 <0>         0.0599
     18 C13        -0.7426   -5.6111   -5.4940 C.2       1 <0>         0.0104
     19 O5         -0.9949   -5.0413   -4.2947 O.3       1 <0>        -0.1774
     20 C14        -1.7341   -6.1741   -6.4297 C.ar      1 <0>        -0.0739
     21 C15        -1.5378   -7.4344   -6.9853 C.ar      1 <0>        -0.0144
     22 C16        -2.5128   -7.9231   -7.8705 C.ar      1 <0>        -0.1011
     23 C17        -2.3836   -9.1877   -8.4704 C.ar      1 <0>        -0.0888
     24 C18        -3.3484   -9.6294   -9.3233 C.ar      1 <0>        -0.1158
     25 C19        -4.4629   -8.8436   -9.6099 C.ar      1 <0>        -0.0934
     26 C20        -4.6199   -7.6143   -9.0467 C.ar      1 <0>        -0.0951
     27 C21        -3.6465   -7.1221   -8.1604 C.ar      1 <0>         0.1357
     28 N2         -3.7814   -5.9172   -7.5950 N.ar      1 <0>        -0.4677
     29 C22        -2.8894   -5.4435   -6.7637 C.ar      1 <0>         0.1603
     30 C23         1.3825   -6.0787   -6.8347 C.ar      1 <0>        -0.0542
     31 C24         0.9059   -5.8599   -8.1273 C.ar      1 <0>        -0.0559
     32 C25         1.6128   -6.3366   -9.2109 C.ar      1 <0>        -0.1489
     33 C26         2.7977   -7.0337   -9.0167 C.ar      1 <0>         0.1377
     34 C27         3.2751   -7.2533   -7.7315 C.ar      1 <0>        -0.2083
     35 C28         2.5761   -6.7749   -6.6435 C.ar      1 <0>        -0.0440
     36 O6          3.4917   -7.5024  -10.0869 O.3       1 <0>        -0.3158
     37 C29         4.7025   -8.2111   -9.8151 C.3       1 <0>         0.0254
     38 H1          1.4271    2.2690   -0.7541 H         1 <0>         0.0697
     39 H2         -0.2232    2.1539   -1.4109 H         1 <0>         0.0616
     40 H3          0.0278    2.2937    0.3457 H         1 <0>         0.0810
     41 H4          0.2007    0.0578   -2.5629 H         1 <0>         0.1333
     42 H5          0.6424   -3.4620   -0.1810 H         1 <0>         0.1256
     43 H6          0.8829   -2.0688    1.8335 H         1 <0>         0.1328
     44 H7          0.1706   -0.7837    3.3182 H         1 <0>         0.0580
     45 H8          1.9313   -0.7315    3.0624 H         1 <0>         0.0582
     46 H9          1.3088   -4.2412   -2.0059 H         1 <0>         0.1087
     47 H10        -0.4529   -4.2946   -1.7576 H         1 <0>         0.0938
     48 H11        -0.6624   -8.0189   -6.7436 H         1 <0>         0.1449
     49 H12        -1.5238   -9.8051   -8.2563 H         1 <0>         0.1324
     50 H13        -3.2485  -10.6012   -9.7839 H         1 <0>         0.1303
     51 H14        -5.2144   -9.2158  -10.2904 H         1 <0>         0.1323
     52 H15        -5.4900   -7.0187   -9.2806 H         1 <0>         0.1384
     53 H16        -3.0410   -4.4675   -6.3269 H         1 <0>         0.1658
     54 H17        -0.0159   -5.3180   -8.2791 H         1 <0>         0.1280
     55 H18         1.2443   -6.1678  -10.2119 H         1 <0>         0.1348
     56 H19         4.1971   -7.7960   -7.5841 H         1 <0>         0.1332
     57 H20         2.9503   -6.9423   -5.6443 H         1 <0>         0.1320
     58 H21         4.4821   -9.0856   -9.2031 H         1 <0>         0.0569
     59 H22         5.1557   -8.5294  -10.7540 H         1 <0>         0.1012
     60 H23         5.3933   -7.5586   -9.2811 H         1 <0>         0.0578
@<TRIPOS>BOND
     1    1    2 1
     2    1   38 1
     3    1   39 1
     4    1   40 1
     5    2    7 ar
     6    2    3 ar
     7    3    4 ar
     8    3   41 1
     9    4    5 ar
    10    4   13 1
    11    5    6 ar
    12    5   42 1
    13    6    7 ar
    14    6   43 1
    15    7    8 1
    16    8    9 1
    17    9   10 1
    18    9   44 1
    19    9   45 1
    20   10   11 2
    21   10   12 1
    22   13   14 1
    23   14   15 1
    24   14   46 1
    25   14   47 1
    26   15   19 1
    27   15   16 2
    28   16   17 1
    29   17   18 2
    30   17   30 1
    31   18   19 1
    32   18   20 1
    33   20   29 ar
    34   20   21 ar
    35   21   22 ar
    36   21   48 1
    37   22   27 ar
    38   22   23 ar
    39   23   24 ar
    40   23   49 1
    41   24   25 ar
    42   24   50 1
    43   25   26 ar
    44   25   51 1
    45   26   27 ar
    46   26   52 1
    47   27   28 ar
    48   28   29 ar
    49   29   53 1
    50   30   35 ar
    51   30   31 ar
    52   31   32 ar
    53   31   54 1
    54   32   33 ar
    55   32   55 1
    56   33   34 ar
    57   33   36 1
    58   34   35 ar
    59   34   56 1
    60   35   57 1
    61   36   37 1
    62   37   58 1
    63   37   59 1
    64   37   60 1
@<TRIPOS>MOLECULE
CHEMBL38508
   47    49     0     0     0
SMALL
USER_CHARGES

@<TRIPOS>ATOM
      1 C1         -0.0184    1.5028    0.0103 C.3       1 <0>        -0.1057
      2 C2          0.0021   -0.0041    0.0020 C.ar      1 <0>        -0.1055
      3 C3          0.0057   -0.6878   -1.1980 C.ar      1 <0>        -0.0578
      4 C4          0.0246   -2.0766   -1.2053 C.ar      1 <0>        -0.1393
      5 C5          0.0397   -2.7765   -0.0051 C.ar      1 <0>        -0.0936
      6 C6          0.0360   -2.0909    1.1933 C.ar      1 <0>        -0.1958
      7 C7          0.0229   -0.7036    1.1994 C.ar      1 <0>         0.1428
      8 O1          0.0254   -0.0293    2.3804 O.3       1 <0>        -0.2743
      9 C8          0.0474   -0.8131    3.5751 C.3       1 <0>        -0.0087
     10 C9          0.0468    0.0992    4.7746 C.2       1 <0>         0.5015
     11 O2          0.0293    1.3085    4.6207 O.co2     1 <0>        -0.6695
     12 O3          0.0640   -0.3721    5.8989 O.co2     1 <0>        -0.6867
     13 S1          0.0286   -2.9502   -2.7355 S.3       1 <0>        -0.1068
     14 C10         0.0549   -4.6962   -2.2439 C.3       1 <0>        -0.0216
     15 C11         0.0604   -5.5647   -3.4755 C.2       1 <0>        -0.1482
     16 C12         1.1098   -6.0555   -4.1871 C.2       1 <0>         0.0771
     17 N1          0.8913   -6.8034   -5.2429 N.2       1 <0>        -0.4749
     18 C13        -0.3404   -7.0952   -5.6368 C.2       1 <0>         0.1220
     19 S2         -1.3116   -6.2421   -4.4014 S.3       1 <0>         0.0640
     20 C14        -0.7899   -7.9110   -6.7852 C.ar      1 <0>         0.0575
     21 C15        -2.1529   -8.0893   -7.0271 C.ar      1 <0>        -0.1078
     22 C16        -2.5672   -8.8514   -8.0998 C.ar      1 <0>        -0.0372
     23 C17        -1.6352   -9.4396   -8.9359 C.ar      1 <0>        -0.2128
     24 C18        -0.2805   -9.2673   -8.7023 C.ar      1 <0>         0.1568
     25 C19         0.1466   -8.5008   -7.6344 C.ar      1 <0>        -0.1127
     26 F1          0.6243   -9.8446   -9.5229 F         1 <0>        -0.1169
     27 C20        -2.0954  -10.2716  -10.1052 C.3       1 <0>         0.5137
     28 F2         -3.4937  -10.3004  -10.1354 F         1 <0>        -0.1713
     29 F3         -1.6147   -9.7117  -11.2938 F         1 <0>        -0.1702
     30 F4         -1.6048  -11.5750   -9.9719 F         1 <0>        -0.1704
     31 C21         2.5216   -5.7406   -3.7642 C.3       1 <0>        -0.0908
     32 H1          1.0042    1.8801    0.0026 H         1 <0>         0.0690
     33 H2         -0.5455    1.8639   -0.8728 H         1 <0>         0.0611
     34 H3         -0.5286    1.8543    0.9071 H         1 <0>         0.0803
     35 H4         -0.0064   -0.1428   -2.1303 H         1 <0>         0.1298
     36 H5          0.0540   -3.8564   -0.0097 H         1 <0>         0.1186
     37 H6          0.0478   -2.6347    2.1263 H         1 <0>         0.1328
     38 H7         -0.8339   -1.4538    3.6055 H         1 <0>         0.0595
     39 H8          0.9458   -1.4302    3.5883 H         1 <0>         0.0598
     40 H9          0.9506   -4.8945   -1.6554 H         1 <0>         0.1159
     41 H10        -0.8291   -4.9187   -1.6464 H         1 <0>         0.1066
     42 H11        -2.8822   -7.6315   -6.3752 H         1 <0>         0.1483
     43 H12        -3.6218   -8.9894   -8.2871 H         1 <0>         0.1590
     44 H13         1.2026   -8.3626   -7.4552 H         1 <0>         0.1622
     45 H14         2.8716   -6.5040   -3.0694 H         1 <0>         0.0782
     46 H15         3.1684   -5.7238   -4.6414 H         1 <0>         0.0797
     47 H16         2.5460   -4.7664   -3.2761 H         1 <0>         0.0824
@<TRIPOS>BOND
     1    1    2 1
     2    1   32 1
     3    1   33 1
     4    1   34 1
     5    2    7 ar
     6    2    3 ar
     7    3    4 ar
     8    3   35 1
     9    4    5 ar
    10    4   13 1
    11    5    6 ar
    12    5   36 1
    13    6    7 ar
    14    6   37 1
    15    7    8 1
    16    8    9 1
    17    9   10 1
    18    9   38 1
    19    9   39 1
    20   10   11 2
    21   10   12 1
    22   13   14 1
    23   14   15 1
    24   14   40 1
    25   14   41 1
    26   15   19 1
    27   15   16 2
    28   16   17 1
    29   16   31 1
    30   17   18 2
    31   18   19 1
    32   18   20 1
    33   20   25 ar
    34   20   21 ar
    35   21   22 ar
    36   21   42 1
    37   22   23 ar
    38   22   43 1
    39   23   24 ar
    40   23   27 1
    41   24   25 ar
    42   24   26 1
    43   25   44 1
    44   27   28 1
    45   27   29 1
    46   27   30 1
    47   31   45 1
    48   31   46 1
    49   31   47 1
@<TRIPOS>MOLECULE
CHEMBL517392
   56    58     0     0     0
SMALL
USER_CHARGES

@<TRIPOS>ATOM
      1 C1          0.2918    1.9367   -5.0637 C.3       1 <0>        -0.1050
      2 C2          0.2627    0.7483   -4.1373 C.ar      1 <0>        -0.1066
      3 C3          0.2255   -0.5309   -4.6566 C.ar      1 <0>        -0.0600
      4 C4          0.1987   -1.6260   -3.8026 C.ar      1 <0>        -0.1344
      5 C5          0.2095   -1.4331   -2.4267 C.ar      1 <0>        -0.0927
      6 C6          0.2467   -0.1534   -1.9098 C.ar      1 <0>        -0.1962
      7 C7          0.2791    0.9396   -2.7638 C.ar      1 <0>         0.1410
      8 O1          0.3218    2.1995   -2.2536 O.3       1 <0>        -0.2749
      9 C8          0.3365    2.3229   -0.8300 C.3       1 <0>        -0.0084
     10 C9          0.3843    3.7811   -0.4526 C.2       1 <0>         0.5016
     11 O2          0.4040    4.6355   -1.3221 O.co2     1 <0>        -0.6697
     12 O3          0.4033    4.1064    0.7223 O.co2     1 <0>        -0.6871
     13 S1          0.1507   -3.2586   -4.4636 S.3       1 <0>        -0.1227
     14 C10         0.1273   -4.3255   -2.9967 C.3       1 <0>        -0.0671
     15 C11         0.0854   -5.7693   -3.4263 C.2       1 <0>        -0.1009
     16 C12         1.1743   -6.5199   -3.3351 C.2       1 <0>        -0.0703
     17 C13         1.1899   -7.8745   -3.9264 C.ar      1 <0>        -0.0639
     18 C14         0.6282   -8.0964   -5.1843 C.ar      1 <0>        -0.1119
     19 C15         0.6460   -9.3632   -5.7306 C.ar      1 <0>        -0.1196
     20 C16         1.2186  -10.4123   -5.0339 C.ar      1 <0>        -0.1148
     21 C17         1.7768  -10.1990   -3.7861 C.ar      1 <0>        -0.1186
     22 C18         1.7715   -8.9356   -3.2316 C.ar      1 <0>        -0.1014
     23 C19        -1.1944   -6.3600   -3.9595 C.3       1 <0>         0.0851
     24 O4         -2.2345   -6.1936   -2.9938 O.3       1 <0>        -0.3006
     25 C20        -3.4842   -6.5825   -3.3598 C.ar      1 <0>         0.1696
     26 C21        -3.6856   -7.2188   -4.5761 C.ar      1 <0>        -0.2107
     27 C22        -4.9568   -7.6136   -4.9455 C.ar      1 <0>        -0.0273
     28 C23        -6.0280   -7.3747   -4.1045 C.ar      1 <0>        -0.2270
     29 C24        -5.8299   -6.7404   -2.8920 C.ar      1 <0>        -0.0293
     30 C25        -4.5597   -6.3491   -2.5152 C.ar      1 <0>        -0.1524
     31 C26        -7.4137   -7.8060   -4.5104 C.3       1 <0>         0.5125
     32 F1         -7.6484   -9.1084   -4.0566 F         1 <0>        -0.1787
     33 F2         -8.3558   -6.9389   -3.9466 F         1 <0>        -0.1774
     34 F3         -7.5234   -7.7711   -5.9046 F         1 <0>        -0.1785
     35 H1          1.3260    2.1919   -5.2949 H         1 <0>         0.0683
     36 H2         -0.2368    1.6922   -5.9850 H         1 <0>         0.0606
     37 H3         -0.1927    2.7855   -4.5811 H         1 <0>         0.0799
     38 H4          0.2169   -0.6797   -5.7263 H         1 <0>         0.1288
     39 H5          0.1883   -2.2838   -1.7617 H         1 <0>         0.1191
     40 H6          0.2550   -0.0032   -0.8403 H         1 <0>         0.1319
     41 H7         -0.5647    1.8700   -0.4168 H         1 <0>         0.0593
     42 H8          1.2143    1.8151   -0.4303 H         1 <0>         0.0593
     43 H9          1.0250   -4.1485   -2.4044 H         1 <0>         0.0959
     44 H10        -0.7543   -4.0992   -2.3969 H         1 <0>         0.1014
     45 H11         2.0501   -6.1415   -2.8288 H         1 <0>         0.1365
     46 H12         0.1802   -7.2784   -5.7289 H         1 <0>         0.1252
     47 H13         0.2116   -9.5363   -6.7041 H         1 <0>         0.1256
     48 H14         1.2297  -11.4021   -5.4657 H         1 <0>         0.1232
     49 H15         2.2217  -11.0223   -3.2470 H         1 <0>         0.1248
     50 H16         2.2121   -8.7693   -2.2597 H         1 <0>         0.1266
     51 H17        -1.4717   -5.8523   -4.8833 H         1 <0>         0.0799
     52 H18        -1.0494   -7.4220   -4.1580 H         1 <0>         0.0886
     53 H19        -2.8493   -7.4049   -5.2336 H         1 <0>         0.1385
     54 H20        -5.1141   -8.1089   -5.8923 H         1 <0>         0.1381
     55 H21        -6.6683   -6.5546   -2.2370 H         1 <0>         0.1428
     56 H22        -4.4049   -5.8577   -1.5661 H         1 <0>         0.1442
@<TRIPOS>BOND
     1    1    2 1
     2    1   35 1
     3    1   36 1
     4    1   37 1
     5    2    7 ar
     6    2    3 ar
     7    3    4 ar
     8    3   38 1
     9    4    5 ar
    10    4   13 1
    11    5    6 ar
    12    5   39 1
    13    6    7 ar
    14    6   40 1
    15    7    8 1
    16    8    9 1
    17    9   10 1
    18    9   41 1
    19    9   42 1
    20   10   11 2
    21   10   12 1
    22   13   14 1
    23   14   15 1
    24   14   43 1
    25   14   44 1
    26   15   16 2
    27   15   23 1
    28   16   17 1
    29   16   45 1
    30   17   22 ar
    31   17   18 ar
    32   18   19 ar
    33   18   46 1
    34   19   20 ar
    35   19   47 1
    36   20   21 ar
    37   20   48 1
    38   21   22 ar
    39   21   49 1
    40   22   50 1
    41   23   24 1
    42   23   51 1
    43   23   52 1
    44   24   25 1
    45   25   30 ar
    46   25   26 ar
    47   26   27 ar
    48   26   53 1
    49   27   28 ar
    50   27   54 1
    51   28   29 ar
    52   28   31 1
    53   29   30 ar
    54   29   55 1
    55   30   56 1
    56   31   32 1
    57   31   33 1
    58   31   34 1
@<TRIPOS>MOLECULE
CHEMBL213524
   51    54     0     0     0
SMALL
USER_CHARGES

@<TRIPOS>ATOM
      1 C1         -0.0162    1.3465    0.0094 C.2       1 <0>        -0.2201
      2 C2          1.3202    1.7782   -0.0010 C.2       1 <0>        -0.1331
      3 C3          2.0962    0.6534   -0.0144 C.2       1 <0>         0.0110
      4 O1          1.2772   -0.4184   -0.0124 O.3       1 <0>        -0.1467
      5 C4          0.0021   -0.0041    0.0020 C.2       1 <0>         0.0023
      6 C5          3.5601    0.6178   -0.0290 C.2       1 <0>         0.1894
      7 C6          4.3560   -0.5277   -0.0484 C.2       1 <0>        -0.2719
      8 C7          5.7494   -0.0641   -0.0572 C.2       1 <0>         0.1950
      9 N1          5.7224    1.2445   -0.0437 N.2       1 <0>        -0.2706
     10 O2          4.3794    1.6827   -0.0321 O.3       1 <0>        -0.0657
     11 C8          6.9611   -0.9191   -0.0769 C.ar      1 <0>        -0.0738
     12 C9          6.8376   -2.3073   -0.0948 C.ar      1 <0>        -0.0655
     13 C10         7.9683   -3.0980   -0.1130 C.ar      1 <0>        -0.1139
     14 C11         9.2235   -2.5158   -0.1132 C.ar      1 <0>         0.0255
     15 C12         9.3534   -1.1394   -0.0956 C.ar      1 <0>        -0.1117
     16 C13         8.2285   -0.3372   -0.0835 C.ar      1 <0>         0.0078
     17 Cl1         8.3924    1.3910   -0.0691 Cl        1 <0>        -0.0484
     18 C14        10.4541   -3.3856   -0.1322 C.3       1 <0>        -0.1654
     19 C15        10.8555   -3.6569   -1.5592 C.2       1 <0>         0.4980
     20 O3         10.2028   -3.1876   -2.4758 O.co2     1 <0>        -0.6829
     21 O4         11.8329   -4.3458   -1.7970 O.co2     1 <0>        -0.6955
     22 C16         3.8928   -1.9195   -0.0576 C.2       1 <0>         0.6021
     23 O5          3.6905   -2.4866   -1.1152 O.2       1 <0>        -0.5131
     24 N2          3.6912   -2.5704    1.1053 N.am      1 <0>        -0.7188
     25 C17         3.2286   -3.9604    1.0961 C.3       1 <0>         0.1229
     26 C18         3.0814   -4.4584    2.5353 C.3       1 <0>         0.0416
     27 O6          2.0484   -3.7205    3.1914 O.3       1 <0>        -0.2950
     28 C19         1.7883   -4.0411    4.4866 C.ar      1 <0>         0.1485
     29 C20         2.5162   -5.0411    5.1142 C.ar      1 <0>        -0.1862
     30 C21         2.2505   -5.3657    6.4305 C.ar      1 <0>        -0.0622
     31 C22         1.2587   -4.6941    7.1235 C.ar      1 <0>        -0.0644
     32 C23         0.5310   -3.6962    6.5001 C.ar      1 <0>        -0.0643
     33 C24         0.7976   -3.3644    5.1847 C.ar      1 <0>        -0.0603
     34 Cl2        -0.1106   -2.1073    4.4045 Cl        1 <0>        -0.0414
     35 Cl3         0.9268   -5.1047    8.7772 Cl        1 <0>        -0.0588
     36 H1         -0.8936    1.9761    0.0252 H         1 <0>         0.1592
     37 H2          1.6673    2.8009    0.0006 H         1 <0>         0.1627
     38 H3         -0.8673   -0.6448    0.0076 H         1 <0>         0.2125
     39 H4          5.8586   -2.7633   -0.0940 H         1 <0>         0.1281
     40 H5          7.8733   -4.1737   -0.1269 H         1 <0>         0.1319
     41 H6         10.3357   -0.6905   -0.0958 H         1 <0>         0.1369
     42 H7         11.2677   -2.8752    0.3833 H         1 <0>         0.0772
     43 H8         10.2403   -4.3287    0.3707 H         1 <0>         0.0778
     44 H9          3.8524   -2.1184    1.9483 H         1 <0>         0.4059
     45 H10         2.2645   -4.0191    0.5909 H         1 <0>         0.0855
     46 H11         3.9533   -4.5810    0.5692 H         1 <0>         0.0989
     47 H12         2.8234   -5.5174    2.5287 H         1 <0>         0.0880
     48 H13         4.0225   -4.3170    3.0667 H         1 <0>         0.0789
     49 H14         3.2902   -5.5660    4.5740 H         1 <0>         0.1490
     50 H15         2.8171   -6.1446    6.9190 H         1 <0>         0.1437
     51 H16        -0.2429   -3.1734    7.0425 H         1 <0>         0.1496
@<TRIPOS>BOND
     1    1    5 2
     2    1    2 1
     3    1   36 1
     4    2    3 2
     5    2   37 1
     6    3    4 1
     7    3    6 1
     8    4    5 1
     9    5   38 1
    10    6   10 1
    11    6    7 2
    12    7    8 1
    13    7   22 1
    14    8    9 2
    15    8   11 1
    16    9   10 1
    17   11   16 ar
    18   11   12 ar
    19   12   13 ar
    20   12   39 1
    21   13   14 ar
    22   13   40 1
    23   14   15 ar
    24   14   18 1
    25   15   16 ar
    26   15   41 1
    27   16   17 1
    28   18   19 1
    29   18   42 1
    30   18   43 1
    31   19   20 2
    32   19   21 1
    33   22   23 2
    34   22   24 am
    35   24   25 1
    36   24   44 1
    37   25   26 1
    38   25   45 1
    39   25   46 1
    40   26   27 1
    41   26   47 1
    42   26   48 1
    43   27   28 1
    44   28   33 ar
    45   28   29 ar
    46   29   30 ar
    47   29   49 1
    48   30   31 ar
    49   30   50 1
    50   31   32 ar
    51   31   35 1
    52   32   33 ar
    53   32   51 1
    54   33   34 1
@<TRIPOS>MOLECULE
CHEMBL218442
   43    44     0     0     0
SMALL
USER_CHARGES

@<TRIPOS>ATOM
      1 C1         -0.6395    2.2238    0.4420 C.3       1 <0>        -0.0576
      2 C2         -0.4909    0.7242    0.4262 C.2       1 <0>        -0.1953
      3 C3         -1.4676   -0.2339    0.3735 C.2       1 <0>        -0.0165
      4 N1         -1.0466   -1.5026    0.3719 N.2       1 <0>        -0.4686
      5 C4          0.2378   -1.7296    0.4197 C.2       1 <0>         0.0008
      6 S1          0.9153   -0.1943    0.4614 S.3       1 <0>         0.2394
      7 C5          0.9471   -3.0593    0.4290 C.3       1 <0>        -0.0627
      8 C6         -2.8979    0.1129    0.3222 C.2       1 <0>         0.5891
      9 O1         -3.2413    1.2798    0.3258 O.2       1 <0>        -0.5398
     10 N2         -3.8265   -0.8626    0.2711 N.am      1 <0>        -0.7040
     11 C7         -5.2493   -0.5176    0.2200 C.3       1 <0>         0.1732
     12 C8         -6.0708   -1.7800    0.1690 C.ar      1 <0>        -0.1703
     13 C9         -6.3950   -2.3436   -1.0513 C.ar      1 <0>        -0.0717
     14 C10        -7.1483   -3.5005   -1.1007 C.ar      1 <0>        -0.1742
     15 C11        -7.5792   -4.0971    0.0753 C.ar      1 <0>         0.1803
     16 C12        -7.2522   -3.5299    1.2984 C.ar      1 <0>        -0.1617
     17 C13        -6.4943   -2.3758    1.3426 C.ar      1 <0>        -0.0727
     18 O2         -8.3207   -5.2351    0.0292 O.3       1 <0>        -0.3015
     19 C14        -8.6239   -5.8628    1.2767 C.3       1 <0>         0.0291
     20 C15        -9.4260   -7.1407    1.0229 C.3       1 <0>        -0.1153
     21 C16        -7.3225   -6.2128    2.0011 C.3       1 <0>        -0.1756
     22 C17        -9.4355   -4.9212    2.1286 C.2       1 <0>         0.4817
     23 O3         -9.7273   -3.8152    1.7067 O.co2     1 <0>        -0.6690
     24 O4         -9.8004   -5.2655    3.2398 O.co2     1 <0>        -0.6855
     25 H1          0.3467    2.6863    0.4825 H         1 <0>         0.0693
     26 H2         -1.1557    2.5473   -0.4619 H         1 <0>         0.0895
     27 H3         -1.2171    2.5225    1.3169 H         1 <0>         0.0899
     28 H4          1.1588   -3.3653   -0.5955 H         1 <0>         0.0877
     29 H5          1.8821   -2.9684    0.9817 H         1 <0>         0.0845
     30 H6          0.3132   -3.8058    0.9076 H         1 <0>         0.0927
     31 H7         -3.5526   -1.7932    0.2682 H         1 <0>         0.4103
     32 H8         -5.5167    0.0542    1.1087 H         1 <0>         0.0729
     33 H9         -5.4465    0.0804   -0.6697 H         1 <0>         0.0724
     34 H10        -6.0593   -1.8788   -1.9665 H         1 <0>         0.1187
     35 H11        -7.4018   -3.9400   -2.0542 H         1 <0>         0.1221
     36 H12        -7.5865   -3.9925    2.2153 H         1 <0>         0.1415
     37 H13        -6.2357   -1.9362    2.2947 H         1 <0>         0.1152
     38 H14        -8.8079   -7.8558    0.4798 H         1 <0>         0.0505
     39 H15        -9.7306   -7.5738    1.9757 H         1 <0>         0.0787
     40 H16       -10.3108   -6.9032    0.4323 H         1 <0>         0.0571
     41 H17        -6.6925   -5.3256    2.0653 H         1 <0>         0.0695
     42 H18        -7.5505   -6.5700    3.0053 H         1 <0>         0.0751
     43 H19        -6.7975   -6.9920    1.4487 H         1 <0>         0.0509
@<TRIPOS>BOND
     1    1    2 1
     2    1   25 1
     3    1   26 1
     4    1   27 1
     5    2    6 1
     6    2    3 2
     7    3    4 1
     8    3    8 1
     9    4    5 2
    10    5    6 1
    11    5    7 1
    12    7   28 1
    13    7   29 1
    14    7   30 1
    15    8    9 2
    16    8   10 am
    17   10   11 1
    18   10   31 1
    19   11   12 1
    20   11   32 1
    21   11   33 1
    22   12   17 ar
    23   12   13 ar
    24   13   14 ar
    25   13   34 1
    26   14   15 ar
    27   14   35 1
    28   15   16 ar
    29   15   18 1
    30   16   17 ar
    31   16   36 1
    32   17   37 1
    33   18   19 1
    34   19   20 1
    35   19   21 1
    36   19   22 1
    37   20   38 1
    38   20   39 1
    39   20   40 1
    40   21   41 1
    41   21   42 1
    42   21   43 1
    43   22   23 2
    44   22   24 1
@<TRIPOS>MOLECULE
CHEMBL87307
   55    57     0     0     0
SMALL
USER_CHARGES

@<TRIPOS>ATOM
      1 C1         -0.0187    1.5258    0.0104 C.3       1 <0>        -0.1428
      2 C2          0.0021   -0.0041    0.0020 C.3       1 <0>         0.0665
      3 O1          0.6709   -0.4649   -1.1737 O.3       1 <0>        -0.3673
      4 C3          0.7457   -1.8880   -1.2798 C.3       1 <0>         0.0331
      5 H1         -0.1179   -2.3349   -0.7873 H         1 <0>         0.0486
      6 C4          0.7554   -2.2896   -2.7561 C.3       1 <0>        -0.0609
      7 C5         -0.5593   -1.9112   -3.3882 C.ar      1 <0>        -0.0947
      8 C6         -1.6109   -2.8089   -3.3838 C.ar      1 <0>        -0.0823
      9 C7         -2.8169   -2.4646   -3.9630 C.ar      1 <0>        -0.1505
     10 C8         -2.9725   -1.2168   -4.5490 C.ar      1 <0>         0.1107
     11 C9         -1.9159   -0.3178   -4.5517 C.ar      1 <0>        -0.2066
     12 C10        -0.7136   -0.6649   -3.9666 C.ar      1 <0>        -0.0616
     13 O2         -4.1577   -0.8760   -5.1198 O.3       1 <0>        -0.3141
     14 C11        -4.2460    0.4250   -5.7042 C.3       1 <0>         0.0845
     15 C12        -5.6230    0.6232   -6.2834 C.2       1 <0>        -0.1043
     16 C13        -6.2808    1.7688   -6.0686 C.2       1 <0>        -0.0530
     17 C14        -7.6359    1.9638   -6.6385 C.ar      1 <0>        -0.0263
     18 C15        -7.8524    2.9404   -7.6094 C.ar      1 <0>        -0.0950
     19 C16        -9.1152    3.1178   -8.1363 C.ar      1 <0>        -0.0897
     20 C17       -10.1662    2.3283   -7.7022 C.ar      1 <0>        -0.0885
     21 C18        -9.9567    1.3575   -6.7380 C.ar      1 <0>        -0.0889
     22 C19        -8.6964    1.1674   -6.2093 C.ar      1 <0>        -0.0974
     23 Br1       -11.8943    2.5775   -8.4284 Br        1 <0>        -0.0514
     24 C20        -5.6546    2.8431   -5.2607 C.ar      1 <0>        -0.0338
     25 C21        -6.2112    3.2130   -4.0373 C.ar      1 <0>        -0.0939
     26 C22        -5.6245    4.2132   -3.2895 C.ar      1 <0>        -0.0868
     27 C23        -4.4856    4.8494   -3.7524 C.ar      1 <0>        -0.0856
     28 C24        -3.9291    4.4863   -4.9667 C.ar      1 <0>        -0.0870
     29 C25        -4.5040    3.4827   -5.7193 C.ar      1 <0>        -0.1046
     30 Br2        -3.6874    6.2198   -2.7225 Br        1 <0>        -0.0468
     31 C26         2.0091   -2.3753   -0.6184 C.2       1 <0>         0.4773
     32 O3          2.7745   -1.5779   -0.1038 O.co2     1 <0>        -0.6803
     33 O4          2.2658   -3.5670   -0.5978 O.co2     1 <0>        -0.6998
     34 H2          1.0039    1.9031    0.0027 H         1 <0>         0.0622
     35 H3         -0.5459    1.8868   -0.8726 H         1 <0>         0.0532
     36 H4         -0.5289    1.8773    0.9072 H         1 <0>         0.0596
     37 H5          0.5293   -0.3651    0.8851 H         1 <0>         0.0469
     38 H6         -1.0205   -0.3814    0.0098 H         1 <0>         0.0287
     39 H7          1.5669   -1.7723   -3.2680 H         1 <0>         0.0727
     40 H8          0.9017   -3.3665   -2.8387 H         1 <0>         0.0885
     41 H9         -1.4892   -3.7802   -2.9274 H         1 <0>         0.1290
     42 H10        -3.6378   -3.1664   -3.9599 H         1 <0>         0.1253
     43 H11        -2.0346    0.6542   -5.0074 H         1 <0>         0.1202
     44 H12         0.1078    0.0363   -3.9646 H         1 <0>         0.1262
     45 H13        -4.0611    1.1800   -4.9400 H         1 <0>         0.0739
     46 H14        -3.5021    0.5192   -6.4954 H         1 <0>         0.0751
     47 H15        -6.0791   -0.1592   -6.8718 H         1 <0>         0.1329
     48 H16        -7.0333    3.5573   -7.9482 H         1 <0>         0.1332
     49 H17        -9.2841    3.8741   -8.8886 H         1 <0>         0.1346
     50 H18       -10.7801    0.7447   -6.4022 H         1 <0>         0.1356
     51 H19        -8.5329    0.4061   -5.4609 H         1 <0>         0.1364
     52 H20        -7.1002    2.7177   -3.6756 H         1 <0>         0.1329
     53 H21        -6.0549    4.5006   -2.3416 H         1 <0>         0.1355
     54 H22        -3.0408    4.9862   -5.3237 H         1 <0>         0.1367
     55 H23        -4.0661    3.1965   -6.6641 H         1 <0>         0.1338
@<TRIPOS>BOND
     1    1    2 1
     2    1   34 1
     3    1   35 1
     4    1   36 1
     5    2    3 1
     6    2   37 1
     7    2   38 1
     8    3    4 1
     9    4    5 1
    10    4    6 1
    11    4   31 1
    12    6    7 1
    13    6   39 1
    14    6   40 1
    15    7   12 ar
    16    7    8 ar
    17    8    9 ar
    18    8   41 1
    19    9   10 ar
    20    9   42 1
    21   10   11 ar
    22   10   13 1
    23   11   12 ar
    24   11   43 1
    25   12   44 1
    26   13   14 1
    27   14   15 1
    28   14   45 1
    29   14   46 1
    30   15   16 2
    31   15   47 1
    32   16   17 1
    33   16   24 1
    34   17   22 ar
    35   17   18 ar
    36   18   19 ar
    37   18   48 1
    38   19   20 ar
    39   19   49 1
    40   20   21 ar
    41   20   23 1
    42   21   22 ar
    43   21   50 1
    44   22   51 1
    45   24   29 ar
    46   24   25 ar
    47   25   26 ar
    48   25   52 1
    49   26   27 ar
    50   26   53 1
    51   27   28 ar
    52   27   30 1
    53   28   29 ar
    54   28   54 1
    55   29   55 1
    56   31   32 2
    57   31   33 1
@<TRIPOS>MOLECULE
CHEMBL516463
   46    47     0     0     0
SMALL
USER_CHARGES

@<TRIPOS>ATOM
      1 C1         -0.0184    1.5028    0.0103 C.3       1 <0>        -0.1054
      2 C2          0.0021   -0.0041    0.0020 C.ar      1 <0>        -0.0855
      3 C3          0.0058   -0.6883   -1.1982 C.ar      1 <0>        -0.1113
      4 C4          0.0251   -2.0749   -1.2058 C.ar      1 <0>         0.0761
      5 C5          0.0406   -2.7749   -0.0083 C.ar      1 <0>        -0.1703
      6 C6          0.0369   -2.0909    1.1915 C.ar      1 <0>        -0.1764
      7 C7          0.0229   -0.7038    1.1991 C.ar      1 <0>         0.1087
      8 O1          0.0250   -0.0303    2.3804 O.3       1 <0>        -0.2778
      9 C8          0.0470   -0.8150    3.5745 C.3       1 <0>        -0.0067
     10 C9          0.0459    0.0965    4.7746 C.2       1 <0>         0.5012
     11 O2          0.0280    1.3060    4.6215 O.co2     1 <0>        -0.6703
     12 O3          0.0630   -0.3755    5.8986 O.co2     1 <0>        -0.6883
     13 O4          0.0283   -2.7483   -2.3872 O.3       1 <0>        -0.3134
     14 C10         0.0485   -4.1756   -2.3202 C.3       1 <0>         0.1062
     15 C11         0.0491   -4.7440   -3.7159 C.2       1 <0>        -0.1635
     16 C12         0.0325   -3.9404   -4.7504 C.2       1 <0>        -0.1323
     17 C13         0.0689   -6.2367   -3.9216 C.3       1 <0>         0.1025
     18 O5          0.0656   -6.5248   -5.3213 O.3       1 <0>        -0.3025
     19 C14         0.0820   -7.8351   -5.6815 C.ar      1 <0>         0.1677
     20 C15         0.0950   -8.8233   -4.7079 C.ar      1 <0>        -0.2115
     21 C16         0.1112  -10.1545   -5.0767 C.ar      1 <0>        -0.0269
     22 C17         0.1148  -10.5024   -6.4149 C.ar      1 <0>        -0.2262
     23 C18         0.1022   -9.5194   -7.3872 C.ar      1 <0>        -0.0298
     24 C19         0.0798   -8.1868   -7.0235 C.ar      1 <0>        -0.1529
     25 C20         0.1329  -11.9553   -6.8144 C.3       1 <0>         0.5124
     26 F1         -1.1803  -12.4216   -6.9372 F         1 <0>        -0.1776
     27 F2          0.7935  -12.0938   -8.0398 F         1 <0>        -0.1781
     28 F3          0.8025  -12.6994   -5.8370 F         1 <0>        -0.1782
     29 H1          1.0042    1.8801    0.0026 H         1 <0>         0.0692
     30 H2         -0.5455    1.8639   -0.8728 H         1 <0>         0.0613
     31 H3         -0.5286    1.8543    0.9071 H         1 <0>         0.0806
     32 H4         -0.0067   -0.1432   -2.1305 H         1 <0>         0.1323
     33 H5          0.0553   -3.8548   -0.0143 H         1 <0>         0.1237
     34 H6          0.0483   -2.6360    2.1238 H         1 <0>         0.1312
     35 H7         -0.8341   -1.4560    3.6044 H         1 <0>         0.0575
     36 H8          0.9456   -1.4317    3.5875 H         1 <0>         0.0576
     37 H9          0.9459   -4.5020   -1.7946 H         1 <0>         0.0716
     38 H10        -0.8339   -4.5268   -1.7853 H         1 <0>         0.0717
     39 H11         0.0330   -4.3478   -5.7507 H         1 <0>         0.1100
     40 H12         0.0184   -2.8706   -4.6030 H         1 <0>         0.1162
     41 H13         0.9672   -6.6543   -3.4668 H         1 <0>         0.0792
     42 H14        -0.8126   -6.6791   -3.4575 H         1 <0>         0.0792
     43 H15         0.0929   -8.5521   -3.6625 H         1 <0>         0.1417
     44 H16         0.1214  -10.9242   -4.3191 H         1 <0>         0.1394
     45 H17         0.1055   -9.7936   -8.4318 H         1 <0>         0.1431
     46 H18         0.0656   -7.4194   -7.7833 H         1 <0>         0.1444
@<TRIPOS>BOND
     1    1    2 1
     2    1   29 1
     3    1   30 1
     4    1   31 1
     5    2    7 ar
     6    2    3 ar
     7    3    4 ar
     8    3   32 1
     9    4    5 ar
    10    4   13 1
    11    5    6 ar
    12    5   33 1
    13    6    7 ar
    14    6   34 1
    15    7    8 1
    16    8    9 1
    17    9   10 1
    18    9   35 1
    19    9   36 1
    20   10   11 2
    21   10   12 1
    22   13   14 1
    23   14   15 1
    24   14   37 1
    25   14   38 1
    26   15   16 2
    27   15   17 1
    28   16   39 1
    29   16   40 1
    30   17   18 1
    31   17   41 1
    32   17   42 1
    33   18   19 1
    34   19   24 ar
    35   19   20 ar
    36   20   21 ar
    37   20   43 1
    38   21   22 ar
    39   21   44 1
    40   22   23 ar
    41   22   25 1
    42   23   24 ar
    43   23   45 1
    44   24   46 1
    45   25   26 1
    46   25   27 1
    47   25   28 1
@<TRIPOS>MOLECULE
CHEMBL233976
   46    49     0     0     0
SMALL
USER_CHARGES

@<TRIPOS>ATOM
      1 C1         -0.0184    1.5028    0.0103 C.3       1 <0>        -0.0892
      2 C2          0.0021   -0.0041    0.0020 C.2       1 <0>         0.0865
      3 C3          0.0052   -0.6786   -1.1785 C.2       1 <0>        -0.1742
      4 S1          0.0311   -2.3682   -0.5929 S.3       1 <0>         0.0510
      5 C4          0.0349   -1.9927    1.1552 C.2       1 <0>         0.1362
      6 N1          0.0223   -0.6673    1.1341 N.2       1 <0>        -0.4845
      7 C5          0.0529   -2.9127    2.3127 C.ar      1 <0>         0.0231
      8 C6          0.0759   -4.2933    2.1102 C.ar      1 <0>        -0.0948
      9 C7          0.0925   -5.1463    3.1944 C.ar      1 <0>        -0.0660
     10 C8          0.0860   -4.6357    4.4803 C.ar      1 <0>        -0.1705
     11 C9          0.0628   -3.2680    4.6878 C.ar      1 <0>        -0.0684
     12 C10         0.0527   -2.4041    3.6122 C.ar      1 <0>        -0.0729
     13 C11         0.1038   -5.5733    5.6599 C.3       1 <0>         0.5087
     14 F1          1.4281   -5.8412    6.0228 F         1 <0>        -0.1742
     15 F2         -0.5641   -4.9806    6.7369 F         1 <0>        -0.1751
     16 F3         -0.5362   -6.7686    5.3152 F         1 <0>        -0.1754
     17 C12        -0.0096   -0.1491   -2.5894 C.3       1 <0>         0.1509
     18 O1          1.3328    0.0369   -3.0424 O.3       1 <0>        -0.3055
     19 C13         1.4977    0.5128   -4.3052 C.ar      1 <0>         0.1371
     20 C14         0.3891    0.8032   -5.0972 C.ar      1 <0>        -0.2087
     21 C15         0.5265    1.2798   -6.3622 C.ar      1 <0>        -0.0208
     22 C16         1.8089    1.4985   -6.9194 C.ar      1 <0>        -0.0910
     23 C17         2.9167    1.1976   -6.0981 C.ar      1 <0>        -0.0770
     24 C18         2.7694    0.7189   -4.8139 C.ar      1 <0>        -0.1129
     25 S2          4.3128    1.5912   -7.1198 S.3       1 <0>         0.0029
     26 C19         3.4438    2.1333   -8.5788 C.2       1 <0>        -0.1785
     27 C20         2.1533    1.9983   -8.2432 C.2       1 <0>        -0.0335
     28 C21         1.0696    2.3604   -9.2257 C.3       1 <0>        -0.1467
     29 C22         0.6136    3.7742   -8.9722 C.2       1 <0>         0.4972
     30 O2          1.1216    4.4272   -8.0766 O.co2     1 <0>        -0.6835
     31 O3         -0.2633    4.2650   -9.6626 O.co2     1 <0>        -0.7013
     32 H1          1.0042    1.8801    0.0026 H         1 <0>         0.0825
     33 H2         -0.5455    1.8639   -0.8728 H         1 <0>         0.0780
     34 H3         -0.5286    1.8543    0.9071 H         1 <0>         0.0779
     35 H4          0.0803   -4.6931    1.1069 H         1 <0>         0.1407
     36 H5          0.1103   -6.2149    3.0391 H         1 <0>         0.1456
     37 H6          0.0575   -2.8757    5.6941 H         1 <0>         0.1453
     38 H7          0.0398   -1.3366    3.7755 H         1 <0>         0.1498
     39 H8         -0.5171   -0.8618   -3.2395 H         1 <0>         0.0828
     40 H9         -0.5369    0.8045   -2.6141 H         1 <0>         0.0951
     41 H10        -0.6016    0.6456   -4.6971 H         1 <0>         0.1279
     42 H11        -0.3539    1.4941   -6.9499 H         1 <0>         0.1287
     43 H12         3.6386    0.5024   -4.2107 H         1 <0>         0.1342
     44 H13         3.8586    2.4868   -9.5112 H         1 <0>         0.1814
     45 H14         1.4581    2.2805  -10.2410 H         1 <0>         0.0725
     46 H15         0.2270    1.6796   -9.1045 H         1 <0>         0.0688
@<TRIPOS>BOND
     1    1    2 1
     2    1   32 1
     3    1   33 1
     4    1   34 1
     5    2    6 1
     6    2    3 2
     7    3    4 1
     8    3   17 1
     9    4    5 1
    10    5    6 2
    11    5    7 1
    12    7   12 ar
    13    7    8 ar
    14    8    9 ar
    15    8   35 1
    16    9   10 ar
    17    9   36 1
    18   10   11 ar
    19   10   13 1
    20   11   12 ar
    21   11   37 1
    22   12   38 1
    23   13   14 1
    24   13   15 1
    25   13   16 1
    26   17   18 1
    27   17   39 1
    28   17   40 1
    29   18   19 1
    30   19   24 ar
    31   19   20 ar
    32   20   21 ar
    33   20   41 1
    34   21   22 ar
    35   21   42 1
    36   22   27 1
    37   22   23 ar
    38   23   24 ar
    39   23   25 1
    40   24   43 1
    41   25   26 1
    42   26   27 2
    43   26   44 1
    44   27   28 1
    45   28   29 1
    46   28   45 1
    47   28   46 1
    48   29   30 2
    49   29   31 1
@<TRIPOS>MOLECULE
CHEMBL253310
   48    50     0     0     0
SMALL
USER_CHARGES

@<TRIPOS>ATOM
      1 C1         -0.0184    1.5028    0.0103 C.3       1 <0>        -0.0868
      2 C2          0.0021   -0.0041    0.0020 C.2       1 <0>         0.1477
      3 C3          0.0061   -0.7299   -1.1827 C.2       1 <0>        -0.2707
      4 S1          0.0318   -2.3981   -0.5457 S.3       1 <0>         0.1991
      5 C4          0.0348   -2.0213    1.0945 C.2       1 <0>         0.0740
      6 N1          0.0225   -0.6988    1.1087 N.2       1 <0>        -0.5084
      7 C5          0.0527   -2.9480    2.2457 C.ar      1 <0>         0.0170
      8 C6          0.0756   -4.3277    2.0346 C.ar      1 <0>        -0.0963
      9 C7          0.0922   -5.1872    3.1135 C.ar      1 <0>        -0.0649
     10 C8          0.0855   -4.6845    4.4026 C.ar      1 <0>        -0.1701
     11 C9          0.0623   -3.3181    4.6188 C.ar      1 <0>        -0.0700
     12 C10         0.0524   -2.4475    3.5487 C.ar      1 <0>        -0.0715
     13 C11         0.1032   -5.6295    5.5763 C.3       1 <0>         0.5086
     14 F1          1.4275   -5.8997    5.9376 F         1 <0>        -0.1744
     15 F2         -0.5647   -5.0435    6.6569 F         1 <0>        -0.1756
     16 F3         -0.5368   -6.8227    5.2241 F         1 <0>        -0.1746
     17 C12        -0.0076   -0.2575   -2.5703 C.2       1 <0>         0.6040
     18 O1         -0.0254    0.9362   -2.8066 O.2       1 <0>        -0.5243
     19 N2         -0.0005   -1.1452   -3.5845 N.am      1 <0>        -0.7120
     20 C13        -0.0142   -0.6731   -4.9713 C.3       1 <0>         0.1809
     21 C14        -0.0026   -1.8561   -5.9048 C.ar      1 <0>        -0.2214
     22 C15         1.2012   -2.3845   -6.3338 C.ar      1 <0>        -0.0560
     23 C16         1.2154   -3.4686   -7.1892 C.ar      1 <0>        -0.1746
     24 C17         0.0188   -4.0282   -7.6188 C.ar      1 <0>         0.2873
     25 C18        -1.1886   -3.4949   -7.1859 C.ar      1 <0>        -0.2597
     26 C19        -1.1956   -2.4142   -6.3259 C.ar      1 <0>        -0.0421
     27 N3          0.0295   -5.1244   -8.4843 N.2       1 <0>        -1.0565
     28 S2         -1.3981   -5.7900   -8.9952 S.o2      1 <0>         2.5064
     29 O2         -2.0062   -6.2944   -7.8141 O.2       1 <0>        -0.9572
     30 O3         -2.0261   -4.7643   -9.7521 O.2       1 <0>        -0.9565
     31 C20        -0.9119   -7.1592  -10.0812 C.3       1 <0>        -0.0070
     32 F4         -0.1423   -8.0771   -9.3584 F         1 <0>        -0.1646
     33 F5         -2.0575   -7.7951  -10.5715 F         1 <0>        -0.1836
     34 F6         -0.1607   -6.6614  -11.1514 F         1 <0>        -0.1644
     35 H1          1.0042    1.8801    0.0026 H         1 <0>         0.0815
     36 H2         -0.5455    1.8639   -0.8728 H         1 <0>         0.0977
     37 H3         -0.5286    1.8543    0.9071 H         1 <0>         0.0744
     38 H4          0.0801   -4.7214    1.0289 H         1 <0>         0.1427
     39 H5          0.1099   -6.2549    2.9516 H         1 <0>         0.1468
     40 H6          0.0566   -2.9323    5.6275 H         1 <0>         0.1443
     41 H7          0.0392   -1.3810    3.7188 H         1 <0>         0.1491
     42 H8          0.0136   -2.0966   -3.3961 H         1 <0>         0.4007
     43 H9         -0.9133   -0.0820   -5.1450 H         1 <0>         0.0708
     44 H10         0.8664   -0.0573   -5.1541 H         1 <0>         0.0721
     45 H11         2.1312   -1.9488   -5.9997 H         1 <0>         0.1104
     46 H12         2.1559   -3.8806   -7.5242 H         1 <0>         0.1187
     47 H13        -2.1208   -3.9273   -7.5182 H         1 <0>         0.1020
     48 H14        -2.1339   -2.0019   -5.9855 H         1 <0>         0.1068
@<TRIPOS>BOND
     1    1    2 1
     2    1   35 1
     3    1   36 1
     4    1   37 1
     5    2    6 1
     6    2    3 2
     7    3    4 1
     8    3   17 1
     9    4    5 1
    10    5    6 2
    11    5    7 1
    12    7   12 ar
    13    7    8 ar
    14    8    9 ar
    15    8   38 1
    16    9   10 ar
    17    9   39 1
    18   10   11 ar
    19   10   13 1
    20   11   12 ar
    21   11   40 1
    22   12   41 1
    23   13   14 1
    24   13   15 1
    25   13   16 1
    26   17   18 2
    27   17   19 am
    28   19   20 1
    29   19   42 1
    30   20   21 1
    31   20   43 1
    32   20   44 1
    33   21   26 ar
    34   21   22 ar
    35   22   23 ar
    36   22   45 1
    37   23   24 ar
    38   23   46 1
    39   24   25 ar
    40   24   27 1
    41   25   26 ar
    42   25   47 1
    43   26   48 1
    44   27   28 1
    45   28   29 2
    46   28   30 2
    47   28   31 1
    48   31   32 1
    49   31   33 1
    50   31   34 1
@<TRIPOS>MOLECULE
CHEMBL253310__1
   49    51     0     0     0
SMALL
USER_CHARGES

@<TRIPOS>ATOM
      1 C1         -0.0521    1.6452   -0.1078 C.3       1 <0>        -0.0910
      2 C2          0.0342    0.1408   -0.0912 C.2       1 <0>         0.1629
      3 C3          0.0346   -0.6056   -1.2631 C.2       1 <0>        -0.2876
      4 S1          0.1526   -2.2592   -0.5991 S.3       1 <0>         0.1843
      5 C4          0.1880   -1.8529    1.0337 C.2       1 <0>         0.0952
      6 N1          0.1181   -0.5321    1.0259 N.2       1 <0>        -0.5097
      7 C5          0.2809   -2.7568    2.1993 C.ar      1 <0>         0.0072
      8 C6          0.3581   -4.1378    2.0109 C.ar      1 <0>        -0.0950
      9 C7          0.4446   -4.9760    3.1032 C.ar      1 <0>        -0.0660
     10 C8          0.4544   -4.4507    4.3832 C.ar      1 <0>        -0.1637
     11 C9          0.3777   -3.0829    4.5769 C.ar      1 <0>        -0.0687
     12 C10         0.2976   -2.2331    3.4931 C.ar      1 <0>        -0.0669
     13 C11         0.5485   -5.3725    5.5717 C.3       1 <0>         0.5079
     14 F1          1.8936   -5.5784    5.8967 F         1 <0>        -0.1730
     15 F2         -0.1119   -4.7964    6.6621 F         1 <0>        -0.1736
     16 F3         -0.0487   -6.5985    5.2594 F         1 <0>        -0.1742
     17 C12        -0.0412   -0.1597   -2.6574 C.2       1 <0>         0.6142
     18 O1         -0.1184    1.0277   -2.9132 O.2       1 <0>        -0.5131
     19 N2         -0.0255   -1.0645   -3.6561 N.am      1 <0>        -0.7223
     20 C13        -0.1012   -0.6188   -5.0496 C.3       1 <0>         0.1614
     21 C14        -0.0656   -1.8170   -5.9629 C.ar      1 <0>        -0.1080
     22 C15         1.1468   -2.3005   -6.4196 C.ar      1 <0>        -0.0813
     23 C16         1.1831   -3.3983   -7.2567 C.ar      1 <0>        -0.1148
     24 C17        -0.0002   -4.0170   -7.6398 C.ar      1 <0>         0.1224
     25 C18        -1.2163   -3.5287   -7.1792 C.ar      1 <0>        -0.1393
     26 C19        -1.2451   -2.4339   -6.3379 C.ar      1 <0>        -0.0744
     27 N3          0.0328   -5.1272   -8.4867 N.pl3     1 <0>        -1.0226
     28 S2         -0.8770   -6.4651   -8.1338 S.o2      1 <0>         2.6035
     29 O2         -2.2022   -5.9738   -7.9865 O.2       1 <0>        -0.8655
     30 O3         -0.5603   -7.3992   -9.1567 O.2       1 <0>        -0.8747
     31 C20        -0.2463   -7.0498   -6.5366 C.3       1 <0>        -0.0371
     32 F4         -0.5142   -6.0937   -5.5511 F         1 <0>        -0.1559
     33 F5         -0.8733   -8.2544   -6.2004 F         1 <0>        -0.1576
     34 F6          1.1351   -7.2523   -6.6267 F         1 <0>        -0.1577
     35 H1          0.9522    2.0663   -0.1532 H         1 <0>         0.0848
     36 H2         -0.6208    1.9670   -0.9802 H         1 <0>         0.0978
     37 H3         -0.5503    1.9906    0.7982 H         1 <0>         0.0785
     38 H4          0.3498   -4.5492    1.0124 H         1 <0>         0.1403
     39 H5          0.5043   -6.0447    2.9589 H         1 <0>         0.1475
     40 H6          0.3851   -2.6793    5.5786 H         1 <0>         0.1472
     41 H7          0.2427   -1.1653    3.6454 H         1 <0>         0.1507
     42 H8          0.0361   -2.0108   -3.4523 H         1 <0>         0.4012
     43 H9         -1.0303   -0.0705   -5.2057 H         1 <0>         0.0865
     44 H10         0.7456    0.0312   -5.2698 H         1 <0>         0.0859
     45 H11         2.0664   -1.8188   -6.1216 H         1 <0>         0.1363
     46 H12         2.1303   -3.7752   -7.6133 H         1 <0>         0.1380
     47 H13        -2.1381   -4.0072   -7.4755 H         1 <0>         0.1600
     48 H14        -2.1900   -2.0565   -5.9759 H         1 <0>         0.1388
     49 H15         0.5887   -5.1146   -9.2815 H         1 <0>         0.4414
@<TRIPOS>BOND
     1    1    2 1
     2    1   35 1
     3    1   36 1
     4    1   37 1
     5    2    6 1
     6    2    3 2
     7    3    4 1
     8    3   17 1
     9    4    5 1
    10    5    6 2
    11    5    7 1
    12    7   12 ar
    13    7    8 ar
    14    8    9 ar
    15    8   38 1
    16    9   10 ar
    17    9   39 1
    18   10   11 ar
    19   10   13 1
    20   11   12 ar
    21   11   40 1
    22   12   41 1
    23   13   14 1
    24   13   15 1
    25   13   16 1
    26   17   18 2
    27   17   19 am
    28   19   20 1
    29   19   42 1
    30   20   21 1
    31   20   43 1
    32   20   44 1
    33   21   26 ar
    34   21   22 ar
    35   22   23 ar
    36   22   45 1
    37   23   24 ar
    38   23   46 1
    39   24   25 ar
    40   24   27 1
    41   25   26 ar
    42   25   47 1
    43   26   48 1
    44   27   28 1
    45   27   49 1
    46   28   29 2
    47   28   30 2
    48   28   31 1
    49   31   32 1
    50   31   33 1
    51   31   34 1
@<TRIPOS>MOLECULE
CHEMBL233978
   40    43     0     0     0
SMALL
USER_CHARGES

@<TRIPOS>ATOM
      1 C1         -0.0169    1.3916    0.0097 C.ar      1 <0>        -0.0734
      2 C2          1.1697    2.0947    0.0021 C.ar      1 <0>        -0.1113
      3 C3          2.3782    1.4186   -0.0130 C.ar      1 <0>        -0.0185
      4 C4          2.4033    0.0340   -0.0207 C.ar      1 <0>        -0.1094
      5 C5          1.2232   -0.6799   -0.0137 C.ar      1 <0>        -0.0687
      6 C6          0.0021   -0.0041    0.0020 C.ar      1 <0>        -0.0351
      7 C7         -1.2662   -0.7634    0.0100 C.2       1 <0>         0.1076
      8 C8         -1.3904   -2.1186    0.0094 C.2       1 <0>        -0.2416
      9 C9         -2.7582   -2.4282    0.0195 C.2       1 <0>         0.1114
     10 N1         -3.4306   -1.3109    0.0259 N.2       1 <0>        -0.3035
     11 O1         -2.5059   -0.2386    0.0252 O.3       1 <0>        -0.0678
     12 C10        -3.3496   -3.8143    0.0220 C.3       1 <0>         0.1316
     13 O2         -2.2973   -4.7811    0.0124 O.3       1 <0>        -0.3058
     14 C11        -2.6623   -6.0907    0.0133 C.ar      1 <0>         0.1374
     15 C12        -4.0096   -6.4449    0.0173 C.ar      1 <0>        -0.2078
     16 C13        -4.4009   -7.7461    0.0182 C.ar      1 <0>        -0.0207
     17 C14        -3.4458   -8.7905    0.0146 C.ar      1 <0>        -0.0895
     18 C15        -2.0873   -8.4073    0.0101 C.ar      1 <0>        -0.0784
     19 C16        -1.6981   -7.0850    0.0044 C.ar      1 <0>        -0.1106
     20 S1         -1.2175   -9.9537    0.0073 S.3       1 <0>         0.0042
     21 C17        -2.6168  -11.0581    0.0119 C.2       1 <0>        -0.1779
     22 C18        -3.6701  -10.2294    0.0154 C.2       1 <0>        -0.0337
     23 C19        -5.0725  -10.7811    0.0195 C.3       1 <0>        -0.1470
     24 C20        -5.5894  -10.8499   -1.3944 C.2       1 <0>         0.4971
     25 O3         -4.8844  -10.4847   -2.3196 O.co2     1 <0>        -0.6837
     26 O4         -6.7126  -11.2706   -1.6130 O.co2     1 <0>        -0.7010
     27 Cl1         3.8677    2.3104   -0.0230 Cl        1 <0>        -0.0615
     28 H1         -0.9587    1.9198    0.0260 H         1 <0>         0.1435
     29 H2          1.1564    3.1746    0.0077 H         1 <0>         0.1421
     30 H3          3.3488   -0.4878   -0.0325 H         1 <0>         0.1443
     31 H4          1.2440   -1.7597   -0.0204 H         1 <0>         0.1449
     32 H5         -0.5784   -2.8306    0.0021 H         1 <0>         0.1694
     33 H6         -3.9579   -3.9482    0.9165 H         1 <0>         0.0976
     34 H7         -3.9716   -3.9456   -0.8634 H         1 <0>         0.0987
     35 H8         -4.7598   -5.6679    0.0201 H         1 <0>         0.1290
     36 H9         -5.4538   -7.9863    0.0221 H         1 <0>         0.1293
     37 H10        -0.6495   -6.8263   -0.0029 H         1 <0>         0.1355
     38 H11        -2.6159  -12.1381    0.0116 H         1 <0>         0.1815
     39 H12        -5.0683  -11.7808    0.4539 H         1 <0>         0.0727
     40 H13        -5.7170  -10.1307    0.6108 H         1 <0>         0.0691
@<TRIPOS>BOND
     1    1    6 ar
     2    1    2 ar
     3    1   28 1
     4    2    3 ar
     5    2   29 1
     6    3    4 ar
     7    3   27 1
     8    4    5 ar
     9    4   30 1
    10    5    6 ar
    11    5   31 1
    12    6    7 1
    13    7   11 1
    14    7    8 2
    15    8    9 1
    16    8   32 1
    17    9   10 2
    18    9   12 1
    19   10   11 1
    20   12   13 1
    21   12   33 1
    22   12   34 1
    23   13   14 1
    24   14   19 ar
    25   14   15 ar
    26   15   16 ar
    27   15   35 1
    28   16   17 ar
    29   16   36 1
    30   17   22 1
    31   17   18 ar
    32   18   19 ar
    33   18   20 1
    34   19   37 1
    35   20   21 1
    36   21   22 2
    37   21   38 1
    38   22   23 1
    39   23   24 1
    40   23   39 1
    41   23   40 1
    42   24   25 2
    43   24   26 1
@<TRIPOS>MOLECULE
CHEMBL220124
   55    58     0     0     0
SMALL
USER_CHARGES

@<TRIPOS>ATOM
      1 C1          1.0716    1.5554    0.8251 C.3       1 <0>         0.0238
      2 O1          1.0017    0.1324    0.7146 O.3       1 <0>        -0.3011
      3 C2         -0.2267   -0.4106    0.5009 C.ar      1 <0>         0.0994
      4 C3         -1.3357    0.4083    0.3947 C.ar      1 <0>        -0.1245
      5 C4         -2.5950   -0.1524    0.1755 C.ar      1 <0>        -0.0223
      6 C5         -2.7294   -1.5372    0.0643 C.ar      1 <0>        -0.0807
      7 C6         -1.6193   -2.3488    0.1712 C.ar      1 <0>        -0.1735
      8 C7         -0.3669   -1.7915    0.3833 C.ar      1 <0>         0.1299
      9 O2          0.7252   -2.5950    0.4823 O.3       1 <0>        -0.2950
     10 C8          0.5096   -4.0016    0.3522 C.3       1 <0>         0.0600
     11 C9          1.8441   -4.7371    0.4906 C.3       1 <0>        -0.1186
     12 C10         1.6132   -6.2432    0.3513 C.3       1 <0>         0.0659
     13 O3          2.8596   -6.9301    0.4805 O.3       1 <0>        -0.3150
     14 C11         2.8305   -8.2851    0.3806 C.ar      1 <0>         0.1144
     15 C12         1.6283   -8.9405    0.1570 C.ar      1 <0>        -0.2082
     16 C13         1.6039  -10.3167    0.0563 C.ar      1 <0>        -0.0705
     17 C14         2.7748  -11.0471    0.1780 C.ar      1 <0>        -0.1081
     18 C15         3.9741  -10.3963    0.4010 C.ar      1 <0>        -0.0610
     19 C16         4.0026   -9.0157    0.4962 C.ar      1 <0>        -0.1402
     20 C17         5.0957  -11.4085    0.4959 C.3       1 <0>        -0.0828
     21 C18         4.3978  -12.7626    0.7439 C.3       1 <0>        -0.1019
     22 C19         3.0092  -12.5411    0.1077 C.3       1 <0>        -0.0266
     23 H1          3.0109  -12.8752   -0.9299 H         1 <0>         0.0888
     24 C20         1.9355  -13.2850    0.9043 C.3       1 <0>        -0.1740
     25 C21         2.1026  -14.7698    0.7078 C.2       1 <0>         0.4910
     26 O4          2.9284  -15.1908   -0.0841 O.co2     1 <0>        -0.6953
     27 O5          1.4119  -15.5500    1.3408 O.co2     1 <0>        -0.7083
     28 C22        -3.7839    0.7186    0.0617 C.2       1 <0>         0.1643
     29 N1         -3.8688    2.0399    0.1314 N.2       1 <0>        -0.5047
     30 C23        -5.0214    2.6560    0.0070 C.2       1 <0>         0.0297
     31 C24        -6.1557    1.9360   -0.1975 C.2       1 <0>        -0.2050
     32 S1         -5.4937    0.2746   -0.2149 S.3       1 <0>         0.0108
     33 H2          2.1056    1.8564    0.9939 H         1 <0>         0.1032
     34 H3          0.7068    2.0098   -0.0961 H         1 <0>         0.0569
     35 H4          0.4559    1.8856    1.6617 H         1 <0>         0.0569
     36 H5         -1.2278    1.4793    0.4816 H         1 <0>         0.1492
     37 H6         -3.7028   -1.9734   -0.1050 H         1 <0>         0.1336
     38 H7         -1.7247   -3.4202    0.0850 H         1 <0>         0.1465
     39 H8         -0.1734   -4.3382    1.1322 H         1 <0>         0.0698
     40 H9          0.0774   -4.2140   -0.6257 H         1 <0>         0.0697
     41 H10         2.5270   -4.4005   -0.2894 H         1 <0>         0.0870
     42 H11         2.2763   -4.5247    1.4685 H         1 <0>         0.0872
     43 H12         0.9302   -6.5798    1.1312 H         1 <0>         0.0646
     44 H13         1.1810   -6.4555   -0.6266 H         1 <0>         0.0643
     45 H14         0.7132   -8.3748    0.0623 H         1 <0>         0.1235
     46 H15         0.6678  -10.8265   -0.1179 H         1 <0>         0.1223
     47 H16         4.9400   -8.5068    0.6655 H         1 <0>         0.1240
     48 H17         5.6582  -11.4383   -0.4373 H         1 <0>         0.0793
     49 H18         5.7555  -11.1650    1.3286 H         1 <0>         0.0708
     50 H19         4.9298  -13.5704    0.2414 H         1 <0>         0.0853
     51 H20         4.3074  -12.9621    1.8116 H         1 <0>         0.0643
     52 H21         2.0367  -13.0449    1.9627 H         1 <0>         0.0567
     53 H22         0.9485  -12.9812    0.5556 H         1 <0>         0.0557
     54 H23        -5.0681    3.7333    0.0674 H         1 <0>         0.1691
     55 H24        -7.1742    2.2737   -0.3199 H         1 <0>         0.1997
@<TRIPOS>BOND
     1    1    2 1
     2    1   33 1
     3    1   34 1
     4    1   35 1
     5    2    3 1
     6    3    8 ar
     7    3    4 ar
     8    4    5 ar
     9    4   36 1
    10    5    6 ar
    11    5   28 1
    12    6    7 ar
    13    6   37 1
    14    7    8 ar
    15    7   38 1
    16    8    9 1
    17    9   10 1
    18   10   11 1
    19   10   39 1
    20   10   40 1
    21   11   12 1
    22   11   41 1
    23   11   42 1
    24   12   13 1
    25   12   43 1
    26   12   44 1
    27   13   14 1
    28   14   19 ar
    29   14   15 ar
    30   15   16 ar
    31   15   45 1
    32   16   17 ar
    33   16   46 1
    34   17   22 1
    35   17   18 ar
    36   18   19 ar
    37   18   20 1
    38   19   47 1
    39   20   21 1
    40   20   48 1
    41   20   49 1
    42   21   22 1
    43   21   50 1
    44   21   51 1
    45   22   23 1
    46   22   24 1
    47   24   25 1
    48   24   52 1
    49   24   53 1
    50   25   26 2
    51   25   27 1
    52   28   32 1
    53   28   29 2
    54   29   30 1
    55   30   31 2
    56   30   54 1
    57   31   32 1
    58   31   55 1
@<TRIPOS>MOLECULE
CHEMBL428037
   49    51     0     0     0
SMALL
USER_CHARGES

@<TRIPOS>ATOM
      1 C1          0.2695    1.1781   -0.1651 C.3       1 <0>        -0.0966
      2 C2          0.1548   -0.3200   -0.0485 C.ar      1 <0>        -0.1017
      3 C3          0.2038   -1.1069   -1.1830 C.ar      1 <0>        -0.1191
      4 C4          0.0987   -2.4855   -1.0756 C.ar      1 <0>         0.0720
      5 C5         -0.0555   -3.0744    0.1708 C.ar      1 <0>        -0.1810
      6 C6         -0.1045   -2.2878    1.3049 C.ar      1 <0>        -0.1147
      7 C7          0.0059   -0.9091    1.1980 C.ar      1 <0>         0.1428
      8 O1         -0.0367   -0.1350    2.3152 O.3       1 <0>        -0.2984
      9 C8         -0.0641   -0.8123    3.5732 C.3       1 <0>         0.0296
     10 C9          1.1831   -1.6882    3.7080 C.3       1 <0>        -0.1735
     11 C10        -0.0898    0.2162    4.7057 C.3       1 <0>        -0.1148
     12 C11        -1.2960   -1.6767    3.6516 C.2       1 <0>         0.4811
     13 O2         -2.0780   -1.7097    2.7168 O.co2     1 <0>        -0.6696
     14 O3         -1.5106   -2.3431    4.6498 O.co2     1 <0>        -0.6856
     15 O4          0.1465   -3.2601   -2.1923 O.3       1 <0>        -0.3120
     16 C12         0.0321   -4.6724   -2.0076 C.3       1 <0>         0.1454
     17 C13         0.1058   -5.3617   -3.3457 C.2       1 <0>         0.0657
     18 N1          1.1652   -5.8121   -3.9792 N.2       1 <0>        -0.4977
     19 C14         0.9837   -6.3881   -5.1539 C.2       1 <0>         0.2822
     20 N2         -0.2492   -6.4730   -5.6133 N.2       1 <0>        -0.4646
     21 S1         -1.1470   -5.7517   -4.3952 S.3       1 <0>         0.3454
     22 C15         2.1296   -6.9216   -5.9311 C.ar      1 <0>         0.0105
     23 C16         3.4238   -6.8258   -5.4237 C.ar      1 <0>        -0.0723
     24 C17         4.4859   -7.3242   -6.1506 C.ar      1 <0>        -0.0744
     25 C18         4.2675   -7.9179   -7.3807 C.ar      1 <0>        -0.1691
     26 C19         2.9848   -8.0157   -7.8892 C.ar      1 <0>        -0.0750
     27 C20         1.9148   -7.5255   -7.1684 C.ar      1 <0>        -0.0801
     28 C21         5.4313   -8.4598   -8.1700 C.3       1 <0>         0.5087
     29 F1          5.6470   -9.7979   -7.8236 F         1 <0>        -0.1751
     30 F2          5.1487   -8.3717   -9.5374 F         1 <0>        -0.1761
     31 F3          6.5784   -7.7127   -7.8818 F         1 <0>        -0.1752
     32 H1          1.3185    1.4679   -0.1049 H         1 <0>         0.0623
     33 H2         -0.1423    1.5007   -1.1214 H         1 <0>         0.0594
     34 H3         -0.2848    1.6492    0.6466 H         1 <0>         0.0707
     35 H4          0.3235   -0.6484   -2.1535 H         1 <0>         0.1270
     36 H5         -0.1377   -4.1481    0.2544 H         1 <0>         0.1208
     37 H6         -0.2253   -2.7462    2.2753 H         1 <0>         0.1443
     38 H7          2.0588   -1.0545    3.8484 H         1 <0>         0.0514
     39 H8          1.0715   -2.3494    4.5674 H         1 <0>         0.0747
     40 H9          1.3075   -2.2849    2.8044 H         1 <0>         0.0656
     41 H10        -0.9318    0.8934    4.5624 H         1 <0>         0.0569
     42 H11        -0.1955   -0.2979    5.6610 H         1 <0>         0.0778
     43 H12         0.8395    0.7858    4.7004 H         1 <0>         0.0506
     44 H13         0.8460   -5.0230   -1.3730 H         1 <0>         0.0992
     45 H14        -0.9225   -4.9007   -1.5335 H         1 <0>         0.0980
     46 H15         3.5956   -6.3621   -4.4635 H         1 <0>         0.1512
     47 H16         5.4895   -7.2501   -5.7585 H         1 <0>         0.1439
     48 H17         2.8200   -8.4800   -8.8503 H         1 <0>         0.1430
     49 H18         0.9132   -7.6064   -7.5643 H         1 <0>         0.1463
@<TRIPOS>BOND
     1    1    2 1
     2    1   32 1
     3    1   33 1
     4    1   34 1
     5    2    7 ar
     6    2    3 ar
     7    3    4 ar
     8    3   35 1
     9    4    5 ar
    10    4   15 1
    11    5    6 ar
    12    5   36 1
    13    6    7 ar
    14    6   37 1
    15    7    8 1
    16    8    9 1
    17    9   10 1
    18    9   11 1
    19    9   12 1
    20   10   38 1
    21   10   39 1
    22   10   40 1
    23   11   41 1
    24   11   42 1
    25   11   43 1
    26   12   13 2
    27   12   14 1
    28   15   16 1
    29   16   17 1
    30   16   44 1
    31   16   45 1
    32   17   21 1
    33   17   18 2
    34   18   19 1
    35   19   20 2
    36   19   22 1
    37   20   21 1
    38   22   27 ar
    39   22   23 ar
    40   23   24 ar
    41   23   46 1
    42   24   25 ar
    43   24   47 1
    44   25   26 ar
    45   25   28 1
    46   26   27 ar
    47   26   48 1
    48   27   49 1
    49   28   29 1
    50   28   30 1
    51   28   31 1
@<TRIPOS>MOLECULE
CHEMBL367019
   59    62     0     0     0
SMALL
USER_CHARGES

@<TRIPOS>ATOM
      1 C1         -0.0187    1.5258    0.0104 C.3       1 <0>        -0.1514
      2 C2          0.0021   -0.0041    0.0020 C.3       1 <0>        -0.1165
      3 C3          0.7182   -0.4975   -1.2568 C.3       1 <0>        -0.0674
      4 C4          0.7386   -2.0043   -1.2651 C.ar      1 <0>        -0.1285
      5 C5          1.7874   -2.6879   -0.6752 C.ar      1 <0>         0.1949
      6 C6          1.8132   -4.0802   -0.6789 C.ar      1 <0>        -0.2252
      7 C7          0.8034   -4.7889   -1.2649 C.ar      1 <0>        -0.0029
      8 C8         -0.2620   -4.1157   -1.8639 C.ar      1 <0>        -0.2228
      9 C9         -0.2974   -2.7119   -1.8594 C.ar      1 <0>         0.1279
     10 O1         -1.4279   -2.3376   -2.4927 O.3       1 <0>        -0.0833
     11 N1         -2.1386   -3.4862   -2.9085 N.2       1 <0>        -0.2858
     12 C10        -1.4782   -4.5594   -2.5636 C.2       1 <0>         0.1824
     13 C11        -1.8857   -5.9626   -2.8160 C.ar      1 <0>        -0.0408
     14 C12        -0.9213   -6.9362   -3.0707 C.ar      1 <0>        -0.0859
     15 C13        -1.3065   -8.2406   -3.3049 C.ar      1 <0>        -0.1191
     16 C14        -2.6468   -8.5825   -3.2873 C.ar      1 <0>        -0.0993
     17 C15        -3.6083   -7.6205   -3.0351 C.ar      1 <0>        -0.1200
     18 C16        -3.2344   -6.3141   -2.7938 C.ar      1 <0>        -0.0815
     19 O2          2.7988   -1.9961   -0.0890 O.3       1 <0>        -0.2974
     20 C17         3.8511   -2.7613    0.5018 C.3       1 <0>         0.0616
     21 C18         4.8908   -1.8162    1.1074 C.3       1 <0>        -0.1007
     22 C19         6.0176   -2.6355    1.7400 C.3       1 <0>        -0.1170
     23 S1          7.2503   -1.5150    2.4580 S.3       1 <0>        -0.0911
     24 C20         8.4646   -2.5961    3.1373 C.ar      1 <0>        -0.1055
     25 C21         8.3120   -3.9726    3.0258 C.ar      1 <0>        -0.1174
     26 C22         9.2658   -4.8171    3.5589 C.ar      1 <0>        -0.0944
     27 C23        10.3722   -4.2946    4.2038 C.ar      1 <0>        -0.0044
     28 C24        10.5280   -2.9252    4.3175 C.ar      1 <0>        -0.0905
     29 C25         9.5808   -2.0737    3.7812 C.ar      1 <0>        -0.0096
     30 Cl1         9.7807   -0.3547    3.9173 Cl        1 <0>        -0.0679
     31 C26        11.4103   -5.2199    4.7844 C.3       1 <0>        -0.1609
     32 C27        12.4642   -5.5070    3.7462 C.2       1 <0>         0.4972
     33 O3         12.3802   -5.0067    2.6376 O.co2     1 <0>        -0.6854
     34 O4         13.4010   -6.2397    4.0150 O.co2     1 <0>        -0.6983
     35 H1          1.0039    1.9031    0.0027 H         1 <0>         0.0564
     36 H2         -0.5459    1.8868   -0.8726 H         1 <0>         0.0536
     37 H3         -0.5289    1.8773    0.9072 H         1 <0>         0.0541
     38 H4          0.5293   -0.3651    0.8851 H         1 <0>         0.0643
     39 H5         -1.0205   -0.3814    0.0098 H         1 <0>         0.0586
     40 H6          0.1910   -0.1364   -2.1398 H         1 <0>         0.0728
     41 H7          1.7408   -0.1202   -1.2645 H         1 <0>         0.0830
     42 H8          2.6370   -4.6028   -0.2158 H         1 <0>         0.1436
     43 H9          0.8297   -5.8686   -1.2650 H         1 <0>         0.1378
     44 H10         0.1254   -6.6703   -3.0850 H         1 <0>         0.1305
     45 H11        -0.5602   -8.9957   -3.5027 H         1 <0>         0.1325
     46 H12        -2.9437   -9.6044   -3.4715 H         1 <0>         0.1290
     47 H13        -4.6532   -7.8931   -3.0229 H         1 <0>         0.1310
     48 H14        -3.9856   -5.5648   -2.5922 H         1 <0>         0.1300
     49 H15         3.4410   -3.3997    1.2843 H         1 <0>         0.0709
     50 H16         4.3233   -3.3798   -0.2614 H         1 <0>         0.0716
     51 H17         5.3010   -1.1778    0.3249 H         1 <0>         0.0877
     52 H18         4.4187   -1.1977    1.8707 H         1 <0>         0.0870
     53 H19         5.6074   -3.2739    2.5225 H         1 <0>         0.0901
     54 H20         6.4897   -3.2540    0.9768 H         1 <0>         0.0916
     55 H21         7.4481   -4.3818    2.5231 H         1 <0>         0.1239
     56 H22         9.1475   -5.8871    3.4724 H         1 <0>         0.1259
     57 H23        11.3930   -2.5207    4.8220 H         1 <0>         0.1324
     58 H24        11.8732   -4.7483    5.6513 H         1 <0>         0.0741
     59 H25        10.9360   -6.1530    5.0884 H         1 <0>         0.0743
@<TRIPOS>BOND
     1    1    2 1
     2    1   35 1
     3    1   36 1
     4    1   37 1
     5    2    3 1
     6    2   38 1
     7    2   39 1
     8    3    4 1
     9    3   40 1
    10    3   41 1
    11    4    9 ar
    12    4    5 ar
    13    5    6 ar
    14    5   19 1
    15    6    7 ar
    16    6   42 1
    17    7    8 ar
    18    7   43 1
    19    8   12 1
    20    8    9 ar
    21    9   10 1
    22   10   11 1
    23   11   12 2
    24   12   13 1
    25   13   18 ar
    26   13   14 ar
    27   14   15 ar
    28   14   44 1
    29   15   16 ar
    30   15   45 1
    31   16   17 ar
    32   16   46 1
    33   17   18 ar
    34   17   47 1
    35   18   48 1
    36   19   20 1
    37   20   21 1
    38   20   49 1
    39   20   50 1
    40   21   22 1
    41   21   51 1
    42   21   52 1
    43   22   23 1
    44   22   53 1
    45   22   54 1
    46   23   24 1
    47   24   29 ar
    48   24   25 ar
    49   25   26 ar
    50   25   55 1
    51   26   27 ar
    52   26   56 1
    53   27   28 ar
    54   27   31 1
    55   28   29 ar
    56   28   57 1
    57   29   30 1
    58   31   32 1
    59   31   58 1
    60   31   59 1
    61   32   33 2
    62   32   34 1
@<TRIPOS>MOLECULE
CHEMBL426529
   47    50     0     0     0
SMALL
USER_CHARGES

@<TRIPOS>ATOM
      1 C1          0.1318    0.9782   -0.2165 C.ar      1 <0>        -0.2082
      2 C2          1.2714    1.7526   -0.1300 C.ar      1 <0>        -0.0705
      3 C3          2.5215    1.1747   -0.2764 C.ar      1 <0>        -0.1076
      4 C4          2.6307   -0.1841   -0.5100 C.ar      1 <0>        -0.0610
      5 C5          1.4903   -0.9630   -0.5966 C.ar      1 <0>        -0.1398
      6 C6          0.2388   -0.3847   -0.4506 C.ar      1 <0>         0.1138
      7 O1         -0.8802   -1.1512   -0.5365 O.3       1 <0>        -0.3152
      8 C7         -2.1353   -0.4872   -0.3758 C.3       1 <0>         0.0656
      9 C8         -3.2707   -1.5048   -0.5034 C.3       1 <0>        -0.1195
     10 C9         -4.6145   -0.7939   -0.3313 C.3       1 <0>         0.0620
     11 O2         -5.6749   -1.7444   -0.4505 O.3       1 <0>        -0.3032
     12 C10        -6.9434   -1.2731   -0.3218 C.ar      1 <0>         0.1647
     13 C11        -7.1581    0.0824   -0.0907 C.ar      1 <0>        -0.1992
     14 C12        -8.4272    0.5712    0.0405 C.ar      1 <0>        -0.0151
     15 C13        -9.5195   -0.2925   -0.0575 C.ar      1 <0>        -0.0194
     16 C14        -9.3073   -1.6599   -0.2905 C.ar      1 <0>         0.0519
     17 C15        -8.0148   -2.1428   -0.4270 C.ar      1 <0>        -0.1388
     18 O3        -10.5312   -2.2302   -0.3350 O.3       1 <0>        -0.2156
     19 C16       -11.4482   -1.2687   -0.1403 C.2       1 <0>         0.2212
     20 N1        -10.8672   -0.1190    0.0251 N.2       1 <0>        -0.4764
     21 C17         4.0903   -0.5664   -0.6324 C.3       1 <0>        -0.0829
     22 C18         4.8358    0.7612   -0.8849 C.3       1 <0>        -0.1019
     23 C19         3.9006    1.7971   -0.2259 C.3       1 <0>        -0.0268
     24 H1          4.1988    1.9723    0.8078 H         1 <0>         0.0890
     25 C20         3.9206    3.1080   -1.0146 C.3       1 <0>        -0.1740
     26 C21         5.2573    3.7808   -0.8369 C.2       1 <0>         0.4908
     27 O4          6.0756    3.3158   -0.0618 O.co2     1 <0>        -0.6953
     28 O5          5.5204    4.7902   -1.4681 O.co2     1 <0>        -0.7081
     29 H2         -0.8410    1.4321   -0.0976 H         1 <0>         0.1235
     30 H3          1.1877    2.8138    0.0524 H         1 <0>         0.1225
     31 H4          1.5754   -2.0240   -0.7793 H         1 <0>         0.1241
     32 H5         -2.1755   -0.0194    0.6079 H         1 <0>         0.0648
     33 H6         -2.2436    0.2765   -1.1459 H         1 <0>         0.0650
     34 H7         -3.2304   -1.9726   -1.4871 H         1 <0>         0.0876
     35 H8         -3.1624   -2.2685    0.2668 H         1 <0>         0.0874
     36 H9         -4.6547   -0.3261    0.6524 H         1 <0>         0.0717
     37 H10        -4.7228   -0.0302   -1.1015 H         1 <0>         0.0718
     38 H11        -6.3150    0.7530   -0.0141 H         1 <0>         0.1451
     39 H12        -8.5851    1.6244    0.2200 H         1 <0>         0.1417
     40 H13        -7.8447   -3.1934   -0.6105 H         1 <0>         0.1454
     41 H14       -12.5162   -1.4285   -0.1241 H         1 <0>         0.2563
     42 H15         4.4395   -1.0264    0.2920 H         1 <0>         0.0795
     43 H16         4.2340   -1.2464   -1.4720 H         1 <0>         0.0709
     44 H17         5.8116    0.7560   -0.3992 H         1 <0>         0.0855
     45 H18         4.9346    0.9529   -1.9533 H         1 <0>         0.0644
     46 H19         3.7570    2.8985   -2.0717 H         1 <0>         0.0567
     47 H20         3.1316    3.7647   -0.6481 H         1 <0>         0.0558
@<TRIPOS>BOND
     1    1    6 ar
     2    1    2 ar
     3    1   29 1
     4    2    3 ar
     5    2   30 1
     6    3   23 1
     7    3    4 ar
     8    4    5 ar
     9    4   21 1
    10    5    6 ar
    11    5   31 1
    12    6    7 1
    13    7    8 1
    14    8    9 1
    15    8   32 1
    16    8   33 1
    17    9   10 1
    18    9   34 1
    19    9   35 1
    20   10   11 1
    21   10   36 1
    22   10   37 1
    23   11   12 1
    24   12   17 ar
    25   12   13 ar
    26   13   14 ar
    27   13   38 1
    28   14   15 ar
    29   14   39 1
    30   15   20 1
    31   15   16 ar
    32   16   17 ar
    33   16   18 1
    34   17   40 1
    35   18   19 1
    36   19   20 2
    37   19   41 1
    38   21   22 1
    39   21   42 1
    40   21   43 1
    41   22   23 1
    42   22   44 1
    43   22   45 1
    44   23   24 1
    45   23   25 1
    46   25   26 1
    47   25   46 1
    48   25   47 1
    49   26   27 2
    50   26   28 1
@<TRIPOS>MOLECULE
CHEMBL1080540
   58    62     0     0     0
SMALL
USER_CHARGES

@<TRIPOS>ATOM
      1 C1          0.7432    0.0247   -1.0618 C.3       1 <0>         0.0258
      2 O1          0.0731   -0.1461    0.1887 O.3       1 <0>        -0.3158
      3 C2         -1.1435   -0.7509    0.1593 C.ar      1 <0>         0.1379
      4 C3         -1.6766   -1.1757   -1.0502 C.ar      1 <0>        -0.2080
      5 C4         -2.9108   -1.7898   -1.0839 C.ar      1 <0>        -0.0513
      6 C5         -3.6236   -1.9843    0.0992 C.ar      1 <0>        -0.0623
      7 C6         -3.0848   -1.5566    1.3126 C.ar      1 <0>        -0.0420
      8 C7         -1.8478   -0.9476    1.3394 C.ar      1 <0>        -0.1527
      9 C8         -4.9500   -2.6431    0.0670 C.2       1 <0>         0.1396
     10 C9         -5.1991   -3.7658   -0.7192 C.2       1 <0>        -0.1862
     11 S1         -6.9156   -4.0638   -0.3278 S.3       1 <0>         0.1768
     12 C10        -7.1384   -2.7898    0.7481 C.2       1 <0>         0.0567
     13 N1         -5.9697   -2.2048    0.7874 N.2       1 <0>        -0.4848
     14 C11        -8.3913   -2.4140    1.4965 C.3       1 <0>         0.1506
     15 O2         -9.1580   -1.4979    0.7123 O.3       1 <0>        -0.3119
     16 C12       -10.3278   -1.0562    1.2468 C.ar      1 <0>         0.0845
     17 C13       -10.7237   -1.4956    2.5077 C.ar      1 <0>        -0.1888
     18 C14       -11.9048   -1.0581    3.0638 C.ar      1 <0>        -0.0739
     19 C15       -12.7150   -0.1689    2.3654 C.ar      1 <0>         0.0899
     20 C16       -12.3180    0.2766    1.0921 C.ar      1 <0>        -0.0749
     21 C17       -11.1152   -0.1698    0.5399 C.ar      1 <0>        -0.1066
     22 C18       -13.3708    1.1866    0.6345 C.2       1 <0>        -0.2335
     23 C19       -14.2961    1.2373    1.6058 C.2       1 <0>         0.0801
     24 N2        -13.9224    0.4342    2.6483 N.pl3     1 <0>        -0.4410
     25 C20       -14.6906    0.2428    3.8810 C.3       1 <0>         0.0316
     26 C21       -14.1844    1.1876    4.9402 C.2       1 <0>         0.4800
     27 O3        -13.2670    1.9502    4.6888 O.co2     1 <0>        -0.6709
     28 O4        -14.6923    1.1895    6.0486 O.co2     1 <0>        -0.6926
     29 C22        -4.2956   -4.5035   -1.6243 C.ar      1 <0>         0.0386
     30 C23        -3.0202   -4.8748   -1.1929 C.ar      1 <0>        -0.0896
     31 C24        -2.1813   -5.5638   -2.0438 C.ar      1 <0>        -0.0654
     32 C25        -2.6006   -5.8868   -3.3224 C.ar      1 <0>        -0.1796
     33 C26        -3.8627   -5.5217   -3.7565 C.ar      1 <0>        -0.0652
     34 C27        -4.7145   -4.8382   -2.9139 C.ar      1 <0>        -0.1045
     35 C28        -1.6782   -6.6393   -4.2464 C.3       1 <0>         0.5085
     36 F1         -1.8767   -8.0147   -4.0850 F         1 <0>        -0.1756
     37 F2         -1.9510   -6.2811   -5.5710 F         1 <0>        -0.1764
     38 F3         -0.3506   -6.3208   -3.9411 F         1 <0>        -0.1766
     39 H1          1.7006    0.5189   -0.8965 H         1 <0>         0.1006
     40 H2          0.9117   -0.9499   -1.5198 H         1 <0>         0.0566
     41 H3          0.1284    0.6355   -1.7230 H         1 <0>         0.0567
     42 H4         -1.1241   -1.0247   -1.9659 H         1 <0>         0.1315
     43 H5         -3.3252   -2.1193   -2.0252 H         1 <0>         0.1249
     44 H6         -3.6341   -1.7054    2.2305 H         1 <0>         0.1352
     45 H7         -1.4283   -0.6196    2.2789 H         1 <0>         0.1352
     46 H8         -8.9818   -3.3097    1.6895 H         1 <0>         0.0895
     47 H9         -8.1223   -1.9452    2.4431 H         1 <0>         0.0977
     48 H10       -10.0987   -2.1863    3.0541 H         1 <0>         0.1243
     49 H11       -12.2024   -1.4056    4.0421 H         1 <0>         0.1196
     50 H12       -10.8050    0.1734   -0.4360 H         1 <0>         0.1237
     51 H13       -13.3973    1.7169   -0.3060 H         1 <0>         0.1414
     52 H14       -15.2015    1.8250    1.5696 H         1 <0>         0.1610
     53 H15       -15.7442    0.4446    3.6875 H         1 <0>         0.0878
     54 H16       -14.5749   -0.7849    4.2254 H         1 <0>         0.0827
     55 H17        -2.6915   -4.6227   -0.1955 H         1 <0>         0.1392
     56 H18        -1.1948   -5.8516   -1.7116 H         1 <0>         0.1407
     57 H19        -4.1834   -5.7767   -4.7558 H         1 <0>         0.1415
     58 H20        -5.7012   -4.5584   -3.2522 H         1 <0>         0.1398
@<TRIPOS>BOND
     1    1    2 1
     2    1   39 1
     3    1   40 1
     4    1   41 1
     5    2    3 1
     6    3    8 ar
     7    3    4 ar
     8    4    5 ar
     9    4   42 1
    10    5    6 ar
    11    5   43 1
    12    6    7 ar
    13    6    9 1
    14    7    8 ar
    15    7   44 1
    16    8   45 1
    17    9   13 1
    18    9   10 2
    19   10   11 1
    20   10   29 1
    21   11   12 1
    22   12   13 2
    23   12   14 1
    24   14   15 1
    25   14   46 1
    26   14   47 1
    27   15   16 1
    28   16   21 ar
    29   16   17 ar
    30   17   18 ar
    31   17   48 1
    32   18   19 ar
    33   18   49 1
    34   19   24 1
    35   19   20 ar
    36   20   21 ar
    37   20   22 1
    38   21   50 1
    39   22   23 2
    40   22   51 1
    41   23   24 1
    42   23   52 1
    43   24   25 1
    44   25   26 1
    45   25   53 1
    46   25   54 1
    47   26   27 2
    48   26   28 1
    49   29   34 ar
    50   29   30 ar
    51   30   31 ar
    52   30   55 1
    53   31   32 ar
    54   31   56 1
    55   32   33 ar
    56   32   35 1
    57   33   34 ar
    58   33   57 1
    59   34   58 1
    60   35   36 1
    61   35   37 1
    62   35   38 1
@<TRIPOS>MOLECULE
CHEMBL205777
   61    63     0     0     0
SMALL
USER_CHARGES

@<TRIPOS>ATOM
      1 C1         -0.0187    1.5258    0.0104 C.3       1 <0>        -0.1592
      2 C2          0.0021   -0.0041    0.0020 C.3       1 <0>        -0.0844
      3 C3          0.7182   -0.4975   -1.2568 C.3       1 <0>        -0.1318
      4 C4          2.1536    0.0321   -1.2676 C.3       1 <0>        -0.1212
      5 C5          0.7390   -2.0273   -1.2652 C.3       1 <0>        -0.0524
      6 C6          1.4443   -2.5133   -2.5051 C.ar      1 <0>        -0.0835
      7 C7          0.7251   -2.7414   -3.6637 C.ar      1 <0>        -0.0006
      8 C8          1.3693   -3.1874   -4.8015 C.ar      1 <0>        -0.1537
      9 C9          2.7391   -3.4059   -4.7810 C.ar      1 <0>         0.1116
     10 C10         3.4586   -3.1759   -3.6174 C.ar      1 <0>        -0.2229
     11 C11         2.8105   -2.7250   -2.4837 C.ar      1 <0>        -0.0836
     12 O1          3.3751   -3.8450   -5.8989 O.3       1 <0>        -0.3176
     13 C12         4.7864   -4.0484   -5.8048 C.3       1 <0>         0.0672
     14 C13         5.3218   -4.5395   -7.1513 C.3       1 <0>        -0.1199
     15 C14         6.8329   -4.7571   -7.0506 C.3       1 <0>         0.0590
     16 O2          7.3329   -5.2158   -8.3082 O.3       1 <0>        -0.2931
     17 C15         8.6660   -5.4589   -8.3898 C.ar      1 <0>         0.1984
     18 C16         9.4740   -5.2625   -7.2713 C.ar      1 <0>        -0.2120
     19 C17        10.8158   -5.5020   -7.3374 C.ar      1 <0>        -0.0181
     20 C18        11.3845   -5.9483   -8.5359 C.ar      1 <0>        -0.1802
     21 C19        12.8210   -6.2140   -8.6360 C.2       1 <0>        -0.0561
     22 C20        13.3125   -6.6457   -9.8266 C.2       1 <0>        -0.1827
     23 C21        12.4418   -6.8251  -10.9211 C.2       1 <0>         0.5152
     24 O3         12.8955   -7.2127  -11.9829 O.2       1 <0>        -0.4404
     25 O4         11.1258   -6.5802  -10.8227 O.3       1 <0>        -0.2562
     26 C22        10.5736   -6.1488   -9.6685 C.ar      1 <0>         0.1920
     27 C23         9.2110   -5.9055   -9.5823 C.ar      1 <0>        -0.1329
     28 C24         8.3272   -6.1204  -10.7838 C.3       1 <0>        -0.1030
     29 C25        13.7297   -6.0135   -7.4506 C.3       1 <0>         0.5098
     30 F1         15.0429   -6.3354   -7.8098 F         1 <0>        -0.1655
     31 F2         13.6727   -4.6773   -7.0401 F         1 <0>        -0.1632
     32 F3         13.3169   -6.8417   -6.4013 F         1 <0>        -0.1636
     33 C26        -0.0107    0.0017   -2.4777 C.2       1 <0>         0.5024
     34 O5         -1.0102    0.6885   -2.3526 O.co2     1 <0>        -0.6937
     35 O6          0.3993   -0.2812   -3.5905 O.co2     1 <0>        -0.6801
     36 H1          1.0039    1.9031    0.0027 H         1 <0>         0.0360
     37 H2         -0.5459    1.8868   -0.8726 H         1 <0>         0.0954
     38 H3         -0.5289    1.8773    0.9072 H         1 <0>         0.0295
     39 H4          0.5293   -0.3651    0.8851 H         1 <0>         0.0330
     40 H5         -1.0205   -0.3814    0.0098 H         1 <0>         0.0536
     41 H6          2.6808   -0.3290   -0.3846 H         1 <0>         0.0330
     42 H7          2.6638   -0.3194   -2.1644 H         1 <0>         0.0586
     43 H8          2.1388    1.1220   -1.2617 H         1 <0>         0.0452
     44 H9          1.2661   -2.3884   -0.3821 H         1 <0>         0.0544
     45 H10        -0.2836   -2.4046   -1.2575 H         1 <0>         0.0597
     46 H11        -0.3413   -2.5711   -3.6791 H         1 <0>         0.1216
     47 H12         0.8069   -3.3660   -5.7060 H         1 <0>         0.1195
     48 H13         4.5251   -3.3453   -3.5989 H         1 <0>         0.1137
     49 H14         3.3708   -2.5416   -1.5789 H         1 <0>         0.1127
     50 H15         5.2721   -3.1087   -5.5415 H         1 <0>         0.0626
     51 H16         4.9958   -4.7932   -5.0370 H         1 <0>         0.0613
     52 H17         4.8361   -5.4791   -7.4146 H         1 <0>         0.0874
     53 H18         5.1124   -3.7946   -7.9191 H         1 <0>         0.0887
     54 H19         7.3186   -3.8175   -6.7873 H         1 <0>         0.0748
     55 H20         7.0423   -5.5020   -6.2828 H         1 <0>         0.0739
     56 H21         9.0354   -4.9182   -6.3464 H         1 <0>         0.1486
     57 H22        11.4371   -5.3474   -6.4676 H         1 <0>         0.1421
     58 H23        14.3674   -6.8507   -9.9346 H         1 <0>         0.1804
     59 H24         8.2737   -5.1997  -11.3648 H         1 <0>         0.0763
     60 H25         8.7419   -6.9166  -11.4021 H         1 <0>         0.0739
     61 H26         7.3269   -6.4004  -10.4536 H         1 <0>         0.0802
@<TRIPOS>BOND
     1    1    2 1
     2    1   36 1
     3    1   37 1
     4    1   38 1
     5    2    3 1
     6    2   39 1
     7    2   40 1
     8    3    4 1
     9    3    5 1
    10    3   33 1
    11    4   41 1
    12    4   42 1
    13    4   43 1
    14    5    6 1
    15    5   44 1
    16    5   45 1
    17    6   11 ar
    18    6    7 ar
    19    7    8 ar
    20    7   46 1
    21    8    9 ar
    22    8   47 1
    23    9   10 ar
    24    9   12 1
    25   10   11 ar
    26   10   48 1
    27   11   49 1
    28   12   13 1
    29   13   14 1
    30   13   50 1
    31   13   51 1
    32   14   15 1
    33   14   52 1
    34   14   53 1
    35   15   16 1
    36   15   54 1
    37   15   55 1
    38   16   17 1
    39   17   27 ar
    40   17   18 ar
    41   18   19 ar
    42   18   56 1
    43   19   20 ar
    44   19   57 1
    45   20   26 ar
    46   20   21 1
    47   21   22 2
    48   21   29 1
    49   22   23 1
    50   22   58 1
    51   23   24 2
    52   23   25 1
    53   25   26 1
    54   26   27 ar
    55   27   28 1
    56   28   59 1
    57   28   60 1
    58   28   61 1
    59   29   30 1
    60   29   31 1
    61   29   32 1
    62   33   34 2
    63   33   35 1
@<TRIPOS>MOLECULE
CHEMBL212591
   66    68     0     0     0
SMALL
USER_CHARGES

@<TRIPOS>ATOM
      1 C1          0.0568    1.4089    0.0171 C.3       1 <0>        -0.1481
      2 C2          0.0436   -0.1208   -0.0100 C.3       1 <0>        -0.0794
      3 C3         -1.3813   -0.6112    0.0039 C.ar      1 <0>        -0.1180
      4 C4         -2.0167   -0.8519    1.2083 C.ar      1 <0>        -0.0804
      5 C5         -3.3225   -1.3018    1.2238 C.ar      1 <0>        -0.2060
      6 C6         -3.9969   -1.5118    0.0295 C.ar      1 <0>         0.1358
      7 C7         -3.3574   -1.2693   -1.1773 C.ar      1 <0>        -0.1036
      8 C8         -2.0528   -0.8143   -1.1873 C.ar      1 <0>        -0.0744
      9 C9         -4.0869   -1.4964   -2.4763 C.3       1 <0>        -0.0316
     10 C10        -4.8914   -0.2698   -2.8218 C.ar      1 <0>        -0.0773
     11 C11        -6.1932   -0.1481   -2.3731 C.ar      1 <0>        -0.1086
     12 C12        -6.9312    0.9770   -2.6900 C.ar      1 <0>        -0.1151
     13 C13        -6.3672    1.9806   -3.4552 C.ar      1 <0>        -0.1201
     14 C14        -5.0650    1.8593   -3.9031 C.ar      1 <0>        -0.1206
     15 C15        -4.3257    0.7361   -3.5826 C.ar      1 <0>        -0.1183
     16 O1         -5.2816   -1.9549    0.0420 O.3       1 <0>        -0.3027
     17 C16        -5.8414   -2.2855    1.3145 C.3       1 <0>         0.0837
     18 C17        -5.4386   -3.7120    1.6938 C.3       1 <0>        -0.1762
     19 C18        -7.3666   -2.1886    1.2415 C.3       1 <0>        -0.1129
     20 C19        -7.7736   -0.7362    0.9853 C.3       1 <0>         0.0574
     21 O2         -9.1981   -0.6457    0.9170 O.3       1 <0>        -0.3183
     22 C20        -9.7281    0.5855    0.6929 C.ar      1 <0>         0.1143
     23 C21        -8.8939    1.6831    0.5361 C.ar      1 <0>        -0.2079
     24 C22        -9.4350    2.9333    0.3079 C.ar      1 <0>        -0.0782
     25 C23       -10.8068    3.0916    0.2358 C.ar      1 <0>        -0.0989
     26 C24       -11.6402    1.9996    0.3922 C.ar      1 <0>        -0.0461
     27 C25       -11.1037    0.7460    0.6149 C.ar      1 <0>        -0.1508
     28 C26       -13.1348    2.1758    0.3135 C.3       1 <0>        -0.1213
     29 C27       -11.3945    4.4567   -0.0132 C.3       1 <0>        -0.0564
     30 C28       -11.7561    5.1079    1.3233 C.3       1 <0>        -0.1754
     31 C29       -12.3437    6.4730    1.0742 C.2       1 <0>         0.4891
     32 O3        -12.4624    6.8868   -0.0665 O.co2     1 <0>        -0.6984
     33 O4        -12.7005    7.1637    2.0135 O.co2     1 <0>        -0.7069
     34 H1          1.0875    1.7636    0.0070 H         1 <0>         0.0562
     35 H2         -0.4680    1.7923   -0.8579 H         1 <0>         0.0559
     36 H3         -0.4396    1.7605    0.9215 H         1 <0>         0.0550
     37 H4          0.5401   -0.4725   -0.9145 H         1 <0>         0.0692
     38 H5          0.5684   -0.5043    0.8650 H         1 <0>         0.0687
     39 H6         -1.4914   -0.6882    2.1376 H         1 <0>         0.1216
     40 H7         -3.8181   -1.4903    2.1646 H         1 <0>         0.1288
     41 H8         -1.5558   -0.6214   -2.1266 H         1 <0>         0.1255
     42 H9         -3.3648   -1.6925   -3.2690 H         1 <0>         0.0778
     43 H10        -4.7546   -2.3518   -2.3733 H         1 <0>         0.0841
     44 H11        -6.6338   -0.9322   -1.7752 H         1 <0>         0.1242
     45 H12        -7.9485    1.0717   -2.3400 H         1 <0>         0.1213
     46 H13        -6.9440    2.8593   -3.7034 H         1 <0>         0.1211
     47 H14        -4.6245    2.6432   -4.5013 H         1 <0>         0.1189
     48 H15        -3.3071    0.6431   -3.9295 H         1 <0>         0.1163
     49 H16        -5.4688   -1.5905    2.0670 H         1 <0>         0.0770
     50 H17        -4.3520   -3.7810    1.7459 H         1 <0>         0.0645
     51 H18        -5.8656   -3.9642    2.6645 H         1 <0>         0.0737
     52 H19        -5.8111   -4.4070    0.9413 H         1 <0>         0.0697
     53 H20        -7.7321   -2.8171    0.4293 H         1 <0>         0.0866
     54 H21        -7.7976   -2.5259    2.1841 H         1 <0>         0.0939
     55 H22        -7.4081   -0.1078    1.7974 H         1 <0>         0.0568
     56 H23        -7.3425   -0.3989    0.0426 H         1 <0>         0.0708
     57 H24        -7.8224    1.5600    0.5927 H         1 <0>         0.1199
     58 H25        -8.7861    3.7880    0.1861 H         1 <0>         0.1221
     59 H26       -11.7549   -0.1075    0.7325 H         1 <0>         0.1244
     60 H27       -13.4618    2.0478   -0.7184 H         1 <0>         0.0712
     61 H28       -13.6220    1.4320    0.9439 H         1 <0>         0.0630
     62 H29       -13.4015    3.1750    0.6579 H         1 <0>         0.0808
     63 H30       -10.6649    5.0769   -0.5339 H         1 <0>         0.0675
     64 H31       -12.2916    4.3601   -0.6248 H         1 <0>         0.0718
     65 H32       -12.4857    4.4877    1.8439 H         1 <0>         0.0577
     66 H33       -10.8590    5.2045    1.9348 H         1 <0>         0.0553
@<TRIPOS>BOND
     1    1    2 1
     2    1   34 1
     3    1   35 1
     4    1   36 1
     5    2    3 1
     6    2   37 1
     7    2   38 1
     8    3    8 ar
     9    3    4 ar
    10    4    5 ar
    11    4   39 1
    12    5    6 ar
    13    5   40 1
    14    6    7 ar
    15    6   16 1
    16    7    8 ar
    17    7    9 1
    18    8   41 1
    19    9   10 1
    20    9   42 1
    21    9   43 1
    22   10   15 ar
    23   10   11 ar
    24   11   12 ar
    25   11   44 1
    26   12   13 ar
    27   12   45 1
    28   13   14 ar
    29   13   46 1
    30   14   15 ar
    31   14   47 1
    32   15   48 1
    33   16   17 1
    34   17   18 1
    35   17   19 1
    36   17   49 1
    37   18   50 1
    38   18   51 1
    39   18   52 1
    40   19   20 1
    41   19   53 1
    42   19   54 1
    43   20   21 1
    44   20   55 1
    45   20   56 1
    46   21   22 1
    47   22   27 ar
    48   22   23 ar
    49   23   24 ar
    50   23   57 1
    51   24   25 ar
    52   24   58 1
    53   25   26 ar
    54   25   29 1
    55   26   27 ar
    56   26   28 1
    57   27   59 1
    58   28   60 1
    59   28   61 1
    60   28   62 1
    61   29   30 1
    62   29   63 1
    63   29   64 1
    64   30   31 1
    65   30   65 1
    66   30   66 1
    67   31   32 2
    68   31   33 1
@<TRIPOS>MOLECULE
CHEMBL212591__1
   66    68     0     0     0
SMALL
USER_CHARGES

@<TRIPOS>ATOM
      1 C1         -0.6295    2.3067   -0.0658 C.3       1 <0>        -0.1467
      2 C2         -0.3705    0.8030    0.0478 C.3       1 <0>        -0.0806
      3 C3         -1.6847    0.0654    0.0462 C.ar      1 <0>        -0.1174
      4 C4         -2.3369   -0.1854    1.2395 C.ar      1 <0>        -0.0811
      5 C5         -3.5413   -0.8616    1.2408 C.ar      1 <0>        -0.2056
      6 C6         -4.0969   -1.2890    0.0434 C.ar      1 <0>         0.1356
      7 C7         -3.4409   -1.0358   -1.1523 C.ar      1 <0>        -0.1028
      8 C8         -2.2390   -0.3544   -1.1487 C.ar      1 <0>        -0.0742
      9 C9         -4.0415   -1.4986   -2.4547 C.3       1 <0>        -0.0357
     10 C10        -5.0285   -0.4711   -2.9459 C.ar      1 <0>        -0.0714
     11 C11        -6.3553   -0.5505   -2.5662 C.ar      1 <0>        -0.1040
     12 C12        -7.2607    0.3919   -3.0168 C.ar      1 <0>        -0.1216
     13 C13        -6.8392    1.4140   -3.8466 C.ar      1 <0>        -0.1262
     14 C14        -5.5122    1.4938   -4.2256 C.ar      1 <0>        -0.1223
     15 C15        -4.6060    0.5539   -3.7715 C.ar      1 <0>        -0.1158
     16 O1         -5.2816   -1.9549    0.0420 O.3       1 <0>        -0.3025
     17 C16        -5.8414   -2.2855    1.3145 C.3       1 <0>         0.0858
     18 C17        -6.6438   -1.0951    1.8436 C.3       1 <0>        -0.1776
     19 C18        -6.7639   -3.4971    1.1666 C.3       1 <0>        -0.1128
     20 C19        -5.9393   -4.7191    0.7573 C.3       1 <0>         0.0615
     21 O2         -6.8010   -5.8507    0.6191 O.3       1 <0>        -0.3188
     22 C20        -6.2226   -7.0261    0.2573 C.ar      1 <0>         0.1140
     23 C21        -4.8529   -7.0903    0.0453 C.ar      1 <0>        -0.2098
     24 C22        -4.2674   -8.2862   -0.3219 C.ar      1 <0>        -0.0790
     25 C23        -5.0452   -9.4189   -0.4783 C.ar      1 <0>        -0.0994
     26 C24        -6.4101   -9.3574   -0.2681 C.ar      1 <0>        -0.0461
     27 C25        -6.9998   -8.1649    0.1049 C.ar      1 <0>        -0.1507
     28 C26        -7.2548  -10.5936   -0.4399 C.3       1 <0>        -0.1212
     29 C27        -4.4037  -10.7224   -0.8790 C.3       1 <0>        -0.0566
     30 C28        -4.4981  -10.8919   -2.3967 C.3       1 <0>        -0.1756
     31 C29        -3.8566  -12.1953   -2.7974 C.2       1 <0>         0.4892
     32 O3         -3.3692  -12.9215   -1.9478 O.co2     1 <0>        -0.6988
     33 O4         -3.8251  -12.5238   -3.9711 O.co2     1 <0>        -0.7066
     34 H1          0.3210    2.8401   -0.0647 H         1 <0>         0.0560
     35 H2         -1.1617    2.5145   -0.9941 H         1 <0>         0.0550
     36 H3         -1.2323    2.6365    0.7803 H         1 <0>         0.0538
     37 H4          0.2322    0.4732   -0.7983 H         1 <0>         0.0704
     38 H5          0.1617    0.5951    0.9761 H         1 <0>         0.0695
     39 H6         -1.9041    0.1475    2.1713 H         1 <0>         0.1215
     40 H7         -4.0500   -1.0578    2.1731 H         1 <0>         0.1288
     41 H8         -1.7298   -0.1534   -2.0797 H         1 <0>         0.1259
     42 H9         -3.2511   -1.6258   -3.1944 H         1 <0>         0.0803
     43 H10        -4.5524   -2.4492   -2.3017 H         1 <0>         0.0866
     44 H11        -6.6847   -1.3490   -1.9179 H         1 <0>         0.1266
     45 H12        -8.2975    0.3295   -2.7207 H         1 <0>         0.1188
     46 H13        -7.5467    2.1498   -4.1992 H         1 <0>         0.1177
     47 H14        -5.1829    2.2921   -4.8742 H         1 <0>         0.1186
     48 H15        -3.5685    0.6184   -4.0646 H         1 <0>         0.1183
     49 H16        -5.0395   -2.5227    2.0137 H         1 <0>         0.0762
     50 H17        -7.0708   -1.3473    2.8142 H         1 <0>         0.0734
     51 H18        -5.9865   -0.2320    1.9490 H         1 <0>         0.0651
     52 H19        -7.4457   -0.8579    1.1444 H         1 <0>         0.0700
     53 H20        -7.2593   -3.6948    2.1172 H         1 <0>         0.0935
     54 H21        -7.5134   -3.2919    0.4022 H         1 <0>         0.0865
     55 H22        -5.4440   -4.5214   -0.1933 H         1 <0>         0.0673
     56 H23        -5.1899   -4.9243    1.5218 H         1 <0>         0.0574
     57 H24        -4.2451   -6.2059    0.1670 H         1 <0>         0.1205
     58 H25        -3.2013   -8.3366   -0.4874 H         1 <0>         0.1231
     59 H26        -8.0656   -8.1184    0.2734 H         1 <0>         0.1249
     60 H27        -7.3165  -11.1262    0.5091 H         1 <0>         0.0713
     61 H28        -8.2561  -10.3076   -0.7618 H         1 <0>         0.0633
     62 H29        -6.8027  -11.2410   -1.1912 H         1 <0>         0.0811
     63 H30        -3.3561  -10.7194   -0.5782 H         1 <0>         0.0677
     64 H31        -4.9203  -11.5474   -0.3885 H         1 <0>         0.0720
     65 H32        -5.5457  -10.8949   -2.6975 H         1 <0>         0.0579
     66 H33        -3.9815  -10.0668   -2.8872 H         1 <0>         0.0557
@<TRIPOS>BOND
     1    1    2 1
     2    1   34 1
     3    1   35 1
     4    1   36 1
     5    2    3 1
     6    2   37 1
     7    2   38 1
     8    3    8 ar
     9    3    4 ar
    10    4    5 ar
    11    4   39 1
    12    5    6 ar
    13    5   40 1
    14    6    7 ar
    15    6   16 1
    16    7    8 ar
    17    7    9 1
    18    8   41 1
    19    9   10 1
    20    9   42 1
    21    9   43 1
    22   10   15 ar
    23   10   11 ar
    24   11   12 ar
    25   11   44 1
    26   12   13 ar
    27   12   45 1
    28   13   14 ar
    29   13   46 1
    30   14   15 ar
    31   14   47 1
    32   15   48 1
    33   16   17 1
    34   17   18 1
    35   17   19 1
    36   17   49 1
    37   18   50 1
    38   18   51 1
    39   18   52 1
    40   19   20 1
    41   19   53 1
    42   19   54 1
    43   20   21 1
    44   20   55 1
    45   20   56 1
    46   21   22 1
    47   22   27 ar
    48   22   23 ar
    49   23   24 ar
    50   23   57 1
    51   24   25 ar
    52   24   58 1
    53   25   26 ar
    54   25   29 1
    55   26   27 ar
    56   26   28 1
    57   27   59 1
    58   28   60 1
    59   28   61 1
    60   28   62 1
    61   29   30 1
    62   29   63 1
    63   29   64 1
    64   30   31 1
    65   30   65 1
    66   30   66 1
    67   31   32 2
    68   31   33 1
@<TRIPOS>MOLECULE
CHEMBL360992
   50    52     0     0     0
SMALL
USER_CHARGES

@<TRIPOS>ATOM
      1 C1         -0.0187    1.5258    0.0104 C.3       1 <0>        -0.1535
      2 C2          0.0021   -0.0041    0.0020 C.3       1 <0>         0.0456
      3 C3         -1.4346   -0.5404    0.0397 C.3       1 <0>        -0.1325
      4 C4         -2.1423    0.0658    1.2540 C.3       1 <0>        -0.0715
      5 C5         -1.2689   -0.0778    2.4748 C.ar      1 <0>        -0.1981
      6 C6         -1.8483    0.0527    3.7266 C.ar      1 <0>        -0.0469
      7 C7         -1.0809   -0.0688    4.8672 C.ar      1 <0>        -0.2540
      8 C8          0.2797   -0.3223    4.7625 C.ar      1 <0>         0.1557
      9 C9          0.8618   -0.4546    3.5133 C.ar      1 <0>        -0.1921
     10 C10         0.0869   -0.3346    2.3649 C.ar      1 <0>         0.1874
     11 O1          0.6920   -0.4821    1.1575 O.3       1 <0>        -0.2742
     12 O2          1.0386   -0.4409    5.8836 O.3       1 <0>        -0.3111
     13 C11         0.3703   -0.2931    7.1381 C.3       1 <0>         0.0671
     14 C12         1.3796   -0.4576    8.2761 C.3       1 <0>        -0.1208
     15 C13         0.6642   -0.2993    9.6192 C.3       1 <0>         0.0612
     16 O3          1.6069   -0.4530   10.6821 O.3       1 <0>        -0.2947
     17 C14         1.1305   -0.3404   11.9510 C.ar      1 <0>         0.1317
     18 C15        -0.2169   -0.0930   12.1665 C.ar      1 <0>        -0.1624
     19 C16        -0.7010    0.0209   13.4552 C.ar      1 <0>        -0.0743
     20 C17         0.1603   -0.1115   14.5344 C.ar      1 <0>         0.0767
     21 C18         1.5079   -0.3589   14.3199 C.ar      1 <0>        -0.1446
     22 C19         1.9917   -0.4787   13.0305 C.ar      1 <0>        -0.0331
     23 Cl1         3.6772   -0.7955   12.7614 Cl        1 <0>        -0.0356
     24 O4         -0.3166    0.0016   15.8028 O.3       1 <0>        -0.3054
     25 C20         0.6266   -0.1459   16.8661 C.3       1 <0>         0.6027
     26 F1          1.6186    0.8335   16.7488 F         1 <0>        -0.1636
     27 F2         -0.0284   -0.0015   18.0938 F         1 <0>        -0.1294
     28 F3          1.2129   -1.4142   16.7967 F         1 <0>        -0.1636
     29 C21         0.6955   -0.4953   -1.2425 C.2       1 <0>         0.5158
     30 O5          1.6969   -1.1847   -1.1506 O.co2     1 <0>        -0.6698
     31 O6          0.2551   -0.2034   -2.3413 O.co2     1 <0>        -0.6805
     32 H1          1.0039    1.9031    0.0027 H         1 <0>         0.0572
     33 H2         -0.5459    1.8868   -0.8726 H         1 <0>         0.0749
     34 H3         -0.5289    1.8773    0.9072 H         1 <0>         0.0504
     35 H4         -1.9582   -0.2529   -0.8721 H         1 <0>         0.0876
     36 H5         -1.4190   -1.6267    0.1280 H         1 <0>         0.0680
     37 H6         -2.3376    1.1223    1.0700 H         1 <0>         0.0735
     38 H7         -3.0862   -0.4533    1.4203 H         1 <0>         0.0721
     39 H8         -2.9067    0.2504    3.8102 H         1 <0>         0.1217
     40 H9         -1.5386    0.0336    5.8400 H         1 <0>         0.1217
     41 H10         1.9205   -0.6513    3.4305 H         1 <0>         0.1364
     42 H11        -0.0823    0.6969    7.1942 H         1 <0>         0.0648
     43 H12        -0.4058   -1.0531    7.2280 H         1 <0>         0.0649
     44 H13         1.8323   -1.4476    8.2200 H         1 <0>         0.0891
     45 H14         2.1558    0.3024    8.1861 H         1 <0>         0.0889
     46 H15         0.2115    0.6906    9.6753 H         1 <0>         0.0713
     47 H16        -0.1120   -1.0593    9.7092 H         1 <0>         0.0713
     48 H17        -0.8878    0.0109   11.3265 H         1 <0>         0.1541
     49 H18        -1.7505    0.2135   13.6226 H         1 <0>         0.1501
     50 H19         2.1785   -0.4620   15.1602 H         1 <0>         0.1499
@<TRIPOS>BOND
     1    1    2 1
     2    1   32 1
     3    1   33 1
     4    1   34 1
     5    2   11 1
     6    2    3 1
     7    2   29 1
     8    3    4 1
     9    3   35 1
    10    3   36 1
    11    4    5 1
    12    4   37 1
    13    4   38 1
    14    5   10 ar
    15    5    6 ar
    16    6    7 ar
    17    6   39 1
    18    7    8 ar
    19    7   40 1
    20    8    9 ar
    21    8   12 1
    22    9   10 ar
    23    9   41 1
    24   10   11 1
    25   12   13 1
    26   13   14 1
    27   13   42 1
    28   13   43 1
    29   14   15 1
    30   14   44 1
    31   14   45 1
    32   15   16 1
    33   15   46 1
    34   15   47 1
    35   16   17 1
    36   17   22 ar
    37   17   18 ar
    38   18   19 ar
    39   18   48 1
    40   19   20 ar
    41   19   49 1
    42   20   21 ar
    43   20   24 1
    44   21   22 ar
    45   21   50 1
    46   22   23 1
    47   24   25 1
    48   25   26 1
    49   25   27 1
    50   25   28 1
    51   29   30 2
    52   29   31 1
@<TRIPOS>MOLECULE
CHEMBL208567
   53    56     0     0     0
SMALL
USER_CHARGES

@<TRIPOS>ATOM
      1 C1         -0.0187    1.5258    0.0104 C.3       1 <0>        -0.1528
      2 C2          0.0021   -0.0041    0.0020 C.3       1 <0>        -0.1163
      3 C3          0.7421   -0.5109    1.2415 C.3       1 <0>        -0.0713
      4 C4          0.7625   -2.0177    1.2333 C.ar      1 <0>        -0.1211
      5 C5         -0.2618   -2.7295    1.8327 C.ar      1 <0>         0.2021
      6 C6         -0.2503   -4.1223    1.8294 C.ar      1 <0>        -0.2161
      7 C7          0.7717   -4.8044    1.2346 C.ar      1 <0>         0.0008
      8 C8          1.8143   -4.1024    0.6239 C.ar      1 <0>        -0.2135
      9 C9          1.8057   -2.6968    0.6194 C.ar      1 <0>         0.1311
     10 O1          2.9142   -2.2956   -0.0353 O.3       1 <0>        -0.0553
     11 N1          3.6416   -3.4301   -0.4619 N.2       1 <0>        -0.2259
     12 C10         3.0298   -4.5107   -0.0846 C.2       1 <0>         0.0477
     13 C11         3.4787   -5.9260   -0.3428 C.3       1 <0>         0.5558
     14 F1          2.9526   -6.3671   -1.5617 F         1 <0>        -0.1561
     15 F2          4.8760   -5.9698   -0.3949 F         1 <0>        -0.1566
     16 F3          3.0242   -6.7548    0.6885 F         1 <0>        -0.1551
     17 O2         -1.2855   -2.0651    2.4291 O.3       1 <0>        -0.2923
     18 C12        -2.3113   -2.8583    3.0296 C.3       1 <0>         0.0611
     19 C13        -3.3699   -1.9415    3.6458 C.3       1 <0>        -0.1428
     20 C14        -4.4682   -2.7907    4.2888 C.3       1 <0>         0.1452
     21 N2         -5.4818   -1.9128    4.8788 N.pl3     1 <0>        -0.4045
     22 C15        -5.4928   -1.4136    6.1595 C.ar      1 <0>         0.0790
     23 C16        -4.6430   -1.5396    7.2533 C.ar      1 <0>        -0.1340
     24 C17        -4.9415   -0.8988    8.4229 C.ar      1 <0>        -0.0429
     25 C18        -6.0879   -0.1218    8.5304 C.ar      1 <0>        -0.0347
     26 C19        -6.9376    0.0178    7.4725 C.ar      1 <0>        -0.0404
     27 C20        -6.6542   -0.6284    6.2617 C.ar      1 <0>        -0.0082
     28 N3         -7.2878   -0.6782    5.0730 N.2       1 <0>        -0.2174
     29 N4         -6.6291   -1.4114    4.2462 N.2       1 <0>        -0.0270
     30 C21        -6.3966    0.5744    9.8308 C.3       1 <0>        -0.1569
     31 C22        -5.7691    1.9445    9.8284 C.2       1 <0>         0.4959
     32 O3         -5.1303    2.3207    8.8605 O.co2     1 <0>        -0.6869
     33 O4         -5.9001    2.6768   10.7944 O.co2     1 <0>        -0.6999
     34 H1          1.0039    1.9031    0.0027 H         1 <0>         0.0546
     35 H2         -0.5459    1.8868   -0.8726 H         1 <0>         0.0553
     36 H3         -0.5289    1.8773    0.9072 H         1 <0>         0.0582
     37 H4         -1.0205   -0.3814    0.0098 H         1 <0>         0.0648
     38 H5          0.5123   -0.3556   -0.8948 H         1 <0>         0.0589
     39 H6          1.7647   -0.1336    1.2338 H         1 <0>         0.0759
     40 H7          0.2319   -0.1594    2.1383 H         1 <0>         0.0871
     41 H8         -1.0553   -4.6663    2.3009 H         1 <0>         0.1488
     42 H9          0.7747   -5.8844    1.2363 H         1 <0>         0.1445
     43 H10        -2.7742   -3.4889    2.2706 H         1 <0>         0.0745
     44 H11        -1.8767   -3.4858    3.8077 H         1 <0>         0.0743
     45 H12        -2.9070   -1.3108    4.4049 H         1 <0>         0.0881
     46 H13        -3.8045   -1.3139    2.8677 H         1 <0>         0.0889
     47 H14        -4.9311   -3.4213    3.5298 H         1 <0>         0.1018
     48 H15        -4.0336   -3.4182    5.0669 H         1 <0>         0.0975
     49 H16        -3.7499   -2.1423    7.1786 H         1 <0>         0.1245
     50 H17        -4.2805   -0.9978    9.2713 H         1 <0>         0.1325
     51 H18        -7.8261    0.6243    7.5678 H         1 <0>         0.1317
     52 H19        -7.4765    0.6696    9.9445 H         1 <0>         0.0737
     53 H20        -5.9940   -0.0082   10.6594 H         1 <0>         0.0734
@<TRIPOS>BOND
     1    1    2 1
     2    1   34 1
     3    1   35 1
     4    1   36 1
     5    2    3 1
     6    2   37 1
     7    2   38 1
     8    3    4 1
     9    3   39 1
    10    3   40 1
    11    4    9 ar
    12    4    5 ar
    13    5    6 ar
    14    5   17 1
    15    6    7 ar
    16    6   41 1
    17    7    8 ar
    18    7   42 1
    19    8   12 1
    20    8    9 ar
    21    9   10 1
    22   10   11 1
    23   11   12 2
    24   12   13 1
    25   13   14 1
    26   13   15 1
    27   13   16 1
    28   17   18 1
    29   18   19 1
    30   18   43 1
    31   18   44 1
    32   19   20 1
    33   19   45 1
    34   19   46 1
    35   20   21 1
    36   20   47 1
    37   20   48 1
    38   21   29 1
    39   21   22 1
    40   22   27 ar
    41   22   23 ar
    42   23   24 ar
    43   23   49 1
    44   24   25 ar
    45   24   50 1
    46   25   26 ar
    47   25   30 1
    48   26   27 ar
    49   26   51 1
    50   27   28 1
    51   28   29 2
    52   30   31 1
    53   30   52 1
    54   30   53 1
    55   31   32 2
    56   31   33 1
@<TRIPOS>MOLECULE
CHEMBL210917
   54    57     0     0     0
SMALL
USER_CHARGES

@<TRIPOS>ATOM
      1 C1         -0.0187    1.5258    0.0104 C.3       1 <0>        -0.1526
      2 C2          0.0021   -0.0041    0.0020 C.3       1 <0>        -0.1162
      3 C3          0.7421   -0.5109    1.2415 C.3       1 <0>        -0.0711
      4 C4          0.7625   -2.0177    1.2333 C.ar      1 <0>        -0.1221
      5 C5         -0.2618   -2.7295    1.8327 C.ar      1 <0>         0.2028
      6 C6         -0.2503   -4.1223    1.8294 C.ar      1 <0>        -0.2162
      7 C7          0.7717   -4.8044    1.2346 C.ar      1 <0>         0.0007
      8 C8          1.8143   -4.1024    0.6239 C.ar      1 <0>        -0.2143
      9 C9          1.8057   -2.6968    0.6194 C.ar      1 <0>         0.1312
     10 O1          2.9142   -2.2956   -0.0353 O.3       1 <0>        -0.0555
     11 N1          3.6416   -3.4301   -0.4619 N.2       1 <0>        -0.2266
     12 C10         3.0298   -4.5107   -0.0846 C.2       1 <0>         0.0478
     13 C11         3.4787   -5.9260   -0.3428 C.3       1 <0>         0.5558
     14 F1          2.9526   -6.3671   -1.5617 F         1 <0>        -0.1562
     15 F2          4.8760   -5.9698   -0.3949 F         1 <0>        -0.1567
     16 F3          3.0242   -6.7548    0.6885 F         1 <0>        -0.1551
     17 O2         -1.2855   -2.0651    2.4291 O.3       1 <0>        -0.2924
     18 C12        -2.3113   -2.8583    3.0296 C.3       1 <0>         0.0606
     19 C13        -3.3699   -1.9415    3.6458 C.3       1 <0>        -0.1424
     20 C14        -4.4682   -2.7907    4.2888 C.3       1 <0>         0.1549
     21 N2         -5.4818   -1.9128    4.8788 N.pl3     1 <0>        -0.4148
     22 C15        -5.4663   -1.4301    6.1613 C.ar      1 <0>         0.1132
     23 C16        -4.5942   -1.5777    7.2373 C.ar      1 <0>        -0.1473
     24 C17        -4.8623   -0.9505    8.4207 C.ar      1 <0>        -0.0524
     25 C18        -5.9981   -0.1634    8.5679 C.ar      1 <0>        -0.0551
     26 C19        -6.8705   -0.0010    7.5312 C.ar      1 <0>        -0.0441
     27 C20        -6.6177   -0.6329    6.3084 C.ar      1 <0>        -0.1720
     28 C21        -7.3138   -0.6775    5.0266 C.2       1 <0>         0.0759
     29 N3         -6.6175   -1.4282    4.2217 N.2       1 <0>        -0.2650
     30 C22        -6.2691    0.5170    9.8849 C.3       1 <0>        -0.1544
     31 C23        -5.6279    1.8808    9.8871 C.2       1 <0>         0.4949
     32 O3         -5.0084    2.2647    8.9098 O.co2     1 <0>        -0.6871
     33 O4         -5.7288    2.6002   10.8663 O.co2     1 <0>        -0.7036
     34 H1          1.0039    1.9031    0.0027 H         1 <0>         0.0545
     35 H2         -0.5459    1.8868   -0.8726 H         1 <0>         0.0550
     36 H3         -0.5289    1.8773    0.9072 H         1 <0>         0.0583
     37 H4         -1.0205   -0.3814    0.0098 H         1 <0>         0.0647
     38 H5          0.5123   -0.3556   -0.8948 H         1 <0>         0.0587
     39 H6          1.7647   -0.1336    1.2338 H         1 <0>         0.0757
     40 H7          0.2319   -0.1594    2.1383 H         1 <0>         0.0872
     41 H8         -1.0553   -4.6663    2.3009 H         1 <0>         0.1487
     42 H9          0.7747   -5.8844    1.2363 H         1 <0>         0.1442
     43 H10        -2.7742   -3.4889    2.2706 H         1 <0>         0.0726
     44 H11        -1.8767   -3.4858    3.8077 H         1 <0>         0.0728
     45 H12        -2.9070   -1.3108    4.4049 H         1 <0>         0.0853
     46 H13        -3.8045   -1.3139    2.8677 H         1 <0>         0.0854
     47 H14        -4.9311   -3.4213    3.5298 H         1 <0>         0.0918
     48 H15        -4.0336   -3.4182    5.0669 H         1 <0>         0.0898
     49 H16        -3.7082   -2.1869    7.1362 H         1 <0>         0.1162
     50 H17        -4.1835   -1.0681    9.2524 H         1 <0>         0.1230
     51 H18        -7.7514    0.6118    7.6538 H         1 <0>         0.1214
     52 H19        -8.2389   -0.1744    4.7870 H         1 <0>         0.1924
     53 H20        -7.3449    0.6210   10.0256 H         1 <0>         0.0691
     54 H21        -5.8529   -0.0814   10.6954 H         1 <0>         0.0684
@<TRIPOS>BOND
     1    1    2 1
     2    1   34 1
     3    1   35 1
     4    1   36 1
     5    2    3 1
     6    2   37 1
     7    2   38 1
     8    3    4 1
     9    3   39 1
    10    3   40 1
    11    4    9 ar
    12    4    5 ar
    13    5    6 ar
    14    5   17 1
    15    6    7 ar
    16    6   41 1
    17    7    8 ar
    18    7   42 1
    19    8   12 1
    20    8    9 ar
    21    9   10 1
    22   10   11 1
    23   11   12 2
    24   12   13 1
    25   13   14 1
    26   13   15 1
    27   13   16 1
    28   17   18 1
    29   18   19 1
    30   18   43 1
    31   18   44 1
    32   19   20 1
    33   19   45 1
    34   19   46 1
    35   20   21 1
    36   20   47 1
    37   20   48 1
    38   21   29 1
    39   21   22 1
    40   22   27 ar
    41   22   23 ar
    42   23   24 ar
    43   23   49 1
    44   24   25 ar
    45   24   50 1
    46   25   26 ar
    47   25   30 1
    48   26   27 ar
    49   26   51 1
    50   27   28 1
    51   28   29 2
    52   28   52 1
    53   30   31 1
    54   30   53 1
    55   30   54 1
    56   31   32 2
    57   31   33 1
@<TRIPOS>MOLECULE
CHEMBL400024
   59    61     0     0     0
SMALL
USER_CHARGES

@<TRIPOS>ATOM
      1 C1         -0.0025    1.4958    0.2721 C.3       1 <0>        -0.1501
      2 C2          0.0042   -0.0100    0.0011 C.3       1 <0>        -0.0796
      3 C3         -1.4106   -0.5287    0.0122 C.ar      1 <0>        -0.1204
      4 C4         -1.9730   -0.9723    1.1967 C.ar      1 <0>        -0.0539
      5 C5         -3.2696   -1.4500    1.2184 C.ar      1 <0>        -0.2121
      6 C6         -4.0156   -1.4870    0.0514 C.ar      1 <0>         0.1763
      7 C7         -3.4506   -1.0387   -1.1486 C.ar      1 <0>        -0.0521
      8 C8         -2.1421   -0.5541   -1.1570 C.ar      1 <0>        -0.0505
      9 C9         -4.2376   -1.0738   -2.3989 C.2       1 <0>         0.1678
     10 N1         -5.4833   -1.4821   -2.5979 N.2       1 <0>        -0.4765
     11 C10        -6.0307   -1.4426   -3.7906 C.2       1 <0>         0.0314
     12 C11        -5.3165   -0.9763   -4.8486 C.2       1 <0>        -0.2035
     13 S1         -3.7691   -0.5700   -4.0492 S.3       1 <0>        -0.0134
     14 O1         -5.2899   -1.9566    0.0714 O.3       1 <0>        -0.2730
     15 C12        -5.8406   -2.2839    1.3488 C.3       1 <0>         0.0807
     16 H1         -5.4624   -1.5871    2.0968 H         1 <0>         0.0770
     17 C13        -5.4355   -3.7095    1.7287 C.3       1 <0>        -0.1778
     18 C14        -7.3663   -2.1867    1.2864 C.3       1 <0>        -0.1098
     19 C15        -7.7747   -0.7348    1.0295 C.3       1 <0>         0.0621
     20 O2         -9.1996   -0.6440    0.9712 O.3       1 <0>        -0.3183
     21 C16        -9.7308    0.5868    0.7478 C.ar      1 <0>         0.1160
     22 C17        -8.8974    1.6837    0.5823 C.ar      1 <0>        -0.2092
     23 C18        -9.4398    2.9335    0.3549 C.ar      1 <0>        -0.0792
     24 C19       -10.8121    3.0921    0.2922 C.ar      1 <0>        -0.1002
     25 C20       -11.6446    2.0008    0.4573 C.ar      1 <0>        -0.0464
     26 C21       -11.1069    0.7476    0.6793 C.ar      1 <0>        -0.1512
     27 C22       -13.1397    2.1772    0.3888 C.3       1 <0>        -0.1207
     28 C23       -11.4011    4.4568    0.0440 C.3       1 <0>        -0.0563
     29 C24       -11.7529    5.1114    1.3814 C.3       1 <0>        -0.1753
     30 C25       -12.3419    6.4761    1.1332 C.2       1 <0>         0.4892
     31 O3        -12.4686    6.8871   -0.0076 O.co2     1 <0>        -0.6985
     32 O4        -12.6918    7.1692    2.0732 O.co2     1 <0>        -0.7070
     33 H2          1.0209    1.8710    0.2641 H         1 <0>         0.0583
     34 H3         -0.5809    2.0016   -0.5010 H         1 <0>         0.0568
     35 H4         -0.4522    1.6877    1.2463 H         1 <0>         0.0566
     36 H5          0.4539   -0.2018   -0.9731 H         1 <0>         0.0721
     37 H6          0.5827   -0.5157    0.7742 H         1 <0>         0.0731
     38 H7         -1.3952   -0.9454    2.1088 H         1 <0>         0.1303
     39 H8         -3.7017   -1.7952    2.1460 H         1 <0>         0.1386
     40 H9         -1.7013   -0.2033   -2.0784 H         1 <0>         0.1322
     41 H10        -7.0469   -1.7804   -3.9307 H         1 <0>         0.1674
     42 H11        -5.6051   -0.8748   -5.8844 H         1 <0>         0.1979
     43 H12        -4.3486   -3.7788    1.7731 H         1 <0>         0.0651
     44 H13        -5.8556   -3.9592    2.7030 H         1 <0>         0.0750
     45 H14        -5.8137   -4.4063    0.9806 H         1 <0>         0.0710
     46 H15        -7.7378   -2.8170    0.4785 H         1 <0>         0.0880
     47 H16        -7.7907   -2.5215    2.2329 H         1 <0>         0.0929
     48 H17        -7.4032   -0.1044    1.8374 H         1 <0>         0.0556
     49 H18        -7.3503   -0.4000    0.0829 H         1 <0>         0.0698
     50 H19        -7.8256    1.5605    0.6315 H         1 <0>         0.1195
     51 H20        -8.7915    3.7877    0.2263 H         1 <0>         0.1223
     52 H21       -11.7575   -0.1054    0.8037 H         1 <0>         0.1248
     53 H22       -13.4742    2.0468   -0.6403 H         1 <0>         0.0710
     54 H23       -13.6226    1.4352    1.0247 H         1 <0>         0.0631
     55 H24       -13.4036    3.1773    0.7327 H         1 <0>         0.0808
     56 H25       -10.6751    5.0754   -0.4835 H         1 <0>         0.0673
     57 H26       -12.3026    4.3589   -0.5609 H         1 <0>         0.0718
     58 H27       -12.4790    4.4927    1.9089 H         1 <0>         0.0579
     59 H28       -10.8514    5.2092    1.9863 H         1 <0>         0.0554
@<TRIPOS>BOND
     1    1    2 1
     2    1   33 1
     3    1   34 1
     4    1   35 1
     5    2    3 1
     6    2   36 1
     7    2   37 1
     8    3    8 ar
     9    3    4 ar
    10    4    5 ar
    11    4   38 1
    12    5    6 ar
    13    5   39 1
    14    6    7 ar
    15    6   14 1
    16    7    8 ar
    17    7    9 1
    18    8   40 1
    19    9   13 1
    20    9   10 2
    21   10   11 1
    22   11   12 2
    23   11   41 1
    24   12   13 1
    25   12   42 1
    26   14   15 1
    27   15   16 1
    28   15   17 1
    29   15   18 1
    30   17   43 1
    31   17   44 1
    32   17   45 1
    33   18   19 1
    34   18   46 1
    35   18   47 1
    36   19   20 1
    37   19   48 1
    38   19   49 1
    39   20   21 1
    40   21   26 ar
    41   21   22 ar
    42   22   23 ar
    43   22   50 1
    44   23   24 ar
    45   23   51 1
    46   24   25 ar
    47   24   28 1
    48   25   26 ar
    49   25   27 1
    50   26   52 1
    51   27   53 1
    52   27   54 1
    53   27   55 1
    54   28   29 1
    55   28   56 1
    56   28   57 1
    57   29   30 1
    58   29   58 1
    59   29   59 1
    60   30   31 2
    61   30   32 1
@<TRIPOS>MOLECULE
CHEMBL238357
   67    70     0     0     0
SMALL
USER_CHARGES

@<TRIPOS>ATOM
      1 C1          0.9849   -2.0212    0.3873 C.3       1 <0>        -0.1458
      2 C2          0.4987   -2.2177    1.8246 C.3       1 <0>        -0.0917
      3 C3         -0.9200   -2.7257    1.8100 C.ar      1 <0>        -0.0430
      4 C4         -1.9723   -1.8373    1.9195 C.ar      1 <0>        -0.1362
      5 C5         -3.2782   -2.3056    1.9060 C.ar      1 <0>         0.1001
      6 C6         -3.5237   -3.6658    1.7825 C.ar      1 <0>        -0.1935
      7 C7         -2.4681   -4.5498    1.6734 C.ar      1 <0>        -0.0808
      8 C8         -1.1675   -4.0798    1.6815 C.ar      1 <0>        -0.0860
      9 C9         -0.0178   -5.0459    1.5556 C.3       1 <0>        -0.0606
     10 C10         0.4893   -5.4196    2.9499 C.3       1 <0>        -0.1752
     11 C11         1.6390   -6.3858    2.8240 C.2       1 <0>         0.4895
     12 O1          2.0177   -6.7424    1.7213 O.co2     1 <0>        -0.6980
     13 O2          2.1905   -6.8108    3.8249 O.co2     1 <0>        -0.7057
     14 O3         -4.3150   -1.4339    2.0139 O.3       1 <0>        -0.2603
     15 C12        -5.5769   -1.9374    1.9904 C.ar      1 <0>         0.1339
     16 C13        -6.1840   -2.3463    3.1696 C.ar      1 <0>        -0.1231
     17 C14        -7.4669   -2.8576    3.1445 C.ar      1 <0>        -0.0531
     18 C15        -8.1477   -2.9626    1.9458 C.ar      1 <0>        -0.1520
     19 C16        -7.5451   -2.5561    0.7672 C.ar      1 <0>         0.1223
     20 C17        -6.2621   -2.0380    0.7887 C.ar      1 <0>        -0.1605
     21 F1         -8.2119   -2.6600   -0.4032 F         1 <0>        -0.1313
     22 C18        -8.1252   -3.3018    4.4253 C.3       1 <0>         0.1851
     23 H1         -7.3619   -3.4839    5.1819 H         1 <0>         0.1080
     24 C19        -9.0779   -2.2093    4.9147 C.3       1 <0>        -0.1600
     25 N1         -8.8785   -4.5350    4.1849 N.am      1 <0>        -0.7142
     26 C20        -9.1232   -5.3844    5.2024 C.2       1 <0>         0.5923
     27 O4         -8.8053   -5.0820    6.3370 O.2       1 <0>        -0.5085
     28 C21        -9.7745   -6.6767    4.9409 C.2       1 <0>         0.0229
     29 C22        -9.1335   -7.8646    4.7853 C.2       1 <0>        -0.0981
     30 C23       -10.1156   -8.8572    4.5515 C.ar      1 <0>        -0.0974
     31 C24       -10.0524  -10.2382    4.3236 C.ar      1 <0>        -0.0491
     32 C25       -11.2024  -10.9470    4.1256 C.ar      1 <0>        -0.0604
     33 C26       -12.4384  -10.3107    4.1480 C.ar      1 <0>        -0.0840
     34 C27       -12.5255   -8.9548    4.3696 C.ar      1 <0>        -0.1140
     35 C28       -11.3667   -8.2108    4.5746 C.ar      1 <0>         0.1096
     36 N2        -11.1359   -6.8775    4.8203 N.pl3     1 <0>        -0.4604
     37 C29       -12.1643   -5.8401    4.9317 C.3       1 <0>         0.0745
     38 Cl1       -11.1206  -12.6579    3.8429 Cl        1 <0>        -0.0720
     39 C30        -7.6441   -8.0857    4.8492 C.3       1 <0>        -0.0914
     40 H2          2.0110   -1.6538    0.3978 H         1 <0>         0.0582
     41 H3          0.9450   -2.9727   -0.1431 H         1 <0>         0.0622
     42 H4          0.3449   -1.2971   -0.1169 H         1 <0>         0.0510
     43 H5          1.1387   -2.9418    2.3288 H         1 <0>         0.0869
     44 H6          0.5386   -1.2663    2.3549 H         1 <0>         0.0691
     45 H7         -1.7786   -0.7792    2.0158 H         1 <0>         0.1284
     46 H8         -4.5393   -4.0330    1.7721 H         1 <0>         0.1206
     47 H9         -2.6586   -5.6085    1.5777 H         1 <0>         0.1260
     48 H10        -0.3534   -5.9446    1.0381 H         1 <0>         0.0688
     49 H11         0.7881   -4.5798    0.9887 H         1 <0>         0.0763
     50 H12         0.8250   -4.5209    3.4674 H         1 <0>         0.0577
     51 H13        -0.3166   -5.8858    3.5168 H         1 <0>         0.0559
     52 H14        -5.6532   -2.2651    4.1067 H         1 <0>         0.1437
     53 H15        -9.1507   -3.3627    1.9286 H         1 <0>         0.1368
     54 H16        -5.7934   -1.7163   -0.1295 H         1 <0>         0.1471
     55 H17        -9.5541   -2.5306    5.8410 H         1 <0>         0.0698
     56 H18        -8.5174   -1.2917    5.0935 H         1 <0>         0.0751
     57 H19        -9.8412   -2.0272    4.1581 H         1 <0>         0.0615
     58 H20        -9.2013   -4.7403    3.2935 H         1 <0>         0.4039
     59 H21        -9.0966  -10.7407    4.3042 H         1 <0>         0.1368
     60 H22       -13.3389  -10.8856    3.9896 H         1 <0>         0.1376
     61 H23       -13.4902   -8.4695    4.3844 H         1 <0>         0.1303
     62 H24       -12.4158   -5.4697    3.9379 H         1 <0>         0.0763
     63 H25       -13.0549   -6.2601    5.3991 H         1 <0>         0.0877
     64 H26       -11.7872   -5.0187    5.5410 H         1 <0>         0.0850
     65 H27        -7.3536   -8.3085    5.8758 H         1 <0>         0.0759
     66 H28        -7.3731   -8.9223    4.2052 H         1 <0>         0.0742
     67 H29        -7.1285   -7.1862    4.5127 H         1 <0>         0.0655
@<TRIPOS>BOND
     1    1    2 1
     2    1   40 1
     3    1   41 1
     4    1   42 1
     5    2    3 1
     6    2   43 1
     7    2   44 1
     8    3    8 ar
     9    3    4 ar
    10    4    5 ar
    11    4   45 1
    12    5    6 ar
    13    5   14 1
    14    6    7 ar
    15    6   46 1
    16    7    8 ar
    17    7   47 1
    18    8    9 1
    19    9   10 1
    20    9   48 1
    21    9   49 1
    22   10   11 1
    23   10   50 1
    24   10   51 1
    25   11   12 2
    26   11   13 1
    27   14   15 1
    28   15   20 ar
    29   15   16 ar
    30   16   17 ar
    31   16   52 1
    32   17   18 ar
    33   17   22 1
    34   18   19 ar
    35   18   53 1
    36   19   20 ar
    37   19   21 1
    38   20   54 1
    39   22   23 1
    40   22   24 1
    41   22   25 1
    42   24   55 1
    43   24   56 1
    44   24   57 1
    45   25   26 am
    46   25   58 1
    47   26   27 2
    48   26   28 1
    49   28   36 1
    50   28   29 2
    51   29   30 1
    52   29   39 1
    53   30   35 ar
    54   30   31 ar
    55   31   32 ar
    56   31   59 1
    57   32   33 ar
    58   32   38 1
    59   33   34 ar
    60   33   60 1
    61   34   35 ar
    62   34   61 1
    63   35   36 1
    64   36   37 1
    65   37   62 1
    66   37   63 1
    67   37   64 1
    68   39   65 1
    69   39   66 1
    70   39   67 1
@<TRIPOS>MOLECULE
CHEMBL225936
   60    64     0     0     0
SMALL
USER_CHARGES

@<TRIPOS>ATOM
      1 C1          6.8791   -3.1160   -2.3758 C.ar      1 <0>        -0.1204
      2 C2          5.6142   -3.6344   -2.1705 C.ar      1 <0>        -0.1158
      3 C3          4.6823   -2.9162   -1.4447 C.ar      1 <0>        -0.1033
      4 C4          5.0155   -1.6799   -0.9238 C.ar      1 <0>        -0.0806
      5 C5          6.2808   -1.1619   -1.1283 C.ar      1 <0>        -0.1160
      6 C6          7.2121   -1.8795   -1.8553 C.ar      1 <0>        -0.1212
      7 C7          3.9994   -0.8965   -0.1334 C.3       1 <0>        -0.0406
      8 C8          4.2139   -1.1372    1.3387 C.ar      1 <0>        -0.1164
      9 C9          5.0162   -0.2758    2.0781 C.ar      1 <0>         0.1447
     10 N1          5.2253   -0.4533    3.3606 N.ar      1 <0>        -0.4636
     11 C10         4.6776   -1.4739    4.0285 C.ar      1 <0>         0.1314
     12 C11         3.8467   -2.3986    3.3510 C.ar      1 <0>        -0.0769
     13 C12         3.6068   -2.2171    1.9653 C.ar      1 <0>         0.0274
     14 C13         2.7412   -3.1521    1.2099 C.ar      1 <0>        -0.0048
     15 C14         1.5139   -2.7183    0.7073 C.ar      1 <0>        -0.1684
     16 C15         0.7088   -3.5909    0.0038 C.ar      1 <0>        -0.0673
     17 C16         1.1137   -4.8959   -0.2057 C.ar      1 <0>        -0.1950
     18 C17         2.3344   -5.3373    0.2910 C.ar      1 <0>         0.2280
     19 C18         3.1527   -4.4658    0.9942 C.ar      1 <0>        -0.1750
     20 N2          2.7393   -6.6572    0.0777 N.pl3     1 <0>        -0.7370
     21 C19         1.8772   -7.5762   -0.6695 C.3       1 <0>         0.1765
     22 C20         2.5399   -8.9268   -0.7578 C.ar      1 <0>        -0.1420
     23 C21         3.3821   -9.2158   -1.8152 C.ar      1 <0>        -0.0965
     24 C22         3.9899  -10.4546   -1.8962 C.ar      1 <0>        -0.1198
     25 C23         3.7559  -11.4045   -0.9195 C.ar      1 <0>        -0.0047
     26 C24         2.9144  -11.1153    0.1384 C.ar      1 <0>        -0.1200
     27 C25         2.3100   -9.8749    0.2217 C.ar      1 <0>        -0.0967
     28 C26         4.4178  -12.7554   -1.0083 C.3       1 <0>        -0.1634
     29 C27         5.7440  -12.7130   -0.2938 C.2       1 <0>         0.4973
     30 O1          6.1171  -11.6814    0.2381 O.co2     1 <0>        -0.6868
     31 O2          6.4438  -13.7103   -0.2478 O.co2     1 <0>        -0.7006
     32 C28         3.2754   -3.4656    4.0562 C.ar      1 <0>        -0.0830
     33 C29         3.5249   -3.6038    5.3890 C.ar      1 <0>        -0.1097
     34 C30         4.3413   -2.6972    6.0600 C.ar      1 <0>        -0.0907
     35 C31         4.9128   -1.6483    5.4046 C.ar      1 <0>        -0.0157
     36 Cl1         5.9273   -0.5319    6.2638 Cl        1 <0>        -0.0484
     37 H1          7.6085   -3.6791   -2.9391 H         1 <0>         0.1199
     38 H2          5.3538   -4.6003   -2.5775 H         1 <0>         0.1206
     39 H3          3.6938   -3.3209   -1.2849 H         1 <0>         0.1239
     40 H4          6.5410   -0.1958   -0.7217 H         1 <0>         0.1189
     41 H5          8.2005   -1.4746   -2.0155 H         1 <0>         0.1196
     42 H6          4.1127    0.1661   -0.3481 H         1 <0>         0.0860
     43 H7          2.9959   -1.2185   -0.4117 H         1 <0>         0.0930
     44 H8          5.4809    0.5635    1.5822 H         1 <0>         0.1609
     45 H9          1.1939   -1.6996    0.8692 H         1 <0>         0.1180
     46 H10        -0.2409   -3.2531   -0.3841 H         1 <0>         0.1223
     47 H11         0.4795   -5.5745   -0.7567 H         1 <0>         0.1223
     48 H12         4.1035   -4.8056    1.3775 H         1 <0>         0.1203
     49 H13         3.5913   -6.9652    0.4244 H         1 <0>         0.4051
     50 H14         0.9200   -7.6739   -0.1574 H         1 <0>         0.0634
     51 H15         1.7137   -7.1854   -1.6738 H         1 <0>         0.0635
     52 H16         3.5649   -8.4737   -2.5783 H         1 <0>         0.1140
     53 H17         4.6473  -10.6806   -2.7227 H         1 <0>         0.1160
     54 H18         2.7314  -11.8575    0.9013 H         1 <0>         0.1161
     55 H19         1.6555   -9.6476    1.0501 H         1 <0>         0.1142
     56 H20         3.7779  -13.5049   -0.5424 H         1 <0>         0.0703
     57 H21         4.5771  -13.0139   -2.0551 H         1 <0>         0.0703
     58 H22         2.6403   -4.1750    3.5466 H         1 <0>         0.1386
     59 H23         3.0835   -4.4267    5.9316 H         1 <0>         0.1379
     60 H24         4.5244   -2.8274    7.1164 H         1 <0>         0.1399
@<TRIPOS>BOND
     1    1    6 ar
     2    1    2 ar
     3    1   37 1
     4    2    3 ar
     5    2   38 1
     6    3    4 ar
     7    3   39 1
     8    4    5 ar
     9    4    7 1
    10    5    6 ar
    11    5   40 1
    12    6   41 1
    13    7    8 1
    14    7   42 1
    15    7   43 1
    16    8   13 ar
    17    8    9 ar
    18    9   10 ar
    19    9   44 1
    20   10   11 ar
    21   11   35 ar
    22   11   12 ar
    23   12   13 ar
    24   12   32 ar
    25   13   14 1
    26   14   19 ar
    27   14   15 ar
    28   15   16 ar
    29   15   45 1
    30   16   17 ar
    31   16   46 1
    32   17   18 ar
    33   17   47 1
    34   18   19 ar
    35   18   20 1
    36   19   48 1
    37   20   21 1
    38   20   49 1
    39   21   22 1
    40   21   50 1
    41   21   51 1
    42   22   27 ar
    43   22   23 ar
    44   23   24 ar
    45   23   52 1
    46   24   25 ar
    47   24   53 1
    48   25   26 ar
    49   25   28 1
    50   26   27 ar
    51   26   54 1
    52   27   55 1
    53   28   29 1
    54   28   56 1
    55   28   57 1
    56   29   30 2
    57   29   31 1
    58   32   33 ar
    59   32   58 1
    60   33   34 ar
    61   33   59 1
    62   34   35 ar
    63   34   60 1
    64   35   36 1
@<TRIPOS>MOLECULE
CHEMBL384762
   54    57     0     0     0
SMALL
USER_CHARGES

@<TRIPOS>ATOM
      1 C1         -0.2370    0.8846   -0.4836 C.ar      1 <0>        -0.1022
      2 C2          0.6750    1.4322    0.4010 C.ar      1 <0>        -0.1224
      3 C3          1.9393    0.8920    0.5157 C.ar      1 <0>        -0.0841
      4 C4          2.2972   -0.2095   -0.2628 C.ar      1 <0>        -0.0409
      5 C5          1.3725   -0.7574   -1.1529 C.ar      1 <0>        -0.0804
      6 C6          0.1116   -0.2075   -1.2582 C.ar      1 <0>        -0.1228
      7 C7          3.6507   -0.7933   -0.1454 C.2       1 <0>         0.1276
      8 C8          3.9424   -2.1129   -0.0076 C.2       1 <0>        -0.2231
      9 C9          5.3465   -2.2418    0.0687 C.2       1 <0>         0.1791
     10 N1          5.8691   -1.0417   -0.0206 N.2       1 <0>        -0.2879
     11 O1          4.8113   -0.1113   -0.1622 O.3       1 <0>        -0.0719
     12 C10         6.0990   -3.5118    0.2236 C.ar      1 <0>        -0.0695
     13 C11         5.8033   -4.6036   -0.5900 C.ar      1 <0>        -0.0634
     14 C12         6.5059   -5.7820   -0.4418 C.ar      1 <0>        -0.1118
     15 C13         7.5027   -5.8814    0.5125 C.ar      1 <0>         0.0165
     16 C14         7.8012   -4.8019    1.3232 C.ar      1 <0>        -0.1120
     17 C15         7.1082   -3.6150    1.1799 C.ar      1 <0>         0.0027
     18 Cl1         7.4885   -2.2577    2.1933 Cl        1 <0>        -0.0700
     19 C16         8.2657   -7.1715    0.6694 C.3       1 <0>        -0.1641
     20 C17         9.4753   -7.1521   -0.2293 C.2       1 <0>         0.4981
     21 O2          9.6972   -6.1808   -0.9320 O.co2     1 <0>        -0.6829
     22 O3         10.2320   -8.1078   -0.2537 O.co2     1 <0>        -0.6977
     23 C18         2.9439   -3.2401    0.0531 C.3       1 <0>         0.1360
     24 O4          2.6944   -3.7270   -1.2670 O.3       1 <0>        -0.3727
     25 C19         1.7562   -4.8034   -1.3218 C.3       1 <0>         0.0603
     26 C20         1.5673   -5.2419   -2.7754 C.3       1 <0>         0.0591
     27 O5          2.7928   -5.7829   -3.2728 O.3       1 <0>        -0.2857
     28 C21         2.7962   -6.2226   -4.5592 C.ar      1 <0>         0.1493
     29 C22         1.6455   -6.1297   -5.3280 C.ar      1 <0>        -0.1907
     30 C23         1.6507   -6.5771   -6.6350 C.ar      1 <0>        -0.0672
     31 C24         2.8029   -7.1178   -7.1780 C.ar      1 <0>        -0.0652
     32 C25         3.9522   -7.2117   -6.4136 C.ar      1 <0>        -0.0634
     33 C26         3.9529   -6.7600   -5.1070 C.ar      1 <0>        -0.0629
     34 Cl2         5.3970   -6.8713   -4.1499 Cl        1 <0>        -0.0212
     35 Cl3         2.8061   -7.6796   -8.8206 Cl        1 <0>        -0.0628
     36 H1         -1.2268    1.3087   -0.5666 H         1 <0>         0.1263
     37 H2          0.3967    2.2847    1.0029 H         1 <0>         0.1292
     38 H3          2.6505    1.3208    1.2061 H         1 <0>         0.1303
     39 H4          1.6435   -1.6097   -1.7584 H         1 <0>         0.1395
     40 H5         -0.6049   -0.6303   -1.9469 H         1 <0>         0.1293
     41 H6          5.0253   -4.5278   -1.3352 H         1 <0>         0.1415
     42 H7          6.2769   -6.6287   -1.0719 H         1 <0>         0.1260
     43 H8          8.5800   -4.8851    2.0667 H         1 <0>         0.1326
     44 H9          8.5849   -7.2812    1.7058 H         1 <0>         0.0747
     45 H10         7.6236   -8.0089    0.3963 H         1 <0>         0.0755
     46 H11         3.3432   -4.0464    0.6683 H         1 <0>         0.0696
     47 H12         2.0128   -2.8776    0.4887 H         1 <0>         0.0626
     48 H13         2.1308   -5.6422   -0.7351 H         1 <0>         0.0680
     49 H14         0.8004   -4.4734   -0.9147 H         1 <0>         0.0744
     50 H15         0.7872   -6.0014   -2.8274 H         1 <0>         0.0811
     51 H16         1.2780   -4.3820   -3.3796 H         1 <0>         0.0744
     52 H17         0.7457   -5.7081   -4.9048 H         1 <0>         0.1443
     53 H18         0.7546   -6.5050   -7.2335 H         1 <0>         0.1402
     54 H19         4.8504   -7.6344   -6.8391 H         1 <0>         0.1507
@<TRIPOS>BOND
     1    1    6 ar
     2    1    2 ar
     3    1   36 1
     4    2    3 ar
     5    2   37 1
     6    3    4 ar
     7    3   38 1
     8    4    5 ar
     9    4    7 1
    10    5    6 ar
    11    5   39 1
    12    6   40 1
    13    7   11 1
    14    7    8 2
    15    8    9 1
    16    8   23 1
    17    9   10 2
    18    9   12 1
    19   10   11 1
    20   12   17 ar
    21   12   13 ar
    22   13   14 ar
    23   13   41 1
    24   14   15 ar
    25   14   42 1
    26   15   16 ar
    27   15   19 1
    28   16   17 ar
    29   16   43 1
    30   17   18 1
    31   19   20 1
    32   19   44 1
    33   19   45 1
    34   20   21 2
    35   20   22 1
    36   23   24 1
    37   23   46 1
    38   23   47 1
    39   24   25 1
    40   25   26 1
    41   25   48 1
    42   25   49 1
    43   26   27 1
    44   26   50 1
    45   26   51 1
    46   27   28 1
    47   28   33 ar
    48   28   29 ar
    49   29   30 ar
    50   29   52 1
    51   30   31 ar
    52   30   53 1
    53   31   32 ar
    54   31   35 1
    55   32   33 ar
    56   32   54 1
    57   33   34 1
@<TRIPOS>MOLECULE
CHEMBL213315
   61    63     0     0     0
SMALL
USER_CHARGES

@<TRIPOS>ATOM
      1 C1          1.4909    2.1239   -2.6989 C.3       1 <0>        -0.1212
      2 C2          1.3115    0.7064   -2.2198 C.ar      1 <0>        -0.0461
      3 C3          1.0598   -0.3029   -3.1292 C.ar      1 <0>        -0.1503
      4 C4          0.8953   -1.6075   -2.6876 C.ar      1 <0>         0.1139
      5 C5          0.9840   -1.8954   -1.3332 C.ar      1 <0>        -0.2097
      6 C6          1.2357   -0.8829   -0.4281 C.ar      1 <0>        -0.0791
      7 C7          1.4046    0.4161   -0.8714 C.ar      1 <0>        -0.0993
      8 C8          1.6854    1.5180    0.1176 C.3       1 <0>        -0.0567
      9 C9          0.3729    2.2024    0.5048 C.3       1 <0>        -0.1755
     10 C10         0.6536    3.3042    1.4938 C.2       1 <0>         0.4892
     11 O1          1.7975    3.5219    1.8555 O.co2     1 <0>        -0.6985
     12 O2         -0.2630    3.9779    1.9324 O.co2     1 <0>        -0.7067
     13 O3          0.6473   -2.6020   -3.5800 O.3       1 <0>        -0.3182
     14 C11         0.4888   -3.9212   -3.0539 C.3       1 <0>         0.0598
     15 C12         0.2183   -4.8981   -4.1999 C.3       1 <0>        -0.1127
     16 C13         0.0486   -6.3105   -3.6366 C.3       1 <0>         0.0815
     17 H1         -0.7314   -6.3068   -2.8753 H         1 <0>         0.0807
     18 C14        -0.3447   -7.2658   -4.7651 C.3       1 <0>        -0.1804
     19 O4          1.2802   -6.7423   -3.0545 O.3       1 <0>        -0.2893
     20 C15         1.2062   -7.7030   -2.0950 C.ar      1 <0>         0.1474
     21 C16        -0.0132   -8.2848   -1.7874 C.ar      1 <0>        -0.1817
     22 C17        -0.0866   -9.2617   -0.8120 C.ar      1 <0>        -0.0589
     23 C18         1.0547   -9.6603   -0.1410 C.ar      1 <0>        -0.1873
     24 C19         2.2744   -9.0838   -0.4425 C.ar      1 <0>        -0.1095
     25 C20         2.3561   -8.1083   -1.4236 C.ar      1 <0>         0.0945
     26 O5          3.5560   -7.5444   -1.7256 O.3       1 <0>        -0.2396
     27 C21         4.6658   -8.0445   -1.1219 C.ar      1 <0>         0.0755
     28 C22         5.2046   -9.2505   -1.5471 C.ar      1 <0>        -0.1332
     29 C23         6.3332   -9.7564   -0.9320 C.ar      1 <0>        -0.1062
     30 C24         6.9261   -9.0622    0.1066 C.ar      1 <0>        -0.1160
     31 C25         6.3909   -7.8605    0.5325 C.ar      1 <0>        -0.1037
     32 C26         5.2657   -7.3473   -0.0829 C.ar      1 <0>        -0.1179
     33 C27         0.9687  -10.7253    0.9217 C.3       1 <0>         0.5128
     34 F1         -0.3575  -11.1527    1.0474 F         1 <0>        -0.1761
     35 F2          1.7759  -11.8097    0.5616 F         1 <0>        -0.1766
     36 F3          1.4078  -10.2023    2.1427 F         1 <0>        -0.1749
     37 H2          2.5433    2.3026   -2.9192 H         1 <0>         0.0715
     38 H3          0.8992    2.2802   -3.6010 H         1 <0>         0.0633
     39 H4          1.1598    2.8143   -1.9231 H         1 <0>         0.0810
     40 H5          0.9909   -0.0763   -4.1829 H         1 <0>         0.1252
     41 H6          0.8559   -2.9103   -0.9868 H         1 <0>         0.1202
     42 H7          1.3048   -1.1064    0.6262 H         1 <0>         0.1231
     43 H8          2.1520    1.0967    1.0081 H         1 <0>         0.0678
     44 H9          2.3568    2.2486   -0.3334 H         1 <0>         0.0721
     45 H10        -0.0937    2.6236   -0.3856 H         1 <0>         0.0579
     46 H11        -0.2986    1.4717    0.9558 H         1 <0>         0.0555
     47 H12         1.3994   -4.2161   -2.5323 H         1 <0>         0.0680
     48 H13        -0.3498   -3.9364   -2.3578 H         1 <0>         0.0586
     49 H14        -0.6923   -4.6032   -4.7214 H         1 <0>         0.0973
     50 H15         1.0569   -4.8829   -4.8960 H         1 <0>         0.0888
     51 H16        -1.2841   -6.9365   -5.2091 H         1 <0>         0.0785
     52 H17         0.4354   -7.2696   -5.5264 H         1 <0>         0.0728
     53 H18        -0.4655   -8.2721   -4.3638 H         1 <0>         0.0664
     54 H19        -0.9063   -7.9748   -2.3095 H         1 <0>         0.1518
     55 H20        -1.0377   -9.7143   -0.5733 H         1 <0>         0.1455
     56 H21         3.1642   -9.3965    0.0837 H         1 <0>         0.1454
     57 H22         4.7418   -9.7933   -2.3580 H         1 <0>         0.1303
     58 H23         6.7528  -10.6952   -1.2623 H         1 <0>         0.1308
     59 H24         7.8084   -9.4595    0.5861 H         1 <0>         0.1294
     60 H25         6.8556   -7.3204    1.3442 H         1 <0>         0.1338
     61 H26         4.8507   -6.4065    0.2472 H         1 <0>         0.1352
@<TRIPOS>BOND
     1    1    2 1
     2    1   37 1
     3    1   38 1
     4    1   39 1
     5    2    7 ar
     6    2    3 ar
     7    3    4 ar
     8    3   40 1
     9    4    5 ar
    10    4   13 1
    11    5    6 ar
    12    5   41 1
    13    6    7 ar
    14    6   42 1
    15    7    8 1
    16    8    9 1
    17    8   43 1
    18    8   44 1
    19    9   10 1
    20    9   45 1
    21    9   46 1
    22   10   11 2
    23   10   12 1
    24   13   14 1
    25   14   15 1
    26   14   47 1
    27   14   48 1
    28   15   16 1
    29   15   49 1
    30   15   50 1
    31   16   17 1
    32   16   18 1
    33   16   19 1
    34   18   51 1
    35   18   52 1
    36   18   53 1
    37   19   20 1
    38   20   25 ar
    39   20   21 ar
    40   21   22 ar
    41   21   54 1
    42   22   23 ar
    43   22   55 1
    44   23   24 ar
    45   23   33 1
    46   24   25 ar
    47   24   56 1
    48   25   26 1
    49   26   27 1
    50   27   32 ar
    51   27   28 ar
    52   28   29 ar
    53   28   57 1
    54   29   30 ar
    55   29   58 1
    56   30   31 ar
    57   30   59 1
    58   31   32 ar
    59   31   60 1
    60   32   61 1
    61   33   34 1
    62   33   35 1
    63   33   36 1
@<TRIPOS>MOLECULE
CHEMBL496593
   65    68     0     0     0
SMALL
USER_CHARGES

@<TRIPOS>ATOM
      1 C1          1.2099    0.7827   -0.1829 C.3       1 <0>        -0.1477
      2 C2          0.9621   -0.7271   -0.1845 C.3       1 <0>        -0.0177
      3 C3         -0.4849   -0.9870   -0.1115 C.1       1 <0>        -0.1293
      4 C4         -1.6390   -1.1942   -0.0532 C.1       1 <0>        -0.2025
      5 C5         -3.0860   -1.4541    0.0198 C.3       1 <0>         0.1795
      6 O1         -3.3174   -2.8643    0.0183 O.3       1 <0>        -0.2870
      7 C6         -4.6115   -3.2777    0.0818 C.ar      1 <0>         0.1739
      8 C7         -5.6356   -2.3470    0.1384 C.ar      1 <0>        -0.1973
      9 C8         -6.9511   -2.7688    0.2025 C.ar      1 <0>        -0.0267
     10 C9         -7.2489   -4.1191    0.2104 C.ar      1 <0>        -0.1433
     11 C10        -6.2332   -5.0545    0.1547 C.ar      1 <0>        -0.0303
     12 C11        -4.9107   -4.6389    0.0844 C.ar      1 <0>        -0.1614
     13 S1         -3.6136   -5.8288    0.0059 S.3       1 <0>         0.0001
     14 C12        -3.1143   -5.8043   -1.6838 C.ar      1 <0>        -0.1464
     15 C13        -3.8226   -5.0411   -2.5997 C.ar      1 <0>        -0.0757
     16 C14        -3.4317   -5.0226   -3.9237 C.ar      1 <0>        -0.2061
     17 C15        -2.3374   -5.7681   -4.3285 C.ar      1 <0>         0.1399
     18 C16        -1.6244   -6.5373   -3.4108 C.ar      1 <0>        -0.0991
     19 C17        -2.0056   -6.5486   -2.0893 C.ar      1 <0>        -0.0200
     20 C18        -1.2692   -7.3388   -1.0394 C.3       1 <0>        -0.0774
     21 C19        -0.3875   -8.4038   -1.6883 C.3       1 <0>        -0.1169
     22 C20         0.4698   -7.7308   -2.7666 C.3       1 <0>        -0.1176
     23 C21        -0.4498   -7.3293   -3.9228 C.3       1 <0>        -0.0700
     24 O2         -1.9553   -5.7499   -5.6336 O.3       1 <0>        -0.2764
     25 C22        -2.7274   -4.9423   -6.5245 C.3       1 <0>        -0.0067
     26 C23        -2.1595   -5.0463   -7.9165 C.2       1 <0>         0.5022
     27 O3         -1.1841   -5.7470   -8.1262 O.co2     1 <0>        -0.6701
     28 O4         -2.6756   -4.4297   -8.8330 O.co2     1 <0>        -0.6885
     29 C24        -8.0633   -1.7538    0.2645 C.3       1 <0>         0.1011
     30 O5         -8.4829   -1.4254   -1.0615 O.3       1 <0>        -0.3750
     31 C25        -9.5399   -0.4653   -1.1156 C.3       1 <0>         0.0935
     32 C26        -9.9057   -0.1912   -2.5757 C.3       1 <0>        -0.1558
     33 C27        -9.6786    1.2255   -3.1069 C.3       1 <0>        -0.1767
     34 C28       -11.1007    0.7257   -2.8445 C.3       1 <0>        -0.1733
     35 H1          2.2814    0.9751   -0.2369 H         1 <0>         0.0666
     36 H2          0.7160    1.2328   -1.0440 H         1 <0>         0.0575
     37 H3          0.8087    1.2157    0.7334 H         1 <0>         0.0578
     38 H4          1.3633   -1.1602   -1.1008 H         1 <0>         0.0910
     39 H5          1.4560   -1.1772    0.6767 H         1 <0>         0.0930
     40 H6         -3.4872   -1.0211    0.9361 H         1 <0>         0.0855
     41 H7         -3.5799   -1.0040   -0.8414 H         1 <0>         0.0865
     42 H8         -5.4067   -1.2916    0.1328 H         1 <0>         0.1336
     43 H9         -8.2778   -4.4435    0.2606 H         1 <0>         0.1313
     44 H10        -6.4686   -6.1086    0.1617 H         1 <0>         0.1421
     45 H11        -4.6770   -4.4637   -2.2786 H         1 <0>         0.1148
     46 H12        -3.9780   -4.4287   -4.6415 H         1 <0>         0.1280
     47 H13        -0.6453   -6.6639   -0.4535 H         1 <0>         0.0791
     48 H14        -1.9912   -7.8222   -0.3812 H         1 <0>         0.0757
     49 H15         0.2580   -8.8550   -0.9347 H         1 <0>         0.0646
     50 H16        -1.0136   -9.1714   -2.1432 H         1 <0>         0.0659
     51 H17         0.9561   -6.8482   -2.3511 H         1 <0>         0.0635
     52 H18         1.2238   -8.4310   -3.1261 H         1 <0>         0.0662
     53 H19        -0.8129   -8.2209   -4.4340 H         1 <0>         0.0758
     54 H20         0.1168   -6.7184   -4.6255 H         1 <0>         0.0825
     55 H21        -3.7606   -5.2896   -6.5266 H         1 <0>         0.0580
     56 H22        -2.6938   -3.9039   -6.1950 H         1 <0>         0.0570
     57 H23        -8.9044   -2.1698    0.8191 H         1 <0>         0.0632
     58 H24        -7.7067   -0.8542    0.7660 H         1 <0>         0.0598
     59 H25       -10.4116   -0.8546   -0.5896 H         1 <0>         0.0542
     60 H26        -9.2139    0.4611   -0.6427 H         1 <0>         0.0505
     61 H27        -9.7420   -1.0197   -3.2648 H         1 <0>         0.1156
     62 H28        -9.2686    1.9623   -2.4162 H         1 <0>         0.0945
     63 H29        -9.3653    1.3293   -4.1458 H         1 <0>         0.0978
     64 H30       -11.7229    0.5006   -3.7107 H         1 <0>         0.0989
     65 H31       -11.6262    1.1337   -1.9811 H         1 <0>         0.0944
@<TRIPOS>BOND
     1    1    2 1
     2    1   35 1
     3    1   36 1
     4    1   37 1
     5    2    3 1
     6    2   38 1
     7    2   39 1
     8    3    4 3
     9    4    5 1
    10    5    6 1
    11    5   40 1
    12    5   41 1
    13    6    7 1
    14    7   12 ar
    15    7    8 ar
    16    8    9 ar
    17    8   42 1
    18    9   10 ar
    19    9   29 1
    20   10   11 ar
    21   10   43 1
    22   11   12 ar
    23   11   44 1
    24   12   13 1
    25   13   14 1
    26   14   19 ar
    27   14   15 ar
    28   15   16 ar
    29   15   45 1
    30   16   17 ar
    31   16   46 1
    32   17   18 ar
    33   17   24 1
    34   18   23 1
    35   18   19 ar
    36   19   20 1
    37   20   21 1
    38   20   47 1
    39   20   48 1
    40   21   22 1
    41   21   49 1
    42   21   50 1
    43   22   23 1
    44   22   51 1
    45   22   52 1
    46   23   53 1
    47   23   54 1
    48   24   25 1
    49   25   26 1
    50   25   55 1
    51   25   56 1
    52   26   27 2
    53   26   28 1
    54   29   30 1
    55   29   57 1
    56   29   58 1
    57   30   31 1
    58   31   32 1
    59   31   59 1
    60   31   60 1
    61   32   34 1
    62   32   33 1
    63   32   61 1
    64   33   34 1
    65   33   62 1
    66   33   63 1
    67   34   64 1
    68   34   65 1
@<TRIPOS>MOLECULE
CHEMBL484725
   59    62     0     0     0
SMALL
USER_CHARGES

@<TRIPOS>ATOM
      1 C1         -0.0187    1.5258    0.0104 C.3       1 <0>        -0.1425
      2 C2          0.0021   -0.0041    0.0020 C.3       1 <0>         0.0668
      3 O1          0.6709   -0.4649   -1.1737 O.3       1 <0>        -0.3626
      4 C3          0.7457   -1.8880   -1.2798 C.3       1 <0>         0.0328
      5 H1         -0.1179   -2.3349   -0.7873 H         1 <0>         0.0484
      6 C4          0.7554   -2.2896   -2.7561 C.3       1 <0>        -0.0622
      7 C5         -0.5593   -1.9112   -3.3882 C.ar      1 <0>        -0.0776
      8 C6         -1.5634   -2.8267   -3.4766 C.ar      1 <0>        -0.0939
      9 C7         -2.7855   -2.4985   -4.0564 C.ar      1 <0>        -0.2092
     10 C8         -3.0128   -1.2462   -4.5544 C.ar      1 <0>         0.1265
     11 C9         -1.9956   -0.2732   -4.4793 C.ar      1 <0>        -0.0635
     12 C10        -0.7552   -0.6108   -3.8833 C.ar      1 <0>        -0.0098
     13 C11         0.2578    0.3604   -3.8041 C.ar      1 <0>        -0.0721
     14 C12         0.0325    1.6098   -4.2946 C.ar      1 <0>        -0.1244
     15 C13        -1.1898    1.9429   -4.8752 C.ar      1 <0>        -0.1231
     16 C14        -2.1893    1.0244   -4.9796 C.ar      1 <0>        -0.1023
     17 O2         -4.2102   -0.9415   -5.1180 O.3       1 <0>        -0.3114
     18 C15        -5.1913   -1.9797   -5.1583 C.3       1 <0>         0.0677
     19 C16        -6.4642   -1.4529   -5.8238 C.3       1 <0>        -0.0337
     20 C17        -7.4989   -2.5478   -5.8663 C.2       1 <0>        -0.0066
     21 C18        -7.6637   -3.4443   -6.8560 C.2       1 <0>        -0.0321
     22 O3         -8.6911   -4.2430   -6.5054 O.3       1 <0>        -0.1933
     23 C19        -9.1418   -3.8275   -5.3090 C.2       1 <0>         0.2298
     24 N1         -8.4156   -2.8056   -4.9213 N.2       1 <0>        -0.4586
     25 C20       -10.2636   -4.4251   -4.5542 C.ar      1 <0>        -0.0175
     26 C21       -10.6392   -3.8940   -3.3193 C.ar      1 <0>        -0.0704
     27 C22       -11.6873   -4.4562   -2.6202 C.ar      1 <0>        -0.1204
     28 C23       -12.3656   -5.5440   -3.1406 C.ar      1 <0>        -0.1009
     29 C24       -11.9983   -6.0752   -4.3642 C.ar      1 <0>        -0.1213
     30 C25       -10.9554   -5.5192   -5.0759 C.ar      1 <0>        -0.0906
     31 C26        -6.8509   -3.5376   -8.1215 C.3       1 <0>        -0.0724
     32 C27         2.0091   -2.3753   -0.6184 C.2       1 <0>         0.4780
     33 O4          2.2218   -3.5716   -0.5170 O.co2     1 <0>        -0.7004
     34 O5          2.8185   -1.5733   -0.1846 O.co2     1 <0>        -0.6789
     35 H2          1.0039    1.9031    0.0027 H         1 <0>         0.0621
     36 H3         -0.5459    1.8868   -0.8726 H         1 <0>         0.0547
     37 H4         -0.5289    1.8773    0.9072 H         1 <0>         0.0585
     38 H5          0.5293   -0.3651    0.8851 H         1 <0>         0.0449
     39 H6         -1.0205   -0.3814    0.0098 H         1 <0>         0.0284
     40 H7          1.5669   -1.7723   -3.2680 H         1 <0>         0.0759
     41 H8          0.9017   -3.3665   -2.8387 H         1 <0>         0.0885
     42 H9         -1.4091   -3.8236   -3.0908 H         1 <0>         0.1235
     43 H10        -3.5649   -3.2439   -4.1140 H         1 <0>         0.1208
     44 H11         1.2098    0.1166   -3.3562 H         1 <0>         0.1418
     45 H12         0.8125    2.3543   -4.2326 H         1 <0>         0.1193
     46 H13        -1.3431    2.9416   -5.2565 H         1 <0>         0.1166
     47 H14        -3.1310    1.2963   -5.4331 H         1 <0>         0.1242
     48 H15        -4.8045   -2.8231   -5.7303 H         1 <0>         0.0620
     49 H16        -5.4195   -2.3035   -4.1428 H         1 <0>         0.0659
     50 H17        -6.8510   -0.6095   -5.2518 H         1 <0>         0.0946
     51 H18        -6.2360   -1.1291   -6.8393 H         1 <0>         0.0927
     52 H19       -10.1103   -3.0452   -2.9118 H         1 <0>         0.1391
     53 H20       -11.9787   -4.0464   -1.6644 H         1 <0>         0.1329
     54 H21       -13.1851   -5.9805   -2.5891 H         1 <0>         0.1285
     55 H22       -12.5316   -6.9247   -4.7647 H         1 <0>         0.1306
     56 H23       -10.6726   -5.9321   -6.0330 H         1 <0>         0.1300
     57 H24        -5.9990   -4.1977   -7.9584 H         1 <0>         0.0888
     58 H25        -7.4717   -3.9371   -8.9235 H         1 <0>         0.0810
     59 H26        -6.4941   -2.5455   -8.3982 H         1 <0>         0.0964
@<TRIPOS>BOND
     1    1    2 1
     2    1   35 1
     3    1   36 1
     4    1   37 1
     5    2    3 1
     6    2   38 1
     7    2   39 1
     8    3    4 1
     9    4    5 1
    10    4    6 1
    11    4   32 1
    12    6    7 1
    13    6   40 1
    14    6   41 1
    15    7   12 ar
    16    7    8 ar
    17    8    9 ar
    18    8   42 1
    19    9   10 ar
    20    9   43 1
    21   10   11 ar
    22   10   17 1
    23   11   16 ar
    24   11   12 ar
    25   12   13 ar
    26   13   14 ar
    27   13   44 1
    28   14   15 ar
    29   14   45 1
    30   15   16 ar
    31   15   46 1
    32   16   47 1
    33   17   18 1
    34   18   19 1
    35   18   48 1
    36   18   49 1
    37   19   20 1
    38   19   50 1
    39   19   51 1
    40   20   24 1
    41   20   21 2
    42   21   22 1
    43   21   31 1
    44   22   23 1
    45   23   24 2
    46   23   25 1
    47   25   30 ar
    48   25   26 ar
    49   26   27 ar
    50   26   52 1
    51   27   28 ar
    52   27   53 1
    53   28   29 ar
    54   28   54 1
    55   29   30 ar
    56   29   55 1
    57   30   56 1
    58   31   57 1
    59   31   58 1
    60   31   59 1
    61   32   33 2
    62   32   34 1
@<TRIPOS>MOLECULE
CHEMBL435704
   62    65     0     0     0
SMALL
USER_CHARGES

@<TRIPOS>ATOM
      1 C1         -0.0187    1.5258    0.0104 C.3       1 <0>        -0.1515
      2 C2          0.0021   -0.0041    0.0020 C.3       1 <0>        -0.1167
      3 C3          0.7182   -0.4975   -1.2568 C.3       1 <0>        -0.0677
      4 C4          0.7386   -2.0043   -1.2651 C.ar      1 <0>        -0.1276
      5 C5          1.7874   -2.6879   -0.6752 C.ar      1 <0>         0.1936
      6 C6          1.8132   -4.0802   -0.6789 C.ar      1 <0>        -0.2254
      7 C7          0.8034   -4.7889   -1.2649 C.ar      1 <0>        -0.0027
      8 C8         -0.2620   -4.1157   -1.8639 C.ar      1 <0>        -0.2220
      9 C9         -0.2974   -2.7119   -1.8594 C.ar      1 <0>         0.1281
     10 O1         -1.4279   -2.3376   -2.4927 O.3       1 <0>        -0.0830
     11 N1         -2.1386   -3.4862   -2.9085 N.2       1 <0>        -0.2849
     12 C10        -1.4782   -4.5594   -2.5636 C.2       1 <0>         0.1824
     13 C11        -1.8857   -5.9626   -2.8160 C.ar      1 <0>        -0.0412
     14 C12        -0.9213   -6.9362   -3.0707 C.ar      1 <0>        -0.0860
     15 C13        -1.3065   -8.2406   -3.3049 C.ar      1 <0>        -0.1191
     16 C14        -2.6468   -8.5825   -3.2873 C.ar      1 <0>        -0.0989
     17 C15        -3.6083   -7.6205   -3.0351 C.ar      1 <0>        -0.1198
     18 C16        -3.2344   -6.3141   -2.7938 C.ar      1 <0>        -0.0813
     19 O2          2.7988   -1.9961   -0.0890 O.3       1 <0>        -0.2966
     20 C17         3.8511   -2.7613    0.5018 C.3       1 <0>         0.0608
     21 C18         4.8908   -1.8162    1.1074 C.3       1 <0>        -0.1191
     22 C19         6.0176   -2.6355    1.7400 C.3       1 <0>         0.0654
     23 O3          6.9886   -1.7528    2.3057 O.3       1 <0>        -0.3157
     24 C20         8.0628   -2.3239    2.9114 C.ar      1 <0>         0.1072
     25 C21         8.1826   -3.7053    2.9554 C.ar      1 <0>        -0.2046
     26 C22         9.2757   -4.2834    3.5714 C.ar      1 <0>        -0.0827
     27 C23        10.2496   -3.4864    4.1442 C.ar      1 <0>        -0.0957
     28 C24        10.1322   -2.1094    4.1021 C.ar      1 <0>        -0.0819
     29 C25         9.0442   -1.5263    3.4819 C.ar      1 <0>        -0.1464
     30 C26        11.4407   -4.1197    4.8159 C.3       1 <0>        -0.0576
     31 C27        12.5613   -4.3116    3.7920 C.3       1 <0>        -0.1753
     32 C28        13.7525   -4.9449    4.4638 C.2       1 <0>         0.4888
     33 O4         13.7091   -5.2174    5.6514 O.co2     1 <0>        -0.6987
     34 O5         14.7595   -5.1846    3.8197 O.co2     1 <0>        -0.7062
     35 H1          1.0039    1.9031    0.0027 H         1 <0>         0.0562
     36 H2         -0.5459    1.8868   -0.8726 H         1 <0>         0.0539
     37 H3         -0.5289    1.8773    0.9072 H         1 <0>         0.0544
     38 H4          0.5293   -0.3651    0.8851 H         1 <0>         0.0641
     39 H5         -1.0205   -0.3814    0.0098 H         1 <0>         0.0590
     40 H6          0.1910   -0.1364   -2.1398 H         1 <0>         0.0733
     41 H7          1.7408   -0.1202   -1.2645 H         1 <0>         0.0828
     42 H8          2.6370   -4.6028   -0.2158 H         1 <0>         0.1434
     43 H9          0.8297   -5.8686   -1.2650 H         1 <0>         0.1383
     44 H10         0.1254   -6.6703   -3.0850 H         1 <0>         0.1303
     45 H11        -0.5602   -8.9957   -3.5027 H         1 <0>         0.1325
     46 H12        -2.9437   -9.6044   -3.4715 H         1 <0>         0.1292
     47 H13        -4.6532   -7.8931   -3.0229 H         1 <0>         0.1312
     48 H14        -3.9856   -5.5648   -2.5922 H         1 <0>         0.1301
     49 H15         3.4410   -3.3997    1.2843 H         1 <0>         0.0718
     50 H16         4.3233   -3.3798   -0.2614 H         1 <0>         0.0720
     51 H17         5.3010   -1.1778    0.3249 H         1 <0>         0.0878
     52 H18         4.4187   -1.1977    1.8707 H         1 <0>         0.0876
     53 H19         5.6074   -3.2739    2.5225 H         1 <0>         0.0642
     54 H20         6.4897   -3.2540    0.9768 H         1 <0>         0.0646
     55 H21         7.4218   -4.3283    2.5088 H         1 <0>         0.1219
     56 H22         9.3694   -5.3588    3.6059 H         1 <0>         0.1241
     57 H23        10.8941   -1.4890    4.5505 H         1 <0>         0.1293
     58 H24         8.9552   -0.4506    3.4454 H         1 <0>         0.1266
     59 H25        11.7905   -3.4729    5.6205 H         1 <0>         0.0705
     60 H26        11.1541   -5.0878    5.2266 H         1 <0>         0.0695
     61 H27        12.2115   -4.9584    2.9875 H         1 <0>         0.0560
     62 H28        12.8480   -3.3435    3.3814 H         1 <0>         0.0570
@<TRIPOS>BOND
     1    1    2 1
     2    1   35 1
     3    1   36 1
     4    1   37 1
     5    2    3 1
     6    2   38 1
     7    2   39 1
     8    3    4 1
     9    3   40 1
    10    3   41 1
    11    4    9 ar
    12    4    5 ar
    13    5    6 ar
    14    5   19 1
    15    6    7 ar
    16    6   42 1
    17    7    8 ar
    18    7   43 1
    19    8   12 1
    20    8    9 ar
    21    9   10 1
    22   10   11 1
    23   11   12 2
    24   12   13 1
    25   13   18 ar
    26   13   14 ar
    27   14   15 ar
    28   14   44 1
    29   15   16 ar
    30   15   45 1
    31   16   17 ar
    32   16   46 1
    33   17   18 ar
    34   17   47 1
    35   18   48 1
    36   19   20 1
    37   20   21 1
    38   20   49 1
    39   20   50 1
    40   21   22 1
    41   21   51 1
    42   21   52 1
    43   22   23 1
    44   22   53 1
    45   22   54 1
    46   23   24 1
    47   24   29 ar
    48   24   25 ar
    49   25   26 ar
    50   25   55 1
    51   26   27 ar
    52   26   56 1
    53   27   28 ar
    54   27   30 1
    55   28   29 ar
    56   28   57 1
    57   29   58 1
    58   30   31 1
    59   30   59 1
    60   30   60 1
    61   31   32 1
    62   31   61 1
    63   31   62 1
    64   32   33 2
    65   32   34 1
@<TRIPOS>MOLECULE
CHEMBL78442
   52    54     0     0     0
SMALL
USER_CHARGES

@<TRIPOS>ATOM
      1 C1         -0.0187    1.5258    0.0104 C.3       1 <0>        -0.1685
      2 C2          0.0021   -0.0041    0.0020 C.3       1 <0>         0.0897
      3 C3          0.7421   -0.5109    1.2415 C.3       1 <0>        -0.1420
      4 O1         -1.3386   -0.4987    0.0122 O.3       1 <0>        -0.3588
      5 C4         -1.8963   -0.6929   -1.2891 C.3       1 <0>         0.0342
      6 C5         -3.4108   -0.4833   -1.2313 C.3       1 <0>        -0.0623
      7 C6         -3.7062    0.9524   -0.8811 C.ar      1 <0>        -0.0917
      8 C7         -3.8306    1.3281    0.4437 C.ar      1 <0>        -0.0613
      9 C8         -4.1018    2.6434    0.7674 C.ar      1 <0>        -0.1481
     10 C9         -4.2489    3.5878   -0.2382 C.ar      1 <0>         0.1109
     11 C10        -4.1232    3.2084   -1.5667 C.ar      1 <0>        -0.2065
     12 C11        -3.8468    1.8928   -1.8849 C.ar      1 <0>        -0.0825
     13 O2         -4.5162    4.8823    0.0776 O.3       1 <0>        -0.3143
     14 C12        -4.6549    5.7998   -1.0091 C.3       1 <0>         0.0696
     15 C13        -4.9515    7.1975   -0.4618 C.3       1 <0>        -0.0360
     16 C14        -5.0977    8.1651   -1.6078 C.2       1 <0>         0.2627
     17 N1         -4.1058    8.8682   -2.1586 N.2       1 <0>        -0.5276
     18 C15        -4.5724    9.6151   -3.1340 C.2       1 <0>         0.3382
     19 O3         -5.8961    9.3988   -3.2261 O.3       1 <0>        -0.0971
     20 N2         -6.2117    8.4449   -2.2231 N.2       1 <0>        -0.3270
     21 C16        -3.7809   10.5324   -3.9808 C.ar      1 <0>        -0.0358
     22 C17        -2.4051   10.6591   -3.7811 C.ar      1 <0>        -0.0481
     23 C18        -1.6715   11.5163   -4.5748 C.ar      1 <0>        -0.1104
     24 C19        -2.2962   12.2505   -5.5673 C.ar      1 <0>        -0.0745
     25 C20        -3.6602   12.1299   -5.7712 C.ar      1 <0>        -0.0427
     26 C21        -4.4048   11.2708   -4.9871 C.ar      1 <0>        -0.0636
     27 Cl1        -4.4350   13.0557   -7.0187 Cl        1 <0>        -0.0540
     28 C22        -1.6007   -2.0941   -1.7584 C.2       1 <0>         0.4766
     29 O4         -1.0512   -2.8844   -1.0101 O.co2     1 <0>        -0.6787
     30 O5         -1.9110   -2.4374   -2.8864 O.co2     1 <0>        -0.7013
     31 H1          1.0039    1.9031    0.0027 H         1 <0>         0.0537
     32 H2         -0.5459    1.8868   -0.8726 H         1 <0>         0.0497
     33 H3         -0.5289    1.8773    0.9072 H         1 <0>         0.0573
     34 H4          0.5123   -0.3556   -0.8948 H         1 <0>         0.0516
     35 H5          0.2319   -0.1594    2.1383 H         1 <0>         0.0539
     36 H6          0.7568   -1.6008    1.2356 H         1 <0>         0.0674
     37 H7          1.7647   -0.1336    1.2338 H         1 <0>         0.0554
     38 H8         -1.4566    0.0232   -1.9834 H         1 <0>         0.0478
     39 H9         -3.8473   -0.7176   -2.2022 H         1 <0>         0.0858
     40 H10        -3.8395   -1.1379   -0.4726 H         1 <0>         0.0743
     41 H11        -3.7160    0.5925    1.2262 H         1 <0>         0.1317
     42 H12        -4.1996    2.9362    1.8023 H         1 <0>         0.1262
     43 H13        -4.2373    3.9417   -2.3513 H         1 <0>         0.1196
     44 H14        -3.7444    1.5978   -2.9188 H         1 <0>         0.1236
     45 H15        -3.7296    5.8238   -1.5847 H         1 <0>         0.0702
     46 H16        -5.4747    5.4800   -1.6523 H         1 <0>         0.0659
     47 H17        -5.8768    7.1735    0.1138 H         1 <0>         0.1095
     48 H18        -4.1317    7.5173    0.1814 H         1 <0>         0.1159
     49 H19        -1.9160   10.0873   -3.0063 H         1 <0>         0.1512
     50 H20        -0.6071   11.6149   -4.4208 H         1 <0>         0.1482
     51 H21        -1.7173   12.9207   -6.1854 H         1 <0>         0.1441
     52 H22        -5.4682   11.1742   -5.1493 H         1 <0>         0.1477
@<TRIPOS>BOND
     1    1    2 1
     2    1   31 1
     3    1   32 1
     4    1   33 1
     5    2    3 1
     6    2    4 1
     7    2   34 1
     8    3   35 1
     9    3   36 1
    10    3   37 1
    11    4    5 1
    12    5    6 1
    13    5   28 1
    14    5   38 1
    15    6    7 1
    16    6   39 1
    17    6   40 1
    18    7   12 ar
    19    7    8 ar
    20    8    9 ar
    21    8   41 1
    22    9   10 ar
    23    9   42 1
    24   10   11 ar
    25   10   13 1
    26   11   12 ar
    27   11   43 1
    28   12   44 1
    29   13   14 1
    30   14   15 1
    31   14   45 1
    32   14   46 1
    33   15   16 1
    34   15   47 1
    35   15   48 1
    36   16   20 2
    37   16   17 1
    38   17   18 2
    39   18   19 1
    40   18   21 1
    41   19   20 1
    42   21   26 ar
    43   21   22 ar
    44   22   23 ar
    45   22   49 1
    46   23   24 ar
    47   23   50 1
    48   24   25 ar
    49   24   51 1
    50   25   26 ar
    51   25   27 1
    52   26   52 1
    53   28   29 2
    54   28   30 1
@<TRIPOS>MOLECULE
CHEMBL78442__1
   52    54     0     0     0
SMALL
USER_CHARGES

@<TRIPOS>ATOM
      1 C1         -0.0187    1.5258    0.0104 C.3       1 <0>        -0.1662
      2 C2          0.0021   -0.0041    0.0020 C.3       1 <0>         0.0901
      3 C3          0.7421   -0.5109    1.2415 C.3       1 <0>        -0.1433
      4 O1         -1.3386   -0.4987    0.0122 O.3       1 <0>        -0.3611
      5 C4         -1.8963   -0.6929   -1.2891 C.3       1 <0>         0.0328
      6 C5         -2.9116   -1.8366   -1.2433 C.3       1 <0>        -0.0624
      7 C6         -2.2019   -3.1254   -0.9173 C.ar      1 <0>        -0.0932
      8 C7         -1.6990   -3.9132   -1.9363 C.ar      1 <0>        -0.0825
      9 C8         -1.0485   -5.0954   -1.6401 C.ar      1 <0>        -0.1485
     10 C9         -0.8997   -5.4917   -0.3190 C.ar      1 <0>         0.1105
     11 C10        -1.4048   -4.6993    0.7016 C.ar      1 <0>        -0.2063
     12 C11        -2.0499   -3.5154    0.4004 C.ar      1 <0>        -0.0617
     13 O2         -0.2606   -6.6545   -0.0251 O.3       1 <0>        -0.3146
     14 C12        -0.1441   -6.9994    1.3568 C.3       1 <0>         0.0696
     15 C13         0.5990   -8.3303    1.4894 C.3       1 <0>        -0.0359
     16 C14         0.7217   -8.6940    2.9466 C.2       1 <0>         0.2627
     17 N1          1.7282   -8.3429    3.7500 N.2       1 <0>        -0.5275
     18 C15         1.5276   -8.8219    4.9571 C.2       1 <0>         0.3383
     19 O3          0.3672   -9.5008    4.9471 O.3       1 <0>        -0.0972
     20 N2         -0.1404   -9.3969    3.6253 N.2       1 <0>        -0.3270
     21 C16         2.4211   -8.6457    6.1214 C.ar      1 <0>        -0.0358
     22 C17         3.5999   -7.9087    5.9950 C.ar      1 <0>        -0.0480
     23 C18         4.4296   -7.7473    7.0851 C.ar      1 <0>        -0.1103
     24 C19         4.0962   -8.3142    8.3024 C.ar      1 <0>        -0.0745
     25 C20         2.9287   -9.0464    8.4352 C.ar      1 <0>        -0.0428
     26 C21         2.0868   -9.2105    7.3528 C.ar      1 <0>        -0.0636
     27 Cl1         2.5193   -9.7543    9.9665 Cl        1 <0>        -0.0541
     28 C22        -2.5841    0.5718   -1.7347 C.2       1 <0>         0.4773
     29 O4         -3.0495    0.6491   -2.8589 O.co2     1 <0>        -0.7017
     30 O5         -2.6751    1.5178   -0.9709 O.co2     1 <0>        -0.6726
     31 H1          1.0039    1.9031    0.0027 H         1 <0>         0.0380
     32 H2         -0.5459    1.8868   -0.8726 H         1 <0>         0.0779
     33 H3         -0.5289    1.8773    0.9072 H         1 <0>         0.0574
     34 H4          0.5123   -0.3556   -0.8948 H         1 <0>         0.0427
     35 H5          0.2319   -0.1594    2.1383 H         1 <0>         0.0586
     36 H6          0.7568   -1.6008    1.2356 H         1 <0>         0.0521
     37 H7          1.7647   -0.1336    1.2338 H         1 <0>         0.0587
     38 H8         -1.1010   -0.9409   -1.9920 H         1 <0>         0.0483
     39 H9         -3.6583   -1.6290   -0.4769 H         1 <0>         0.0731
     40 H10        -3.4013   -1.9266   -2.2129 H         1 <0>         0.0870
     41 H11        -1.8152   -3.6042   -2.9646 H         1 <0>         0.1296
     42 H12        -0.6565   -5.7107   -2.4364 H         1 <0>         0.1266
     43 H13        -1.2902   -5.0057    1.7309 H         1 <0>         0.1199
     44 H14        -2.4395   -2.8960    1.1948 H         1 <0>         0.1265
     45 H15         0.4099   -6.2202    1.8803 H         1 <0>         0.0707
     46 H16        -1.1387   -7.0935    1.7928 H         1 <0>         0.0660
     47 H17         0.0450   -9.1094    0.9658 H         1 <0>         0.1094
     48 H18         1.5935   -8.2361    1.0533 H         1 <0>         0.1158
     49 H19         3.8621   -7.4661    5.0454 H         1 <0>         0.1513
     50 H20         5.3418   -7.1773    6.9881 H         1 <0>         0.1482
     51 H21         4.7497   -8.1853    9.1526 H         1 <0>         0.1441
     52 H22         1.1742   -9.7783    7.4581 H         1 <0>         0.1477
@<TRIPOS>BOND
     1    1    2 1
     2    1   31 1
     3    1   32 1
     4    1   33 1
     5    2    3 1
     6    2    4 1
     7    2   34 1
     8    3   35 1
     9    3   36 1
    10    3   37 1
    11    4    5 1
    12    5    6 1
    13    5   28 1
    14    5   38 1
    15    6    7 1
    16    6   39 1
    17    6   40 1
    18    7   12 ar
    19    7    8 ar
    20    8    9 ar
    21    8   41 1
    22    9   10 ar
    23    9   42 1
    24   10   11 ar
    25   10   13 1
    26   11   12 ar
    27   11   43 1
    28   12   44 1
    29   13   14 1
    30   14   15 1
    31   14   45 1
    32   14   46 1
    33   15   16 1
    34   15   47 1
    35   15   48 1
    36   16   20 2
    37   16   17 1
    38   17   18 2
    39   18   19 1
    40   18   21 1
    41   19   20 1
    42   21   26 ar
    43   21   22 ar
    44   22   23 ar
    45   22   49 1
    46   23   24 ar
    47   23   50 1
    48   24   25 ar
    49   24   51 1
    50   25   26 ar
    51   25   27 1
    52   26   52 1
    53   28   29 2
    54   28   30 1
@<TRIPOS>MOLECULE
CHEMBL200495
   56    59     0     0     0
SMALL
USER_CHARGES

@<TRIPOS>ATOM
      1 C1         -0.0187    1.5258    0.0104 C.3       1 <0>        -0.1518
      2 C2          0.0021   -0.0041    0.0020 C.3       1 <0>        -0.1174
      3 C3          0.7421   -0.5109    1.2415 C.3       1 <0>        -0.0693
      4 C4          0.7625   -2.0177    1.2333 C.ar      1 <0>        -0.1237
      5 C5         -0.2618   -2.7295    1.8327 C.ar      1 <0>         0.2032
      6 C6         -0.2503   -4.1223    1.8294 C.ar      1 <0>        -0.2158
      7 C7          0.7717   -4.8044    1.2346 C.ar      1 <0>         0.0018
      8 C8          1.8143   -4.1024    0.6239 C.ar      1 <0>        -0.2136
      9 C9          1.8057   -2.6968    0.6194 C.ar      1 <0>         0.1304
     10 O1          2.9142   -2.2956   -0.0353 O.3       1 <0>        -0.0563
     11 N1          3.6416   -3.4301   -0.4619 N.2       1 <0>        -0.2268
     12 C10         3.0298   -4.5107   -0.0846 C.2       1 <0>         0.0489
     13 C11         3.4787   -5.9260   -0.3428 C.3       1 <0>         0.5553
     14 F1          2.9526   -6.3671   -1.5617 F         1 <0>        -0.1559
     15 F2          4.8760   -5.9698   -0.3949 F         1 <0>        -0.1568
     16 F3          3.0242   -6.7548    0.6885 F         1 <0>        -0.1545
     17 O2         -1.2855   -2.0651    2.4291 O.3       1 <0>        -0.2933
     18 C12        -2.3113   -2.8583    3.0296 C.3       1 <0>         0.0585
     19 C13        -3.3699   -1.9415    3.6458 C.3       1 <0>        -0.1186
     20 C14        -4.4682   -2.7907    4.2888 C.3       1 <0>         0.0665
     21 O3         -5.4569   -1.9344    4.8643 O.3       1 <0>        -0.3169
     22 C15        -6.5102   -2.5345    5.4805 C.ar      1 <0>         0.0849
     23 C16        -6.5833   -3.9243    5.5327 C.ar      1 <0>        -0.1889
     24 C17        -7.6424   -4.5481    6.1530 C.ar      1 <0>        -0.0759
     25 C18        -8.6524   -3.7892    6.7351 C.ar      1 <0>         0.0884
     26 C19        -8.5816   -2.3857    6.6841 C.ar      1 <0>        -0.0751
     27 C20        -7.4998   -1.7636    6.0568 C.ar      1 <0>        -0.1111
     28 C21        -9.7760   -1.8941    7.3752 C.2       1 <0>        -0.2343
     29 C22       -10.4652   -2.9713    7.7835 C.2       1 <0>         0.0797
     30 N2         -9.8102   -4.1130    7.4106 N.pl3     1 <0>        -0.4416
     31 C23       -10.2705   -5.4761    7.6870 C.3       1 <0>         0.0318
     32 C24        -9.6169   -5.9811    8.9474 C.2       1 <0>         0.4800
     33 O4         -8.8387   -5.2685    9.5583 O.co2     1 <0>        -0.6713
     34 O5         -9.8662   -7.1024    9.3563 O.co2     1 <0>        -0.6926
     35 H1          1.0039    1.9031    0.0027 H         1 <0>         0.0540
     36 H2         -0.5459    1.8868   -0.8726 H         1 <0>         0.0550
     37 H3         -0.5289    1.8773    0.9072 H         1 <0>         0.0571
     38 H4         -1.0205   -0.3814    0.0098 H         1 <0>         0.0657
     39 H5          0.5123   -0.3556   -0.8948 H         1 <0>         0.0592
     40 H6          1.7647   -0.1336    1.2338 H         1 <0>         0.0750
     41 H7          0.2319   -0.1594    2.1383 H         1 <0>         0.0863
     42 H8         -1.0553   -4.6663    2.3009 H         1 <0>         0.1498
     43 H9          0.7747   -5.8844    1.2363 H         1 <0>         0.1451
     44 H10        -2.7742   -3.4889    2.2706 H         1 <0>         0.0738
     45 H11        -1.8767   -3.4858    3.8077 H         1 <0>         0.0744
     46 H12        -2.9070   -1.3108    4.4049 H         1 <0>         0.0878
     47 H13        -3.8045   -1.3139    2.8677 H         1 <0>         0.0872
     48 H14        -4.9311   -3.4213    3.5298 H         1 <0>         0.0620
     49 H15        -4.0336   -3.4182    5.0669 H         1 <0>         0.0632
     50 H16        -5.8020   -4.5183    5.0821 H         1 <0>         0.1226
     51 H17        -7.6892   -5.6265    6.1873 H         1 <0>         0.1180
     52 H18        -7.4399   -0.6860    6.0192 H         1 <0>         0.1237
     53 H19       -10.0500   -0.8606    7.5279 H         1 <0>         0.1414
     54 H20       -11.3986   -2.9412    8.3261 H         1 <0>         0.1607
     55 H21       -11.3530   -5.4752    7.8142 H         1 <0>         0.0878
     56 H22       -10.0031   -6.1258    6.8536 H         1 <0>         0.0823
@<TRIPOS>BOND
     1    1    2 1
     2    1   35 1
     3    1   36 1
     4    1   37 1
     5    2    3 1
     6    2   38 1
     7    2   39 1
     8    3    4 1
     9    3   40 1
    10    3   41 1
    11    4    9 ar
    12    4    5 ar
    13    5    6 ar
    14    5   17 1
    15    6    7 ar
    16    6   42 1
    17    7    8 ar
    18    7   43 1
    19    8   12 1
    20    8    9 ar
    21    9   10 1
    22   10   11 1
    23   11   12 2
    24   12   13 1
    25   13   14 1
    26   13   15 1
    27   13   16 1
    28   17   18 1
    29   18   19 1
    30   18   44 1
    31   18   45 1
    32   19   20 1
    33   19   46 1
    34   19   47 1
    35   20   21 1
    36   20   48 1
    37   20   49 1
    38   21   22 1
    39   22   27 ar
    40   22   23 ar
    41   23   24 ar
    42   23   50 1
    43   24   25 ar
    44   24   51 1
    45   25   30 1
    46   25   26 ar
    47   26   27 ar
    48   26   28 1
    49   27   52 1
    50   28   29 2
    51   28   53 1
    52   29   30 1
    53   29   54 1
    54   30   31 1
    55   31   32 1
    56   31   55 1
    57   31   56 1
    58   32   33 2
    59   32   34 1
@<TRIPOS>MOLECULE
CHEMBL231696
   68    71     0     0     0
SMALL
USER_CHARGES

@<TRIPOS>ATOM
      1 C1         -2.2838   -3.3311    3.6940 C.3       1 <0>        -0.1049
      2 C2         -1.4841   -3.1819    2.4254 C.ar      1 <0>        -0.1067
      3 C3         -1.6041   -4.1204    1.4193 C.ar      1 <0>        -0.0603
      4 C4         -0.8668   -3.9827    0.2502 C.ar      1 <0>        -0.1360
      5 C5         -0.0094   -2.9005    0.0943 C.ar      1 <0>        -0.0944
      6 C6          0.1090   -1.9635    1.1014 C.ar      1 <0>        -0.1961
      7 C7         -0.6321   -2.0991    2.2664 C.ar      1 <0>         0.1401
      8 O1         -0.5193   -1.1723    3.2553 O.3       1 <0>        -0.2752
      9 C8          0.3765   -0.0831    3.0245 C.3       1 <0>        -0.0082
     10 C9          0.3699    0.8347    4.2197 C.2       1 <0>         0.5016
     11 O2         -0.3364    0.5797    5.1802 O.co2     1 <0>        -0.6699
     12 O3          1.0709    1.8322    4.2263 O.co2     1 <0>        -0.6871
     13 S1         -1.0185   -5.1796   -1.0339 S.3       1 <0>        -0.1216
     14 C10         0.1103   -4.5850   -2.3235 C.3       1 <0>        -0.0903
     15 C11         0.0764   -5.5312   -3.4960 C.2       1 <0>        -0.1250
     16 C12         1.1342   -6.2448   -3.7925 C.2       1 <0>        -0.1243
     17 C13         2.3242   -6.2483   -2.8679 C.3       1 <0>         0.0880
     18 C14         3.4628   -5.5922   -3.5312 C.1       1 <0>        -0.1474
     19 C15         4.3709   -5.0690   -4.0602 C.1       1 <0>        -0.1283
     20 C16         5.4786   -4.4307   -4.7055 C.ar      1 <0>        -0.0197
     21 C17         5.3369   -3.9205   -5.9969 C.ar      1 <0>        -0.0546
     22 C18         6.4054   -3.3063   -6.6146 C.ar      1 <0>        -0.1496
     23 C19         7.6216   -3.1954   -5.9538 C.ar      1 <0>         0.1355
     24 C20         7.7668   -3.7021   -4.6692 C.ar      1 <0>        -0.2080
     25 C21         6.7011   -4.3121   -4.0424 C.ar      1 <0>        -0.0543
     26 O4          8.6725   -2.5898   -6.5660 O.3       1 <0>        -0.3154
     27 C22         9.8944   -2.5098   -5.8293 C.3       1 <0>         0.0255
     28 C23         2.6919   -7.6696   -2.5278 C.ar      1 <0>        -0.0681
     29 C24         3.0519   -8.5479   -3.5340 C.ar      1 <0>        -0.1019
     30 C25         3.3896   -9.8507   -3.2281 C.ar      1 <0>        -0.1100
     31 C26         3.3674  -10.2806   -1.9029 C.ar      1 <0>        -0.0464
     32 C27         3.0041   -9.3917   -0.8934 C.ar      1 <0>        -0.1057
     33 C28         2.6737   -8.0895   -1.2100 C.ar      1 <0>        -0.1000
     34 C29         3.7290  -11.6803   -1.5680 C.ar      1 <0>        -0.0429
     35 C30         4.0975  -12.5678   -2.5770 C.ar      1 <0>        -0.1123
     36 C31         4.4333  -13.8684   -2.2598 C.ar      1 <0>        -0.1186
     37 C32         4.4041  -14.2915   -0.9432 C.ar      1 <0>        -0.1211
     38 C33         4.0386  -13.4148    0.0623 C.ar      1 <0>        -0.1170
     39 C34         3.7069  -12.1103   -0.2428 C.ar      1 <0>        -0.1106
     40 H1         -3.2429   -2.8258    3.5804 H         1 <0>         0.0681
     41 H2         -2.4521   -4.3891    3.8951 H         1 <0>         0.0605
     42 H3         -1.7348   -2.8864    4.5240 H         1 <0>         0.0795
     43 H4         -2.2706   -4.9614    1.5417 H         1 <0>         0.1290
     44 H5          0.5646   -2.7926   -0.8142 H         1 <0>         0.1182
     45 H6          0.7754   -1.1223    0.9804 H         1 <0>         0.1313
     46 H7          1.3841   -0.4683    2.8677 H         1 <0>         0.0590
     47 H8          0.0570    0.4691    2.1406 H         1 <0>         0.0591
     48 H9         -0.2004   -3.5921   -2.6488 H         1 <0>         0.0989
     49 H10         1.1237   -4.5363   -1.9251 H         1 <0>         0.0954
     50 H11        -0.8199   -5.6209   -4.0918 H         1 <0>         0.1289
     51 H12         1.1534   -6.8306   -4.6996 H         1 <0>         0.1250
     52 H13         2.0759   -5.7086   -1.9541 H         1 <0>         0.1137
     53 H14         4.3914   -4.0070   -6.5118 H         1 <0>         0.1350
     54 H15         6.2965   -2.9112   -7.6138 H         1 <0>         0.1371
     55 H16         8.7145   -3.6146   -4.1588 H         1 <0>         0.1329
     56 H17         6.8134   -4.7017   -3.0414 H         1 <0>         0.1290
     57 H18        10.2375   -3.5150   -5.5845 H         1 <0>         0.0566
     58 H19        10.6495   -2.0047   -6.4316 H         1 <0>         0.1014
     59 H20         9.7281   -1.9487   -4.9097 H         1 <0>         0.0573
     60 H21         3.0684   -8.2136   -4.5608 H         1 <0>         0.1230
     61 H22         3.6701  -10.5357   -4.0145 H         1 <0>         0.1248
     62 H23         2.9849   -9.7198    0.1354 H         1 <0>         0.1279
     63 H24         2.3965   -7.3983   -0.4278 H         1 <0>         0.1297
     64 H25         4.1200  -12.2387   -3.6054 H         1 <0>         0.1245
     65 H26         4.7191  -14.5571   -3.0411 H         1 <0>         0.1231
     66 H27         4.6673  -15.3101   -0.6995 H         1 <0>         0.1218
     67 H28         4.0172  -13.7504    1.0886 H         1 <0>         0.1243
     68 H29         3.4260  -11.4253    0.5435 H         1 <0>         0.1266
@<TRIPOS>BOND
     1    1    2 1
     2    1   40 1
     3    1   41 1
     4    1   42 1
     5    2    7 ar
     6    2    3 ar
     7    3    4 ar
     8    3   43 1
     9    4    5 ar
    10    4   13 1
    11    5    6 ar
    12    5   44 1
    13    6    7 ar
    14    6   45 1
    15    7    8 1
    16    8    9 1
    17    9   10 1
    18    9   46 1
    19    9   47 1
    20   10   11 2
    21   10   12 1
    22   13   14 1
    23   14   15 1
    24   14   48 1
    25   14   49 1
    26   15   16 2
    27   15   50 1
    28   16   17 1
    29   16   51 1
    30   17   18 1
    31   17   28 1
    32   17   52 1
    33   18   19 3
    34   19   20 1
    35   20   25 ar
    36   20   21 ar
    37   21   22 ar
    38   21   53 1
    39   22   23 ar
    40   22   54 1
    41   23   24 ar
    42   23   26 1
    43   24   25 ar
    44   24   55 1
    45   25   56 1
    46   26   27 1
    47   27   57 1
    48   27   58 1
    49   27   59 1
    50   28   33 ar
    51   28   29 ar
    52   29   30 ar
    53   29   60 1
    54   30   31 ar
    55   30   61 1
    56   31   32 ar
    57   31   34 1
    58   32   33 ar
    59   32   62 1
    60   33   63 1
    61   34   39 ar
    62   34   35 ar
    63   35   36 ar
    64   35   64 1
    65   36   37 ar
    66   36   65 1
    67   37   38 ar
    68   37   66 1
    69   38   39 ar
    70   38   67 1
    71   39   68 1
@<TRIPOS>MOLECULE
CHEMBL231696__1
   68    71     0     0     0
SMALL
USER_CHARGES

@<TRIPOS>ATOM
      1 C1         -0.2655    1.7615   -0.5158 C.3       1 <0>        -0.1051
      2 C2         -0.1163    0.2648   -0.4233 C.ar      1 <0>        -0.1060
      3 C3         -0.1713   -0.5064   -1.5678 C.ar      1 <0>        -0.0604
      4 C4         -0.0337   -1.8859   -1.4823 C.ar      1 <0>        -0.1349
      5 C5          0.1592   -2.4885   -0.2452 C.ar      1 <0>        -0.0951
      6 C6          0.2139   -1.7155    0.8975 C.ar      1 <0>        -0.1960
      7 C7          0.0820   -0.3372    0.8103 C.ar      1 <0>         0.1398
      8 O1          0.1420    0.4237    1.9359 O.3       1 <0>        -0.2753
      9 C8          0.3483   -0.2622    3.1725 C.3       1 <0>        -0.0080
     10 C9          0.3867    0.7364    4.3005 C.2       1 <0>         0.5015
     11 O2          0.2500    1.9252    4.0671 O.co2     1 <0>        -0.6698
     12 O3          0.5544    0.3554    5.4465 O.co2     1 <0>        -0.6873
     13 S1         -0.1042   -2.8711   -2.9414 S.3       1 <0>        -0.1145
     14 C10         0.1204   -4.5668   -2.3373 C.3       1 <0>        -0.0922
     15 C11         0.0801   -5.5239   -3.5006 C.2       1 <0>        -0.1254
     16 C12         1.1342   -6.2448   -3.7925 C.2       1 <0>        -0.1251
     17 C13         2.3242   -6.2483   -2.8679 C.3       1 <0>         0.0881
     18 C14         2.6834   -7.6366   -2.5357 C.1       1 <0>        -0.1428
     19 C15         2.9699   -8.7438   -2.2707 C.1       1 <0>        -0.1304
     20 C16         3.3193  -10.0944   -1.9475 C.ar      1 <0>        -0.0185
     21 C17         2.5862  -11.1543   -2.4837 C.ar      1 <0>        -0.0550
     22 C18         2.9259  -12.4531   -2.1705 C.ar      1 <0>        -0.1495
     23 C19         3.9956  -12.7076   -1.3225 C.ar      1 <0>         0.1349
     24 C20         4.7271  -11.6559   -0.7866 C.ar      1 <0>        -0.2081
     25 C21         4.3974  -10.3546   -1.1000 C.ar      1 <0>        -0.0549
     26 O4          4.3271  -13.9890   -1.0158 O.3       1 <0>        -0.3155
     27 C22         5.4382  -14.1793   -0.1376 C.3       1 <0>         0.0256
     28 C23         3.4899   -5.5766   -3.5470 C.ar      1 <0>        -0.0706
     29 C24         3.9811   -6.0851   -4.7359 C.ar      1 <0>        -0.1007
     30 C25         5.0485   -5.4739   -5.3621 C.ar      1 <0>        -0.1095
     31 C26         5.6313   -4.3427   -4.7945 C.ar      1 <0>        -0.0451
     32 C27         5.1325   -3.8348   -3.5967 C.ar      1 <0>        -0.1034
     33 C28         4.0611   -4.4506   -2.9820 C.ar      1 <0>        -0.0999
     34 C29         6.7795   -3.6816   -5.4629 C.ar      1 <0>        -0.0431
     35 C30         7.2749   -4.1864   -6.6634 C.ar      1 <0>        -0.1123
     36 C31         8.3427   -3.5673   -7.2810 C.ar      1 <0>        -0.1190
     37 C32         8.9211   -2.4480   -6.7102 C.ar      1 <0>        -0.1209
     38 C33         8.4336   -1.9429   -5.5183 C.ar      1 <0>        -0.1166
     39 C34         7.3623   -2.5505   -4.8953 C.ar      1 <0>        -0.1099
     40 H1          0.7150    2.2165   -0.6555 H         1 <0>         0.0681
     41 H2         -0.9058    2.0112   -1.3618 H         1 <0>         0.0605
     42 H3         -0.7138    2.1394    0.4031 H         1 <0>         0.0796
     43 H4         -0.3216   -0.0370   -2.5287 H         1 <0>         0.1288
     44 H5          0.2660   -3.5610   -0.1776 H         1 <0>         0.1179
     45 H6          0.3638   -2.1837    1.8592 H         1 <0>         0.1313
     46 H7         -0.4673   -0.9661    3.3380 H         1 <0>         0.0589
     47 H8          1.2935   -0.8037    3.1343 H         1 <0>         0.0590
     48 H9          1.0832   -4.6482   -1.8330 H         1 <0>         0.0956
     49 H10        -0.6784   -4.8119   -1.6373 H         1 <0>         0.0962
     50 H11        -0.8179   -5.6155   -4.0937 H         1 <0>         0.1283
     51 H12         1.1504   -6.8366   -4.6958 H         1 <0>         0.1243
     52 H13         2.0759   -5.7086   -1.9541 H         1 <0>         0.1122
     53 H14         1.7536  -10.9571   -3.1428 H         1 <0>         0.1353
     54 H15         2.3592  -13.2737   -2.5850 H         1 <0>         0.1371
     55 H16         5.5579  -11.8579   -0.1269 H         1 <0>         0.1329
     56 H17         4.9697   -9.5372   -0.6867 H         1 <0>         0.1290
     57 H18         5.2347  -13.6931    0.8165 H         1 <0>         0.0569
     58 H19         5.5950  -15.2457    0.0242 H         1 <0>         0.1014
     59 H20         6.3326  -13.7441   -0.5836 H         1 <0>         0.0569
     60 H21         3.5288   -6.9621   -5.1748 H         1 <0>         0.1218
     61 H22         5.4315   -5.8719   -6.2902 H         1 <0>         0.1246
     62 H23         5.5807   -2.9585   -3.1523 H         1 <0>         0.1280
     63 H24         3.6706   -4.0550   -2.0561 H         1 <0>         0.1260
     64 H25         6.8245   -5.0607   -7.1096 H         1 <0>         0.1241
     65 H26         8.7275   -3.9577   -8.2115 H         1 <0>         0.1228
     66 H27         9.7567   -1.9669   -7.1967 H         1 <0>         0.1218
     67 H28         8.8892   -1.0689   -5.0768 H         1 <0>         0.1247
     68 H29         6.9796   -2.1527   -3.9670 H         1 <0>         0.1269
@<TRIPOS>BOND
     1    1    2 1
     2    1   40 1
     3    1   41 1
     4    1   42 1
     5    2    7 ar
     6    2    3 ar
     7    3    4 ar
     8    3   43 1
     9    4    5 ar
    10    4   13 1
    11    5    6 ar
    12    5   44 1
    13    6    7 ar
    14    6   45 1
    15    7    8 1
    16    8    9 1
    17    9   10 1
    18    9   46 1
    19    9   47 1
    20   10   11 2
    21   10   12 1
    22   13   14 1
    23   14   15 1
    24   14   48 1
    25   14   49 1
    26   15   16 2
    27   15   50 1
    28   16   17 1
    29   16   51 1
    30   17   18 1
    31   17   28 1
    32   17   52 1
    33   18   19 3
    34   19   20 1
    35   20   25 ar
    36   20   21 ar
    37   21   22 ar
    38   21   53 1
    39   22   23 ar
    40   22   54 1
    41   23   24 ar
    42   23   26 1
    43   24   25 ar
    44   24   55 1
    45   25   56 1
    46   26   27 1
    47   27   57 1
    48   27   58 1
    49   27   59 1
    50   28   33 ar
    51   28   29 ar
    52   29   30 ar
    53   29   60 1
    54   30   31 ar
    55   30   61 1
    56   31   32 ar
    57   31   34 1
    58   32   33 ar
    59   32   62 1
    60   33   63 1
    61   34   39 ar
    62   34   35 ar
    63   35   36 ar
    64   35   64 1
    65   36   37 ar
    66   36   65 1
    67   37   38 ar
    68   37   66 1
    69   38   39 ar
    70   38   67 1
    71   39   68 1
@<TRIPOS>MOLECULE
CHEMBL250673
   64    67     0     0     0
SMALL
USER_CHARGES

@<TRIPOS>ATOM
      1 C1         -2.5404   -3.1051   -7.2901 C.3       1 <0>        -0.1049
      2 C2         -1.2256   -3.0722   -6.5546 C.ar      1 <0>        -0.1315
      3 C3         -1.2076   -3.0321   -5.1742 C.ar      1 <0>        -0.0260
      4 C4          0.0044   -3.0019   -4.4965 C.ar      1 <0>        -0.2114
      5 C5          1.1976   -3.0120   -5.2082 C.ar      1 <0>        -0.0226
      6 C6          1.1774   -3.0521   -6.5880 C.ar      1 <0>        -0.2230
      7 C7         -0.0337   -3.0880   -7.2639 C.ar      1 <0>         0.1795
      8 O1         -0.0524   -3.1336   -8.6229 O.3       1 <0>        -0.2686
      9 C8          1.2117   -3.1475   -9.2890 C.3       1 <0>        -0.0113
     10 C9          0.9938   -3.1988  -10.7793 C.2       1 <0>         0.5020
     11 O2         -0.1391   -3.2214  -11.2293 O.co2     1 <0>        -0.6682
     12 O3          1.9504   -3.2177  -11.5350 O.co2     1 <0>        -0.6844
     13 S1          0.0286   -2.9501   -2.7354 S.3       1 <0>         0.0338
     14 C10        -0.0950   -4.6415   -2.2575 C.ar      1 <0>        -0.0559
     15 C11        -0.0617   -5.6567   -3.2129 C.ar      1 <0>        -0.1371
     16 C12        -0.1620   -6.9830   -2.7998 C.ar      1 <0>         0.2619
     17 N1         -0.2881   -7.2858   -1.5130 N.ar      1 <0>        -0.4624
     18 C13        -0.3234   -6.3442   -0.5751 C.ar      1 <0>         0.2418
     19 C14        -0.2224   -4.9953   -0.9160 C.ar      1 <0>        -0.1216
     20 C15        -0.4606   -6.7189    0.8002 C.1       1 <0>        -0.0744
     21 C16        -0.5732   -7.0261    1.9277 C.1       1 <0>        -0.1023
     22 C17        -0.7104   -7.4008    3.3029 C.ar      1 <0>         0.0526
     23 C18        -0.8008   -8.7495    3.6575 C.ar      1 <0>        -0.0928
     24 C19        -0.9324   -9.1029    4.9841 C.ar      1 <0>        -0.0679
     25 C20        -0.9749   -8.1257    5.9630 C.ar      1 <0>        -0.1771
     26 C21        -0.8859   -6.7882    5.6195 C.ar      1 <0>        -0.0682
     27 C22        -0.7487   -6.4199    4.2975 C.ar      1 <0>        -0.0945
     28 C23        -1.1193   -8.5201    7.4103 C.3       1 <0>         0.5085
     29 F1          0.1487   -8.7003    7.9733 F         1 <0>        -0.1751
     30 F2         -1.7980   -7.5117    8.1030 F         1 <0>        -0.1759
     31 F3         -1.8426   -9.7143    7.4983 F         1 <0>        -0.1759
     32 C24        -0.1292   -8.0321   -3.7739 C.1       1 <0>        -0.1322
     33 C25        -0.1024   -8.8922   -4.5725 C.1       1 <0>        -0.1022
     34 C26        -0.0687   -9.9707   -5.5738 C.3       1 <0>         0.1656
     35 N2         -0.1902  -11.2697   -4.8987 N.3       1 <0>        -0.5348
     36 C27         0.9880  -11.5410   -4.0624 C.3       1 <0>         0.0181
     37 C28         0.7934  -12.8728   -3.3328 C.3       1 <0>         0.0619
     38 O4          0.5612  -13.9071   -4.2929 O.3       1 <0>        -0.3841
     39 C29        -0.5793  -13.6754   -5.1241 C.3       1 <0>         0.0606
     40 C30        -0.3986  -12.3517   -5.8718 C.3       1 <0>         0.0201
     41 H1         -2.8508   -4.1401   -7.4335 H         1 <0>         0.0680
     42 H2         -3.2956   -2.5766   -6.7083 H         1 <0>         0.0617
     43 H3         -2.4259   -2.6224   -8.2607 H         1 <0>         0.0805
     44 H4         -2.1357   -3.0239   -4.6220 H         1 <0>         0.1335
     45 H5          2.1405   -2.9881   -4.6822 H         1 <0>         0.1311
     46 H6          2.1049   -3.0600   -7.1414 H         1 <0>         0.1372
     47 H7          1.7668   -2.2448   -9.0338 H         1 <0>         0.0624
     48 H8          1.7786   -4.0237   -8.9744 H         1 <0>         0.0626
     49 H9          0.0403   -5.4173   -4.2611 H         1 <0>         0.1478
     50 H10        -0.2471   -4.2344   -0.1500 H         1 <0>         0.1487
     51 H11        -0.7681   -9.5132    2.8945 H         1 <0>         0.1430
     52 H12        -1.0027  -10.1448    5.2596 H         1 <0>         0.1430
     53 H13        -0.9198   -6.0310    6.3889 H         1 <0>         0.1432
     54 H14        -0.6748   -5.3759    4.0312 H         1 <0>         0.1430
     55 H15        -0.8968   -9.8448   -6.2714 H         1 <0>         0.1071
     56 H16         0.8745   -9.9312   -6.1187 H         1 <0>         0.0668
     57 H17         1.8761  -11.5972   -4.6919 H         1 <0>         0.0450
     58 H18         1.1085  -10.7404   -3.3325 H         1 <0>         0.0859
     59 H19         1.6884  -13.1060   -2.7560 H         1 <0>         0.0993
     60 H20        -0.0632  -12.7991   -2.6628 H         1 <0>         0.0662
     61 H21        -0.6771  -14.4890   -5.8428 H         1 <0>         0.1008
     62 H22        -1.4758  -13.6250   -4.5062 H         1 <0>         0.0664
     63 H23        -1.2904  -12.1429   -6.4629 H         1 <0>         0.0906
     64 H24         0.4673  -12.4209   -6.5303 H         1 <0>         0.0459
@<TRIPOS>BOND
     1    1    2 1
     2    1   41 1
     3    1   42 1
     4    1   43 1
     5    2    7 ar
     6    2    3 ar
     7    3    4 ar
     8    3   44 1
     9    4    5 ar
    10    4   13 1
    11    5    6 ar
    12    5   45 1
    13    6    7 ar
    14    6   46 1
    15    7    8 1
    16    8    9 1
    17    9   10 1
    18    9   47 1
    19    9   48 1
    20   10   11 2
    21   10   12 1
    22   13   14 1
    23   14   19 ar
    24   14   15 ar
    25   15   16 ar
    26   15   49 1
    27   16   17 ar
    28   16   32 1
    29   17   18 ar
    30   18   19 ar
    31   18   20 1
    32   19   50 1
    33   20   21 3
    34   21   22 1
    35   22   27 ar
    36   22   23 ar
    37   23   24 ar
    38   23   51 1
    39   24   25 ar
    40   24   52 1
    41   25   26 ar
    42   25   28 1
    43   26   27 ar
    44   26   53 1
    45   27   54 1
    46   28   29 1
    47   28   30 1
    48   28   31 1
    49   32   33 3
    50   33   34 1
    51   34   35 1
    52   34   55 1
    53   34   56 1
    54   35   40 1
    55   35   36 1
    56   36   37 1
    57   36   57 1
    58   36   58 1
    59   37   38 1
    60   37   59 1
    61   37   60 1
    62   38   39 1
    63   39   40 1
    64   39   61 1
    65   39   62 1
    66   40   63 1
    67   40   64 1
@<TRIPOS>MOLECULE
CHEMBL400300
   68    72     0     0     0
SMALL
USER_CHARGES

@<TRIPOS>ATOM
      1 C1         -0.0360    1.4457    0.0362 C.ar      1 <0>        -0.0923
      2 C2          1.1459    2.1565    0.0337 C.ar      1 <0>        -0.0679
      3 C3          2.3583    1.4895    0.0193 C.ar      1 <0>        -0.1751
      4 C4          2.3947    0.1062    0.0067 C.ar      1 <0>        -0.0683
      5 C5          1.2209   -0.6179    0.0090 C.ar      1 <0>        -0.0912
      6 C6         -0.0072    0.0486    0.0240 C.ar      1 <0>         0.0480
      7 C7         -1.2301   -0.6963    0.0269 C.1       1 <0>        -0.0880
      8 C8         -2.2328   -1.3071    0.0293 C.1       1 <0>        -0.0867
      9 C9         -3.4557   -2.0520    0.0323 C.ar      1 <0>         0.2306
     10 C10        -4.6757   -1.3757    0.0415 C.ar      1 <0>        -0.0857
     11 C11        -5.8596   -2.1102    0.0438 C.ar      1 <0>        -0.0851
     12 C12        -5.7786   -3.5024    0.0367 C.ar      1 <0>        -0.0857
     13 C13        -4.5259   -4.1108    0.0277 C.ar      1 <0>         0.2408
     14 N1         -3.4165   -3.3809    0.0206 N.ar      1 <0>        -0.4346
     15 C14        -4.4331   -5.5397    0.0204 C.1       1 <0>        -0.1288
     16 C15        -4.3570   -6.7113    0.0144 C.1       1 <0>        -0.1029
     17 C16        -4.2616   -8.1801    0.0069 C.3       1 <0>         0.1649
     18 N2         -2.8478   -8.5790   -0.0020 N.3       1 <0>        -0.5353
     19 C17        -2.1976   -8.1864   -1.2607 C.3       1 <0>         0.0144
     20 C18        -0.7156   -8.5665   -1.2034 C.3       1 <0>         0.0645
     21 O1         -0.5978   -9.9686   -0.9474 O.3       1 <0>        -0.3851
     22 C19        -1.2196  -10.3857    0.2711 C.3       1 <0>         0.0634
     23 C20        -2.7066  -10.0240    0.2288 C.3       1 <0>         0.0174
     24 S1         -7.4235   -1.2986    0.0559 S.3       1 <0>         0.0048
     25 C21        -7.7436   -0.9646   -1.6442 C.ar      1 <0>        -0.1437
     26 C22        -6.8800   -1.4459   -2.6189 C.ar      1 <0>        -0.0782
     27 C23        -7.1310   -1.1841   -3.9510 C.ar      1 <0>        -0.2009
     28 C24        -8.2444   -0.4416   -4.3128 C.ar      1 <0>         0.1602
     29 C25        -9.1103    0.0418   -3.3395 C.ar      1 <0>        -0.1185
     30 C26        -8.8642   -0.2240   -2.0069 C.ar      1 <0>        -0.0347
     31 C27        -9.9464    0.3997   -1.1518 C.3       1 <0>        -0.0794
     32 C28       -10.6385    1.4326   -2.0663 C.3       1 <0>        -0.1180
     33 C29       -10.3741    0.8644   -3.4728 C.3       1 <0>        -0.0721
     34 O2         -8.4899   -0.1850   -5.6255 O.3       1 <0>        -0.2747
     35 C30        -7.5598   -0.7110   -6.5744 C.3       1 <0>        -0.0092
     36 C31        -7.9918   -0.3286   -7.9665 C.2       1 <0>         0.5019
     37 O3         -9.0026    0.3332   -8.1309 O.co2     1 <0>        -0.6694
     38 O4         -7.3307   -0.6808   -8.9284 O.co2     1 <0>        -0.6863
     39 C32         3.6453    2.2735    0.0167 C.3       1 <0>         0.5085
     40 F1          4.0531    2.5048    1.3348 F         1 <0>        -0.1754
     41 F2          4.6330    1.5462   -0.6562 F         1 <0>        -0.1755
     42 F3          3.4446    3.4972   -0.6309 F         1 <0>        -0.1750
     43 H1         -0.9815    1.9675    0.0520 H         1 <0>         0.1435
     44 H2          1.1252    3.2362    0.0428 H         1 <0>         0.1440
     45 H3          3.3446   -0.4075   -0.0052 H         1 <0>         0.1435
     46 H4          1.2509   -1.6975   -0.0011 H         1 <0>         0.1430
     47 H5         -4.7022   -0.2960    0.0471 H         1 <0>         0.1555
     48 H6         -6.6770   -4.1018    0.0386 H         1 <0>         0.1557
     49 H7         -4.7465   -8.5803    0.8974 H         1 <0>         0.1078
     50 H8         -4.7552   -8.5718   -0.8826 H         1 <0>         0.0694
     51 H9         -2.6741   -8.7039   -2.0933 H         1 <0>         0.0480
     52 H10        -2.2920   -7.1093   -1.3987 H         1 <0>         0.0901
     53 H11        -0.2419   -8.3294   -2.1560 H         1 <0>         0.1008
     54 H12        -0.2274   -8.0084   -0.4045 H         1 <0>         0.0614
     55 H13        -1.1104  -11.4642    0.3849 H         1 <0>         0.1003
     56 H14        -0.7460   -9.8804    1.1129 H         1 <0>         0.0609
     57 H15        -3.1727  -10.2883    1.1780 H         1 <0>         0.0906
     58 H16        -3.1913  -10.5708   -0.5801 H         1 <0>         0.0483
     59 H17        -6.0129   -2.0239   -2.3354 H         1 <0>         0.1159
     60 H18        -6.4602   -1.5573   -4.7107 H         1 <0>         0.1338
     61 H19       -10.6597   -0.3596   -0.8313 H         1 <0>         0.0836
     62 H20        -9.5062    0.8954   -0.2866 H         1 <0>         0.0778
     63 H21       -11.7071    1.4813   -1.8567 H         1 <0>         0.0777
     64 H22       -10.1767    2.4144   -1.9609 H         1 <0>         0.0719
     65 H23       -10.2276    1.6686   -4.1938 H         1 <0>         0.0828
     66 H24       -11.2076    0.2307   -3.7758 H         1 <0>         0.0792
     67 H25        -6.5687   -0.3027   -6.3765 H         1 <0>         0.0594
     68 H26        -7.5288   -1.7972   -6.4891 H         1 <0>         0.0594
@<TRIPOS>BOND
     1    1    6 ar
     2    1    2 ar
     3    1   43 1
     4    2    3 ar
     5    2   44 1
     6    3    4 ar
     7    3   39 1
     8    4    5 ar
     9    4   45 1
    10    5    6 ar
    11    5   46 1
    12    6    7 1
    13    7    8 3
    14    8    9 1
    15    9   14 ar
    16    9   10 ar
    17   10   11 ar
    18   10   47 1
    19   11   12 ar
    20   11   24 1
    21   12   13 ar
    22   12   48 1
    23   13   14 ar
    24   13   15 1
    25   15   16 3
    26   16   17 1
    27   17   18 1
    28   17   49 1
    29   17   50 1
    30   18   23 1
    31   18   19 1
    32   19   20 1
    33   19   51 1
    34   19   52 1
    35   20   21 1
    36   20   53 1
    37   20   54 1
    38   21   22 1
    39   22   23 1
    40   22   55 1
    41   22   56 1
    42   23   57 1
    43   23   58 1
    44   24   25 1
    45   25   30 ar
    46   25   26 ar
    47   26   27 ar
    48   26   59 1
    49   27   28 ar
    50   27   60 1
    51   28   29 ar
    52   28   34 1
    53   29   33 1
    54   29   30 ar
    55   30   31 1
    56   31   32 1
    57   31   61 1
    58   31   62 1
    59   32   33 1
    60   32   63 1
    61   32   64 1
    62   33   65 1
    63   33   66 1
    64   34   35 1
    65   35   36 1
    66   35   67 1
    67   35   68 1
    68   36   37 2
    69   36   38 1
    70   39   40 1
    71   39   41 1
    72   39   42 1
@<TRIPOS>MOLECULE
CHEMBL513749
   46    47     0     0     0
SMALL
USER_CHARGES

@<TRIPOS>ATOM
      1 C1         -0.0184    1.5028    0.0103 C.3       1 <0>        -0.1051
      2 C2          0.0021   -0.0041    0.0020 C.ar      1 <0>        -0.1067
      3 C3          0.0057   -0.6878   -1.1980 C.ar      1 <0>        -0.0601
      4 C4          0.0246   -2.0766   -1.2053 C.ar      1 <0>        -0.1357
      5 C5          0.0397   -2.7765   -0.0051 C.ar      1 <0>        -0.0928
      6 C6          0.0360   -2.0909    1.1933 C.ar      1 <0>        -0.1962
      7 C7          0.0229   -0.7036    1.1994 C.ar      1 <0>         0.1411
      8 O1          0.0254   -0.0293    2.3804 O.3       1 <0>        -0.2749
      9 C8          0.0474   -0.8131    3.5751 C.3       1 <0>        -0.0084
     10 C9          0.0468    0.0992    4.7746 C.2       1 <0>         0.5015
     11 O2          0.0293    1.3085    4.6207 O.co2     1 <0>        -0.6697
     12 O3          0.0640   -0.3721    5.8989 O.co2     1 <0>        -0.6870
     13 S1          0.0286   -2.9502   -2.7355 S.3       1 <0>        -0.1237
     14 C10         0.0549   -4.6962   -2.2439 C.3       1 <0>        -0.0718
     15 C11         0.0604   -5.5647   -3.4755 C.2       1 <0>        -0.1047
     16 C12         1.1626   -6.1673   -3.8471 C.2       1 <0>        -0.1295
     17 C13        -1.2021   -5.7401   -4.2795 C.3       1 <0>        -0.0754
     18 S2         -2.3297   -6.8553   -3.3989 S.3       1 <0>        -0.0852
     19 C14        -3.7381   -6.9568   -4.4529 C.ar      1 <0>        -0.0533
     20 C15        -3.7617   -6.2568   -5.6532 C.ar      1 <0>        -0.1378
     21 C16        -4.8671   -6.3387   -6.4766 C.ar      1 <0>        -0.0466
     22 C17        -5.9499   -7.1162   -6.1081 C.ar      1 <0>        -0.1948
     23 C18        -5.9301   -7.8138   -4.9141 C.ar      1 <0>        -0.0487
     24 C19        -4.8256   -7.7416   -4.0886 C.ar      1 <0>        -0.1036
     25 C20        -7.1545   -7.2030   -7.0095 C.3       1 <0>         0.5103
     26 F1         -6.9922   -8.2666   -7.9037 F         1 <0>        -0.1771
     27 F2         -8.3012   -7.4144   -6.2365 F         1 <0>        -0.1765
     28 F3         -7.2884   -6.0084   -7.7253 F         1 <0>        -0.1769
     29 H1          1.0042    1.8801    0.0026 H         1 <0>         0.0683
     30 H2         -0.5455    1.8639   -0.8728 H         1 <0>         0.0606
     31 H3         -0.5286    1.8543    0.9071 H         1 <0>         0.0799
     32 H4         -0.0064   -0.1428   -2.1303 H         1 <0>         0.1288
     33 H5          0.0540   -3.8564   -0.0097 H         1 <0>         0.1188
     34 H6          0.0478   -2.6347    2.1263 H         1 <0>         0.1320
     35 H7         -0.8339   -1.4538    3.6055 H         1 <0>         0.0593
     36 H8          0.9458   -1.4302    3.5883 H         1 <0>         0.0593
     37 H9          0.9506   -4.8945   -1.6554 H         1 <0>         0.0966
     38 H10        -0.8291   -4.9187   -1.6464 H         1 <0>         0.0986
     39 H11         1.1666   -6.7897   -4.7297 H         1 <0>         0.1104
     40 H12         2.0674   -6.0416   -3.2709 H         1 <0>         0.1133
     41 H13        -1.6828   -4.7716   -4.4170 H         1 <0>         0.1060
     42 H14        -0.9569   -6.1655   -5.2527 H         1 <0>         0.0996
     43 H15        -2.9166   -5.6492   -5.9415 H         1 <0>         0.1356
     44 H16        -4.8863   -5.7947   -7.4094 H         1 <0>         0.1394
     45 H17        -6.7776   -8.4197   -4.6294 H         1 <0>         0.1415
     46 H18        -4.8087   -8.2908   -3.1588 H         1 <0>         0.1411
@<TRIPOS>BOND
     1    1    2 1
     2    1   29 1
     3    1   30 1
     4    1   31 1
     5    2    7 ar
     6    2    3 ar
     7    3    4 ar
     8    3   32 1
     9    4    5 ar
    10    4   13 1
    11    5    6 ar
    12    5   33 1
    13    6    7 ar
    14    6   34 1
    15    7    8 1
    16    8    9 1
    17    9   10 1
    18    9   35 1
    19    9   36 1
    20   10   11 2
    21   10   12 1
    22   13   14 1
    23   14   15 1
    24   14   37 1
    25   14   38 1
    26   15   16 2
    27   15   17 1
    28   16   39 1
    29   16   40 1
    30   17   18 1
    31   17   41 1
    32   17   42 1
    33   18   19 1
    34   19   24 ar
    35   19   20 ar
    36   20   21 ar
    37   20   43 1
    38   21   22 ar
    39   21   44 1
    40   22   23 ar
    41   22   25 1
    42   23   24 ar
    43   23   45 1
    44   24   46 1
    45   25   26 1
    46   25   27 1
    47   25   28 1
@<TRIPOS>MOLECULE
CHEMBL237520
   58    60     0     0     0
SMALL
USER_CHARGES

@<TRIPOS>ATOM
      1 C1          4.6973   -2.8950   -1.3117 C.3       1 <0>        -0.0962
      2 C2          3.4251   -2.1071   -1.4890 C.ar      1 <0>        -0.1055
      3 C3          2.2297   -2.7649   -1.7050 C.ar      1 <0>        -0.1681
      4 C4          1.0587   -2.0396   -1.8682 C.ar      1 <0>         0.0634
      5 C5          1.0881   -0.6534   -1.8145 C.ar      1 <0>        -0.1168
      6 C6          2.2832    0.0039   -1.5986 C.ar      1 <0>        -0.1181
      7 C7          3.4535   -0.7218   -1.4298 C.ar      1 <0>         0.1479
      8 O1          4.6293   -0.0746   -1.2117 O.3       1 <0>        -0.2983
      9 C8          4.5676    1.3427   -1.0399 C.3       1 <0>         0.0293
     10 C9          3.6769    1.6728    0.1595 C.3       1 <0>        -0.1718
     11 C10         5.9758    1.8885   -0.7950 C.3       1 <0>        -0.1135
     12 C11         3.9928    1.9746   -2.2814 C.2       1 <0>         0.4805
     13 O2          3.6663    1.2760   -3.2258 O.co2     1 <0>        -0.6694
     14 O3          3.8543    3.1845   -2.3415 O.co2     1 <0>        -0.6841
     15 O4         -0.1179   -2.6868   -2.0811 O.3       1 <0>        -0.2608
     16 C12        -0.0890   -4.0406   -2.1998 C.ar      1 <0>         0.0948
     17 C13         0.0058   -4.8352   -1.0662 C.ar      1 <0>        -0.0958
     18 C14         0.0345   -6.2107   -1.1883 C.ar      1 <0>        -0.1396
     19 C15        -0.0308   -6.7968   -2.4412 C.ar      1 <0>         0.1078
     20 C16        -0.1255   -6.0053   -3.5731 C.ar      1 <0>        -0.1350
     21 C17        -0.1602   -4.6293   -3.4538 C.ar      1 <0>        -0.0764
     22 C18        -0.1960   -6.6451   -4.9357 C.3       1 <0>         0.1665
     23 N1          1.1306   -7.1397   -5.3122 N.am      1 <0>        -0.7162
     24 C19         1.3093   -7.7535   -6.4987 C.2       1 <0>         0.5582
     25 O5          0.3695   -7.8967   -7.2566 O.2       1 <0>        -0.5141
     26 C20         2.6467   -8.2520   -6.8783 C.ar      1 <0>        -0.1398
     27 C21         3.7274   -8.0945   -6.0079 C.ar      1 <0>        -0.0559
     28 C22         4.9731   -8.5625   -6.3680 C.ar      1 <0>        -0.0866
     29 C23         5.1562   -9.1878   -7.5898 C.ar      1 <0>        -0.1313
     30 C24         4.0931   -9.3481   -8.4582 C.ar      1 <0>        -0.1153
     31 C25         2.8359   -8.8893   -8.1084 C.ar      1 <0>         0.1628
     32 F1          1.7956   -9.0511   -8.9551 F         1 <0>        -0.1037
     33 C26         6.5218   -9.6957   -7.9747 C.3       1 <0>         0.5105
     34 F2          6.6676  -11.0172   -7.5395 F         1 <0>        -0.1711
     35 F3          6.6633   -9.6445   -9.3656 F         1 <0>        -0.1721
     36 F4          7.5022   -8.8968   -7.3765 F         1 <0>        -0.1696
     37 F5         -0.0018   -8.1423   -2.5591 F         1 <0>        -0.1324
     38 H1          4.8381   -3.1250   -0.2556 H         1 <0>         0.0613
     39 H2          4.6322   -3.8229   -1.8800 H         1 <0>         0.0557
     40 H3          5.5419   -2.3072   -1.6713 H         1 <0>         0.0706
     41 H4          2.2069   -3.8438   -1.7471 H         1 <0>         0.1219
     42 H5          0.1764   -0.0886   -1.9419 H         1 <0>         0.1259
     43 H6          2.3062    1.0829   -1.5572 H         1 <0>         0.1505
     44 H7          4.0526    1.1577    1.0437 H         1 <0>         0.0517
     45 H8          3.6867    2.7486    0.3342 H         1 <0>         0.0730
     46 H9          2.6570    1.3471   -0.0448 H         1 <0>         0.0663
     47 H10         6.5864    1.7307   -1.6840 H         1 <0>         0.0562
     48 H11         5.9193    2.9551   -0.5777 H         1 <0>         0.0765
     49 H12         6.4249    1.3686    0.0512 H         1 <0>         0.0513
     50 H13         0.0575   -4.3783   -0.0889 H         1 <0>         0.1443
     51 H14         0.1083   -6.8294   -0.3061 H         1 <0>         0.1444
     52 H15        -0.2382   -4.0122   -4.3367 H         1 <0>         0.1463
     53 H16        -0.9001   -7.4768   -4.9106 H         1 <0>         0.0870
     54 H17        -0.5298   -5.9083   -5.6663 H         1 <0>         0.0898
     55 H18         1.8805   -7.0254   -4.7076 H         1 <0>         0.4026
     56 H19         3.5877   -7.6066   -5.0546 H         1 <0>         0.1499
     57 H20         5.8090   -8.4408   -5.6951 H         1 <0>         0.1531
     58 H21         4.2433   -9.8361   -9.4099 H         1 <0>         0.1577
@<TRIPOS>BOND
     1    1    2 1
     2    1   38 1
     3    1   39 1
     4    1   40 1
     5    2    7 ar
     6    2    3 ar
     7    3    4 ar
     8    3   41 1
     9    4    5 ar
    10    4   15 1
    11    5    6 ar
    12    5   42 1
    13    6    7 ar
    14    6   43 1
    15    7    8 1
    16    8    9 1
    17    9   10 1
    18    9   11 1
    19    9   12 1
    20   10   44 1
    21   10   45 1
    22   10   46 1
    23   11   47 1
    24   11   48 1
    25   11   49 1
    26   12   13 2
    27   12   14 1
    28   15   16 1
    29   16   21 ar
    30   16   17 ar
    31   17   18 ar
    32   17   50 1
    33   18   19 ar
    34   18   51 1
    35   19   20 ar
    36   19   37 1
    37   20   21 ar
    38   20   22 1
    39   21   52 1
    40   22   23 1
    41   22   53 1
    42   22   54 1
    43   23   24 am
    44   23   55 1
    45   24   25 2
    46   24   26 1
    47   26   31 ar
    48   26   27 ar
    49   27   28 ar
    50   27   56 1
    51   28   29 ar
    52   28   57 1
    53   29   30 ar
    54   29   33 1
    55   30   31 ar
    56   30   58 1
    57   31   32 1
    58   33   34 1
    59   33   35 1
    60   33   36 1
@<TRIPOS>MOLECULE
CHEMBL50572
   64    67     0     0     0
SMALL
USER_CHARGES

@<TRIPOS>ATOM
      1 C1         -0.2531    2.0334    0.4925 C.3       1 <0>        -0.1512
      2 C2          0.1287    0.5682    0.2723 C.3       1 <0>        -0.0881
      3 C3          0.8095    0.0240    1.5298 C.3       1 <0>        -0.1473
      4 C4         -1.1315   -0.2489   -0.0195 C.3       1 <0>        -0.0683
      5 C5         -1.7345    0.2063   -1.3235 C.ar      1 <0>        -0.0683
      6 C6         -2.7403    1.1533   -1.3260 C.ar      1 <0>        -0.1040
      7 C7         -3.2953    1.5722   -2.5261 C.ar      1 <0>         0.0918
      8 C8         -2.8402    1.0401   -3.7240 C.ar      1 <0>        -0.1583
      9 C9         -1.8348    0.0934   -3.7212 C.ar      1 <0>        -0.1676
     10 C10        -1.2758   -0.3213   -2.5212 C.ar      1 <0>         0.1014
     11 O1         -0.2817   -1.2490   -2.5190 O.3       1 <0>        -0.3053
     12 C11         0.1415   -1.7495   -3.7888 C.3       1 <0>         0.0641
     13 C12         1.2585   -2.7753   -3.5862 C.3       1 <0>        -0.1197
     14 C13         1.7116   -3.3111   -4.9458 C.3       1 <0>         0.0623
     15 O2          2.7549   -4.2691   -4.7566 O.3       1 <0>        -0.3072
     16 C14         3.2731   -4.8456   -5.8728 C.ar      1 <0>         0.1515
     17 C15         2.7914   -4.4921   -7.1249 C.ar      1 <0>        -0.2070
     18 C16         3.3201   -5.0791   -8.2581 C.ar      1 <0>        -0.0426
     19 C17         4.3283   -6.0186   -8.1452 C.ar      1 <0>        -0.1208
     20 C18         4.8098   -6.3730   -6.8985 C.ar      1 <0>        -0.0525
     21 C19         4.2886   -5.7843   -5.7626 C.ar      1 <0>        -0.1440
     22 C20         4.9029   -6.6578   -9.3830 C.3       1 <0>        -0.0245
     23 C21         4.8956   -8.1763   -9.2767 C.2       1 <0>         0.5317
     24 O3          3.8696   -8.8136   -9.1716 O.2       1 <0>        -0.4502
     25 N1          6.0856   -8.7523   -9.3065 N.am      1 <0>        -0.6901
     26 C22         7.2386   -8.0677   -9.4220 C.2       1 <0>         0.5633
     27 O4          8.3714   -8.5076   -9.4583 O.2       1 <0>        -0.4145
     28 S1          6.7158   -6.3613   -9.5103 S.3       1 <0>        -0.1467
     29 O5         -4.2855    2.5039   -2.5287 O.3       1 <0>        -0.2599
     30 C23        -4.8055    2.8788   -3.7268 C.ar      1 <0>         0.0834
     31 C24        -5.8931    2.1987   -4.2559 C.ar      1 <0>        -0.1267
     32 C25        -6.4198    2.5818   -5.4740 C.ar      1 <0>        -0.1063
     33 C26        -5.8639    3.6418   -6.1663 C.ar      1 <0>        -0.1173
     34 C27        -4.7801    4.3213   -5.6414 C.ar      1 <0>        -0.1064
     35 C28        -4.2534    3.9462   -4.4207 C.ar      1 <0>        -0.1266
     36 H1          0.6447    2.6155    0.7004 H         1 <0>         0.0529
     37 H2         -0.7381    2.4211   -0.4033 H         1 <0>         0.0564
     38 H3         -0.9378    2.1074    1.3373 H         1 <0>         0.0545
     39 H4          0.8135    0.4942   -0.5725 H         1 <0>         0.0717
     40 H5          0.1248    0.0981    2.3746 H         1 <0>         0.0545
     41 H6          1.0815   -1.0198    1.3729 H         1 <0>         0.0553
     42 H7          1.7073    0.6061    1.7377 H         1 <0>         0.0549
     43 H8         -0.8717   -1.3052   -0.0885 H         1 <0>         0.0795
     44 H9         -1.8529   -0.1038    0.7846 H         1 <0>         0.0734
     45 H10        -3.0947    1.5672   -0.3935 H         1 <0>         0.1393
     46 H11        -3.2726    1.3660   -4.6585 H         1 <0>         0.1296
     47 H12        -1.4806   -0.3208   -4.6536 H         1 <0>         0.1304
     48 H13        -0.7012   -2.2244   -4.2913 H         1 <0>         0.0650
     49 H14         0.5111   -0.9256   -4.3992 H         1 <0>         0.0651
     50 H15         2.1011   -2.3003   -3.0837 H         1 <0>         0.0884
     51 H16         0.8889   -3.5992   -2.9758 H         1 <0>         0.0882
     52 H17         0.8689   -3.7860   -5.4483 H         1 <0>         0.0691
     53 H18         2.0812   -2.4872   -5.5562 H         1 <0>         0.0692
     54 H19         2.0034   -3.7588   -7.2136 H         1 <0>         0.1359
     55 H20         2.9455   -4.8043   -9.2330 H         1 <0>         0.1350
     56 H21         5.5971   -7.1073   -6.8129 H         1 <0>         0.1257
     57 H22         4.6681   -6.0581   -4.7892 H         1 <0>         0.1394
     58 H23         4.3819   -6.3196  -10.2787 H         1 <0>         0.1662
     59 H24         6.1298   -9.7191   -9.2414 H         1 <0>         0.4196
     60 H25        -6.3273    1.3702   -3.7159 H         1 <0>         0.1310
     61 H26        -7.2663    2.0528   -5.8863 H         1 <0>         0.1311
     62 H27        -6.2767    3.9394   -7.1189 H         1 <0>         0.1290
     63 H28        -4.3475    5.1487   -6.1843 H         1 <0>         0.1311
     64 H29        -3.4099    4.4803   -4.0088 H         1 <0>         0.1309
@<TRIPOS>BOND
     1    1    2 1
     2    1   36 1
     3    1   37 1
     4    1   38 1
     5    2    3 1
     6    2    4 1
     7    2   39 1
     8    3   40 1
     9    3   41 1
    10    3   42 1
    11    4    5 1
    12    4   43 1
    13    4   44 1
    14    5   10 ar
    15    5    6 ar
    16    6    7 ar
    17    6   45 1
    18    7    8 ar
    19    7   29 1
    20    8    9 ar
    21    8   46 1
    22    9   10 ar
    23    9   47 1
    24   10   11 1
    25   11   12 1
    26   12   13 1
    27   12   48 1
    28   12   49 1
    29   13   14 1
    30   13   50 1
    31   13   51 1
    32   14   15 1
    33   14   52 1
    34   14   53 1
    35   15   16 1
    36   16   21 ar
    37   16   17 ar
    38   17   18 ar
    39   17   54 1
    40   18   19 ar
    41   18   55 1
    42   19   20 ar
    43   19   22 1
    44   20   21 ar
    45   20   56 1
    46   21   57 1
    47   22   28 1
    48   22   23 1
    49   22   58 1
    50   23   24 2
    51   23   25 am
    52   25   26 am
    53   25   59 1
    54   26   27 2
    55   26   28 1
    56   29   30 1
    57   30   35 ar
    58   30   31 ar
    59   31   32 ar
    60   31   60 1
    61   32   33 ar
    62   32   61 1
    63   33   34 ar
    64   33   62 1
    65   34   35 ar
    66   34   63 1
    67   35   64 1
@<TRIPOS>MOLECULE
CHEMBL50572__1
   64    67     0     0     0
SMALL
USER_CHARGES

@<TRIPOS>ATOM
      1 C1         -0.2531    2.0334    0.4925 C.3       1 <0>        -0.1512
      2 C2          0.1287    0.5682    0.2723 C.3       1 <0>        -0.0882
      3 C3          0.8095    0.0240    1.5298 C.3       1 <0>        -0.1473
      4 C4         -1.1315   -0.2489   -0.0195 C.3       1 <0>        -0.0682
      5 C5         -1.7345    0.2063   -1.3235 C.ar      1 <0>        -0.0683
      6 C6         -2.7403    1.1533   -1.3260 C.ar      1 <0>        -0.1040
      7 C7         -3.2953    1.5722   -2.5261 C.ar      1 <0>         0.0918
      8 C8         -2.8402    1.0401   -3.7240 C.ar      1 <0>        -0.1583
      9 C9         -1.8348    0.0934   -3.7212 C.ar      1 <0>        -0.1676
     10 C10        -1.2758   -0.3213   -2.5212 C.ar      1 <0>         0.1014
     11 O1         -0.2817   -1.2490   -2.5190 O.3       1 <0>        -0.3053
     12 C11         0.1415   -1.7495   -3.7888 C.3       1 <0>         0.0641
     13 C12         1.2585   -2.7753   -3.5862 C.3       1 <0>        -0.1197
     14 C13         1.7116   -3.3111   -4.9458 C.3       1 <0>         0.0623
     15 O2          2.7549   -4.2691   -4.7566 O.3       1 <0>        -0.3072
     16 C14         3.2731   -4.8456   -5.8728 C.ar      1 <0>         0.1515
     17 C15         2.7914   -4.4921   -7.1249 C.ar      1 <0>        -0.2070
     18 C16         3.3201   -5.0791   -8.2581 C.ar      1 <0>        -0.0426
     19 C17         4.3283   -6.0186   -8.1452 C.ar      1 <0>        -0.1208
     20 C18         4.8098   -6.3730   -6.8985 C.ar      1 <0>        -0.0525
     21 C19         4.2886   -5.7843   -5.7626 C.ar      1 <0>        -0.1440
     22 C20         4.9029   -6.6578   -9.3830 C.3       1 <0>        -0.0245
     23 C21         6.4215   -6.5544   -9.4058 C.2       1 <0>         0.5317
     24 O3          6.9981   -5.4883   -9.4363 O.2       1 <0>        -0.4502
     25 N1          7.0684   -7.7076   -9.3897 N.am      1 <0>        -0.6902
     26 C22         6.4521   -8.9037   -9.3555 C.2       1 <0>         0.5633
     27 O4          6.9595  -10.0084   -9.3381 O.2       1 <0>        -0.4145
     28 S1          4.7141   -8.4890   -9.3409 S.3       1 <0>        -0.1467
     29 O5         -4.2855    2.5039   -2.5287 O.3       1 <0>        -0.2599
     30 C23        -4.8055    2.8788   -3.7268 C.ar      1 <0>         0.0834
     31 C24        -5.8931    2.1987   -4.2559 C.ar      1 <0>        -0.1267
     32 C25        -6.4198    2.5818   -5.4740 C.ar      1 <0>        -0.1063
     33 C26        -5.8639    3.6418   -6.1663 C.ar      1 <0>        -0.1173
     34 C27        -4.7801    4.3213   -5.6414 C.ar      1 <0>        -0.1064
     35 C28        -4.2534    3.9462   -4.4207 C.ar      1 <0>        -0.1267
     36 H1          0.6447    2.6155    0.7004 H         1 <0>         0.0529
     37 H2         -0.7381    2.4211   -0.4033 H         1 <0>         0.0564
     38 H3         -0.9378    2.1074    1.3373 H         1 <0>         0.0545
     39 H4          0.8135    0.4942   -0.5725 H         1 <0>         0.0717
     40 H5          0.1248    0.0981    2.3746 H         1 <0>         0.0546
     41 H6          1.0815   -1.0198    1.3729 H         1 <0>         0.0553
     42 H7          1.7073    0.6061    1.7377 H         1 <0>         0.0548
     43 H8         -0.8717   -1.3052   -0.0885 H         1 <0>         0.0795
     44 H9         -1.8529   -0.1038    0.7846 H         1 <0>         0.0734
     45 H10        -3.0947    1.5672   -0.3935 H         1 <0>         0.1393
     46 H11        -3.2726    1.3660   -4.6585 H         1 <0>         0.1296
     47 H12        -1.4806   -0.3208   -4.6536 H         1 <0>         0.1304
     48 H13        -0.7012   -2.2244   -4.2913 H         1 <0>         0.0650
     49 H14         0.5111   -0.9256   -4.3992 H         1 <0>         0.0650
     50 H15         2.1011   -2.3003   -3.0837 H         1 <0>         0.0883
     51 H16         0.8889   -3.5992   -2.9758 H         1 <0>         0.0884
     52 H17         0.8689   -3.7860   -5.4483 H         1 <0>         0.0692
     53 H18         2.0812   -2.4872   -5.5562 H         1 <0>         0.0691
     54 H19         2.0034   -3.7588   -7.2136 H         1 <0>         0.1359
     55 H20         2.9455   -4.8043   -9.2330 H         1 <0>         0.1350
     56 H21         5.5971   -7.1073   -6.8129 H         1 <0>         0.1257
     57 H22         4.6681   -6.0581   -4.7892 H         1 <0>         0.1393
     58 H23         4.4622   -6.2343  -10.2855 H         1 <0>         0.1662
     59 H24         8.0382   -7.6907   -9.4035 H         1 <0>         0.4196
     60 H25        -6.3273    1.3702   -3.7159 H         1 <0>         0.1310
     61 H26        -7.2663    2.0528   -5.8863 H         1 <0>         0.1311
     62 H27        -6.2767    3.9394   -7.1189 H         1 <0>         0.1290
     63 H28        -4.3475    5.1487   -6.1843 H         1 <0>         0.1311
     64 H29        -3.4099    4.4803   -4.0088 H         1 <0>         0.1309
@<TRIPOS>BOND
     1    1    2 1
     2    1   36 1
     3    1   37 1
     4    1   38 1
     5    2    3 1
     6    2    4 1
     7    2   39 1
     8    3   40 1
     9    3   41 1
    10    3   42 1
    11    4    5 1
    12    4   43 1
    13    4   44 1
    14    5   10 ar
    15    5    6 ar
    16    6    7 ar
    17    6   45 1
    18    7    8 ar
    19    7   29 1
    20    8    9 ar
    21    8   46 1
    22    9   10 ar
    23    9   47 1
    24   10   11 1
    25   11   12 1
    26   12   13 1
    27   12   48 1
    28   12   49 1
    29   13   14 1
    30   13   50 1
    31   13   51 1
    32   14   15 1
    33   14   52 1
    34   14   53 1
    35   15   16 1
    36   16   21 ar
    37   16   17 ar
    38   17   18 ar
    39   17   54 1
    40   18   19 ar
    41   18   55 1
    42   19   20 ar
    43   19   22 1
    44   20   21 ar
    45   20   56 1
    46   21   57 1
    47   22   28 1
    48   22   23 1
    49   22   58 1
    50   23   24 2
    51   23   25 am
    52   25   26 am
    53   25   59 1
    54   26   27 2
    55   26   28 1
    56   29   30 1
    57   30   35 ar
    58   30   31 ar
    59   31   32 ar
    60   31   60 1
    61   32   33 ar
    62   32   61 1
    63   33   34 ar
    64   33   62 1
    65   34   35 ar
    66   34   63 1
    67   35   64 1
@<TRIPOS>MOLECULE
CHEMBL37013
   47    49     0     0     0
SMALL
USER_CHARGES

@<TRIPOS>ATOM
      1 C1         -0.0184    1.5028    0.0103 C.3       1 <0>        -0.1058
      2 C2          0.0021   -0.0041    0.0020 C.ar      1 <0>        -0.0848
      3 C3          0.0058   -0.6883   -1.1982 C.ar      1 <0>        -0.1083
      4 C4          0.0251   -2.0749   -1.2058 C.ar      1 <0>         0.0730
      5 C5          0.0406   -2.7749   -0.0083 C.ar      1 <0>        -0.1700
      6 C6          0.0369   -2.0909    1.1915 C.ar      1 <0>        -0.1756
      7 C7          0.0229   -0.7038    1.1991 C.ar      1 <0>         0.1111
      8 O1          0.0250   -0.0303    2.3804 O.3       1 <0>        -0.2771
      9 C8          0.0470   -0.8150    3.5745 C.3       1 <0>        -0.0071
     10 C9          0.0459    0.0965    4.7746 C.2       1 <0>         0.5012
     11 O2          0.0280    1.3060    4.6215 O.co2     1 <0>        -0.6702
     12 O3          0.0630   -0.3755    5.8986 O.co2     1 <0>        -0.6880
     13 O4          0.0283   -2.7483   -2.3872 O.3       1 <0>        -0.3125
     14 C10         0.0485   -4.1756   -2.3202 C.3       1 <0>         0.1488
     15 C11         0.0491   -4.7440   -3.7159 C.2       1 <0>        -0.0411
     16 C12         1.1329   -5.0347   -4.4584 C.2       1 <0>         0.0259
     17 N1          0.7072   -5.5185   -5.6351 N.2       1 <0>        -0.4590
     18 C13        -0.6049   -5.5318   -5.6333 C.2       1 <0>         0.2299
     19 O5         -1.0357   -5.0609   -4.4502 O.3       1 <0>        -0.1831
     20 C14        -1.4650   -5.9931   -6.7436 C.ar      1 <0>         0.0190
     21 C15        -2.8544   -5.9501   -6.6184 C.ar      1 <0>        -0.0896
     22 C16        -3.6514   -6.3816   -7.6585 C.ar      1 <0>        -0.0685
     23 C17        -3.0761   -6.8564   -8.8238 C.ar      1 <0>        -0.1687
     24 C18        -1.6995   -6.9021   -8.9542 C.ar      1 <0>        -0.0699
     25 C19        -0.8912   -6.4681   -7.9239 C.ar      1 <0>        -0.0720
     26 C20        -3.9529   -7.3262   -9.9559 C.3       1 <0>         0.5088
     27 F1         -4.2316   -6.2513  -10.8069 F         1 <0>        -0.1738
     28 F2         -3.2916   -8.3292  -10.6727 F         1 <0>        -0.1750
     29 F3         -5.1496   -7.8341   -9.4390 F         1 <0>        -0.1749
     30 C21         2.5694   -4.8495   -4.0424 C.3       1 <0>        -0.0790
     31 H1          1.0042    1.8801    0.0026 H         1 <0>         0.0699
     32 H2         -0.5455    1.8639   -0.8728 H         1 <0>         0.0614
     33 H3         -0.5286    1.8543    0.9071 H         1 <0>         0.0811
     34 H4         -0.0067   -0.1432   -2.1305 H         1 <0>         0.1327
     35 H5          0.0553   -3.8548   -0.0143 H         1 <0>         0.1246
     36 H6          0.0483   -2.6360    2.1238 H         1 <0>         0.1325
     37 H7         -0.8341   -1.4560    3.6044 H         1 <0>         0.0579
     38 H8          0.9456   -1.4317    3.5875 H         1 <0>         0.0582
     39 H9          0.9459   -4.5020   -1.7946 H         1 <0>         0.0997
     40 H10        -0.8339   -4.5268   -1.7853 H         1 <0>         0.0825
     41 H11        -3.3046   -5.5800   -5.7091 H         1 <0>         0.1457
     42 H12        -4.7266   -6.3492   -7.5628 H         1 <0>         0.1461
     43 H13        -1.2568   -7.2744   -9.8662 H         1 <0>         0.1468
     44 H14         0.1832   -6.4998   -8.0287 H         1 <0>         0.1522
     45 H15         2.9262   -5.7564   -3.5542 H         1 <0>         0.0806
     46 H16         3.1794   -4.6467   -4.9227 H         1 <0>         0.0821
     47 H17         2.6418   -4.0113   -3.3493 H         1 <0>         0.0823
@<TRIPOS>BOND
     1    1    2 1
     2    1   31 1
     3    1   32 1
     4    1   33 1
     5    2    7 ar
     6    2    3 ar
     7    3    4 ar
     8    3   34 1
     9    4    5 ar
    10    4   13 1
    11    5    6 ar
    12    5   35 1
    13    6    7 ar
    14    6   36 1
    15    7    8 1
    16    8    9 1
    17    9   10 1
    18    9   37 1
    19    9   38 1
    20   10   11 2
    21   10   12 1
    22   13   14 1
    23   14   15 1
    24   14   39 1
    25   14   40 1
    26   15   19 1
    27   15   16 2
    28   16   17 1
    29   16   30 1
    30   17   18 2
    31   18   19 1
    32   18   20 1
    33   20   25 ar
    34   20   21 ar
    35   21   22 ar
    36   21   41 1
    37   22   23 ar
    38   22   42 1
    39   23   24 ar
    40   23   26 1
    41   24   25 ar
    42   24   43 1
    43   25   44 1
    44   26   27 1
    45   26   28 1
    46   26   29 1
    47   30   45 1
    48   30   46 1
    49   30   47 1
@<TRIPOS>MOLECULE
CHEMBL1075705
   70    74     0     0     0
SMALL
USER_CHARGES

@<TRIPOS>ATOM
      1 C1         -0.7529    2.0844   -0.9630 C.3       1 <0>        -0.1053
      2 C2         -0.6303    0.5953   -0.7662 C.ar      1 <0>        -0.0851
      3 C3         -0.5145   -0.2390   -1.8613 C.ar      1 <0>        -0.1085
      4 C4         -0.4012   -1.6092   -1.6801 C.ar      1 <0>         0.0760
      5 C5         -0.4041   -2.1421   -0.3994 C.ar      1 <0>        -0.1698
      6 C6         -0.5199   -1.3081    0.6953 C.ar      1 <0>        -0.1754
      7 C7         -0.6279    0.0630    0.5143 C.ar      1 <0>         0.1099
      8 O1         -0.7362    0.8847    1.5924 O.3       1 <0>        -0.2776
      9 C8         -0.7268    0.2682    2.8816 C.3       1 <0>        -0.0068
     10 C9         -0.8553    1.3274    3.9458 C.2       1 <0>         0.5012
     11 O2         -0.9465    2.5014    3.6297 O.co2     1 <0>        -0.6704
     12 O3         -0.8681    1.0103    5.1230 O.co2     1 <0>        -0.6885
     13 O4         -0.2877   -2.4304   -2.7580 O.3       1 <0>        -0.3102
     14 C10        -0.1748   -3.8309   -2.4975 C.3       1 <0>         0.1523
     15 C11        -0.0592   -4.5768   -3.8019 C.2       1 <0>         0.0463
     16 N1          1.0276   -4.8904   -4.4575 N.2       1 <0>        -0.4836
     17 C12         0.9804   -5.5536   -5.6020 C.2       1 <0>         0.1375
     18 C13        -0.2922   -5.8917   -6.0565 C.2       1 <0>        -0.1709
     19 S1         -1.2980   -5.2064   -4.7501 S.3       1 <0>         0.1626
     20 C14        -0.6964   -6.6195   -7.2759 C.ar      1 <0>        -0.0125
     21 C15        -0.0623   -7.8154   -7.6205 C.ar      1 <0>        -0.0476
     22 C16        -0.4429   -8.4915   -8.7599 C.ar      1 <0>        -0.1180
     23 C17        -1.4547   -7.9851   -9.5649 C.ar      1 <0>         0.1112
     24 C18        -2.0878   -6.7966   -9.2262 C.ar      1 <0>        -0.1870
     25 C19        -1.7179   -6.1171   -8.0852 C.ar      1 <0>        -0.0599
     26 O5         -1.8261   -8.6545  -10.6877 O.3       1 <0>        -0.3094
     27 C20        -2.8736   -8.0778  -11.4702 C.3       1 <0>         0.6036
     28 F1         -2.4861   -6.8048  -11.9023 F         1 <0>        -0.1637
     29 F2         -3.1273   -8.8900  -12.5807 F         1 <0>        -0.1309
     30 F3         -4.0327   -7.9740  -10.6938 F         1 <0>        -0.1636
     31 C21         2.2051   -5.9136   -6.3533 C.ar      1 <0>        -0.0855
     32 C22         2.2439   -5.7634   -7.7398 C.ar      1 <0>        -0.0401
     33 C23         3.3852   -6.0988   -8.4365 C.ar      1 <0>        -0.2008
     34 C24         4.4966   -6.5866   -7.7588 C.ar      1 <0>         0.2325
     35 C25         4.4605   -6.7377   -6.3774 C.ar      1 <0>        -0.2029
     36 C26         3.3239   -6.3980   -5.6751 C.ar      1 <0>        -0.0314
     37 N2          5.6515   -6.9261   -8.4673 N.pl3     1 <0>        -0.6260
     38 C27         6.7833   -7.5718   -7.7886 C.3       1 <0>         0.1187
     39 C28         7.1428   -8.8560   -8.5426 C.3       1 <0>        -0.1366
     40 C29         7.3988   -8.5240  -10.0144 C.3       1 <0>        -0.1193
     41 C30         6.1285   -7.9387  -10.6355 C.3       1 <0>        -0.1370
     42 C31         5.7552   -6.6496   -9.9065 C.3       1 <0>         0.1186
     43 H1          0.2407    2.5323   -0.9754 H         1 <0>         0.0693
     44 H2         -1.2541    2.2857   -1.9098 H         1 <0>         0.0612
     45 H3         -1.3341    2.5122   -0.1461 H         1 <0>         0.0808
     46 H4         -0.5126    0.1759   -2.8584 H         1 <0>         0.1325
     47 H5         -0.3162   -3.2092   -0.2583 H         1 <0>         0.1250
     48 H6         -0.5229   -1.7230    1.6924 H         1 <0>         0.1321
     49 H7         -1.5629   -0.4269    2.9580 H         1 <0>         0.0578
     50 H8          0.2093   -0.2730    3.0187 H         1 <0>         0.0579
     51 H9          0.7124   -4.0176   -1.8924 H         1 <0>         0.0955
     52 H10        -1.0594   -4.1731   -1.9605 H         1 <0>         0.0886
     53 H11         0.7252   -8.2096   -6.9953 H         1 <0>         0.1421
     54 H12         0.0468   -9.4163   -9.0271 H         1 <0>         0.1435
     55 H13        -2.8743   -6.4064   -9.8551 H         1 <0>         0.1383
     56 H14        -2.2139   -5.1950   -7.8202 H         1 <0>         0.1375
     57 H15         1.3805   -5.3851   -8.2668 H         1 <0>         0.1205
     58 H16         3.4158   -5.9828   -9.5098 H         1 <0>         0.1248
     59 H17         5.3253   -7.1172   -5.8535 H         1 <0>         0.1249
     60 H18         3.2981   -6.5110   -4.6013 H         1 <0>         0.1246
     61 H19         7.6401   -6.8980   -7.7853 H         1 <0>         0.0618
     62 H20         6.5039   -7.8159   -6.7637 H         1 <0>         0.0843
     63 H21         8.0406   -9.2944   -8.1070 H         1 <0>         0.0728
     64 H22         6.3181   -9.5648   -8.4676 H         1 <0>         0.0665
     65 H23         8.2072   -7.7964  -10.0872 H         1 <0>         0.0630
     66 H24         7.6788   -9.4322  -10.5481 H         1 <0>         0.0638
     67 H25         6.3045   -7.7242  -11.6896 H         1 <0>         0.0728
     68 H26         5.3134   -8.6561  -10.5409 H         1 <0>         0.0665
     69 H27         4.7976   -6.2854  -10.2786 H         1 <0>         0.0841
     70 H28         6.5263   -5.8990  -10.0798 H         1 <0>         0.0615
@<TRIPOS>BOND
     1    1    2 1
     2    1   43 1
     3    1   44 1
     4    1   45 1
     5    2    7 ar
     6    2    3 ar
     7    3    4 ar
     8    3   46 1
     9    4    5 ar
    10    4   13 1
    11    5    6 ar
    12    5   47 1
    13    6    7 ar
    14    6   48 1
    15    7    8 1
    16    8    9 1
    17    9   10 1
    18    9   49 1
    19    9   50 1
    20   10   11 2
    21   10   12 1
    22   13   14 1
    23   14   15 1
    24   14   51 1
    25   14   52 1
    26   15   19 1
    27   15   16 2
    28   16   17 1
    29   17   18 2
    30   17   31 1
    31   18   19 1
    32   18   20 1
    33   20   25 ar
    34   20   21 ar
    35   21   22 ar
    36   21   53 1
    37   22   23 ar
    38   22   54 1
    39   23   24 ar
    40   23   26 1
    41   24   25 ar
    42   24   55 1
    43   25   56 1
    44   26   27 1
    45   27   28 1
    46   27   29 1
    47   27   30 1
    48   31   36 ar
    49   31   32 ar
    50   32   33 ar
    51   32   57 1
    52   33   34 ar
    53   33   58 1
    54   34   35 ar
    55   34   37 1
    56   35   36 ar
    57   35   59 1
    58   36   60 1
    59   37   42 1
    60   37   38 1
    61   38   39 1
    62   38   61 1
    63   38   62 1
    64   39   40 1
    65   39   63 1
    66   39   64 1
    67   40   41 1
    68   40   65 1
    69   40   66 1
    70   41   42 1
    71   41   67 1
    72   41   68 1
    73   42   69 1
    74   42   70 1
@<TRIPOS>MOLECULE
CHEMBL1075704
   67    71     0     0     0
SMALL
USER_CHARGES

@<TRIPOS>ATOM
      1 C1         -0.4941    2.0091   -0.7884 C.3       1 <0>        -0.1052
      2 C2         -0.3855    0.5148   -0.6264 C.ar      1 <0>        -0.0851
      3 C3         -0.3229   -0.2983   -1.7416 C.ar      1 <0>        -0.1085
      4 C4         -0.2225   -1.6733   -1.5924 C.ar      1 <0>         0.0761
      5 C5         -0.1849   -2.2324   -0.3235 C.ar      1 <0>        -0.1699
      6 C6         -0.2475   -1.4197    0.7914 C.ar      1 <0>        -0.1754
      7 C7         -0.3426   -0.0438    0.6422 C.ar      1 <0>         0.1099
      8 O1         -0.3986    0.7569    1.7399 O.3       1 <0>        -0.2776
      9 C8         -0.3496    0.1138    3.0151 C.3       1 <0>        -0.0069
     10 C9         -0.4228    1.1525    4.1046 C.2       1 <0>         0.5012
     11 O2         -0.5089    2.3339    3.8158 O.co2     1 <0>        -0.6704
     12 O3         -0.3959    0.8114    5.2748 O.co2     1 <0>        -0.6885
     13 O4         -0.1613   -2.4736   -2.6901 O.3       1 <0>        -0.3103
     14 C10        -0.0587   -3.8806   -2.4623 C.3       1 <0>         0.1523
     15 C11        -0.0029   -4.6009   -3.7849 C.2       1 <0>         0.0463
     16 N1          1.0539   -4.9155   -4.4873 N.2       1 <0>        -0.4836
     17 C12         0.9542   -5.5543   -5.6423 C.2       1 <0>         0.1375
     18 C13        -0.3392   -5.8658   -6.0550 C.2       1 <0>        -0.1705
     19 S1         -1.2854   -5.1939   -4.6979 S.3       1 <0>         0.1628
     20 C14        -0.7994   -6.5627   -7.2726 C.ar      1 <0>        -0.0127
     21 C15        -0.1992   -7.7623   -7.6622 C.ar      1 <0>        -0.0478
     22 C16        -0.6319   -8.4095   -8.7997 C.ar      1 <0>        -0.1180
     23 C17        -1.6626   -7.8704   -9.5582 C.ar      1 <0>         0.1112
     24 C18        -2.2621   -6.6781   -9.1747 C.ar      1 <0>        -0.1870
     25 C19        -1.8399   -6.0273   -8.0352 C.ar      1 <0>        -0.0598
     26 O5         -2.0855   -8.5114  -10.6794 O.3       1 <0>        -0.3094
     27 C20        -3.1497   -7.9018  -11.4128 C.3       1 <0>         0.6036
     28 F1         -2.7553   -6.6275  -11.8345 F         1 <0>        -0.1637
     29 F2         -3.4571   -8.6878  -12.5286 F         1 <0>        -0.1309
     30 F3         -4.2784   -7.7934  -10.5935 F         1 <0>        -0.1636
     31 C21         2.1446   -5.9153   -6.4465 C.ar      1 <0>        -0.0850
     32 C22         2.1333   -5.7373   -7.8302 C.ar      1 <0>        -0.0405
     33 C23         3.2428   -6.0737   -8.5762 C.ar      1 <0>        -0.1954
     34 C24         4.3718   -6.5902   -7.9510 C.ar      1 <0>         0.2473
     35 C25         4.3855   -6.7690   -6.5725 C.ar      1 <0>        -0.1984
     36 C26         3.2811   -6.4285   -5.8210 C.ar      1 <0>        -0.0318
     37 N2          5.4942   -6.9305   -8.7093 N.pl3     1 <0>        -0.6350
     38 C27         5.6184   -6.7888  -10.1674 C.3       1 <0>         0.1123
     39 C28         7.0155   -7.3127  -10.5614 C.3       1 <0>        -0.1327
     40 C29         7.3843   -8.2439   -9.3765 C.3       1 <0>        -0.1337
     41 C30         6.7531   -7.4855   -8.1795 C.3       1 <0>         0.1101
     42 H1          0.5047    2.4437   -0.8294 H         1 <0>         0.0693
     43 H2         -1.0275    2.2366   -1.7113 H         1 <0>         0.0612
     44 H3         -1.0380    2.4278    0.0583 H         1 <0>         0.0808
     45 H4         -0.3525    0.1370   -2.7295 H         1 <0>         0.1324
     46 H5         -0.1070   -3.3033   -0.2073 H         1 <0>         0.1250
     47 H6         -0.2189   -1.8550    1.7793 H         1 <0>         0.1321
     48 H7         -1.1921   -0.5713    3.1091 H         1 <0>         0.0578
     49 H8          0.5833   -0.4427    3.1058 H         1 <0>         0.0579
     50 H9          0.8478   -4.0917   -1.8951 H         1 <0>         0.0955
     51 H10        -0.9274   -4.2218   -1.8992 H         1 <0>         0.0887
     52 H11         0.6030   -8.1819   -7.0732 H         1 <0>         0.1422
     53 H12        -0.1684   -9.3371   -9.1016 H         1 <0>         0.1436
     54 H13        -3.0634   -6.2624   -9.7676 H         1 <0>         0.1383
     55 H14        -2.3098   -5.1023   -7.7351 H         1 <0>         0.1376
     56 H15         1.2562   -5.3367   -8.3165 H         1 <0>         0.1212
     57 H16         3.2346   -5.9361   -9.6473 H         1 <0>         0.1210
     58 H17         5.2639   -7.1708   -6.0894 H         1 <0>         0.1218
     59 H18         3.2941   -6.5631   -4.7495 H         1 <0>         0.1254
     60 H19         4.8478   -7.3783  -10.6641 H         1 <0>         0.0617
     61 H20         5.5234   -5.7396  -10.4473 H         1 <0>         0.0613
     62 H21         6.9675   -7.8754  -11.4937 H         1 <0>         0.0815
     63 H22         7.7269   -6.4908  -10.6419 H         1 <0>         0.0761
     64 H23         6.9351   -9.2294   -9.4996 H         1 <0>         0.0760
     65 H24         8.4655   -8.3207   -9.2618 H         1 <0>         0.0831
     66 H25         7.4110   -6.6828   -7.8465 H         1 <0>         0.0627
     67 H26         6.5487   -8.1742   -7.3597 H         1 <0>         0.0721
@<TRIPOS>BOND
     1    1    2 1
     2    1   42 1
     3    1   43 1
     4    1   44 1
     5    2    7 ar
     6    2    3 ar
     7    3    4 ar
     8    3   45 1
     9    4    5 ar
    10    4   13 1
    11    5    6 ar
    12    5   46 1
    13    6    7 ar
    14    6   47 1
    15    7    8 1
    16    8    9 1
    17    9   10 1
    18    9   48 1
    19    9   49 1
    20   10   11 2
    21   10   12 1
    22   13   14 1
    23   14   15 1
    24   14   50 1
    25   14   51 1
    26   15   19 1
    27   15   16 2
    28   16   17 1
    29   17   18 2
    30   17   31 1
    31   18   19 1
    32   18   20 1
    33   20   25 ar
    34   20   21 ar
    35   21   22 ar
    36   21   52 1
    37   22   23 ar
    38   22   53 1
    39   23   24 ar
    40   23   26 1
    41   24   25 ar
    42   24   54 1
    43   25   55 1
    44   26   27 1
    45   27   28 1
    46   27   29 1
    47   27   30 1
    48   31   36 ar
    49   31   32 ar
    50   32   33 ar
    51   32   56 1
    52   33   34 ar
    53   33   57 1
    54   34   35 ar
    55   34   37 1
    56   35   36 ar
    57   35   58 1
    58   36   59 1
    59   37   41 1
    60   37   38 1
    61   38   39 1
    62   38   60 1
    63   38   61 1
    64   39   40 1
    65   39   62 1
    66   39   63 1
    67   40   41 1
    68   40   64 1
    69   40   65 1
    70   41   66 1
    71   41   67 1
@<TRIPOS>MOLECULE
CHEMBL198929
   58    62     0     0     0
SMALL
USER_CHARGES

@<TRIPOS>ATOM
      1 C1         -0.0187    1.5258    0.0104 C.3       1 <0>        -0.1518
      2 C2          0.0021   -0.0041    0.0020 C.3       1 <0>        -0.1174
      3 C3          0.7182   -0.4975   -1.2568 C.3       1 <0>        -0.0693
      4 C4          0.7386   -2.0043   -1.2651 C.ar      1 <0>        -0.1236
      5 C5          1.7874   -2.6879   -0.6752 C.ar      1 <0>         0.2029
      6 C6          1.8138   -4.0805   -0.6786 C.ar      1 <0>        -0.2158
      7 C7          0.8051   -4.7902   -1.2640 C.ar      1 <0>         0.0020
      8 C8         -0.2622   -4.1169   -1.8640 C.ar      1 <0>        -0.2134
      9 C9         -0.2971   -2.7116   -1.8592 C.ar      1 <0>         0.1304
     10 O1         -1.4279   -2.3410   -2.4934 O.3       1 <0>        -0.0563
     11 N1         -2.1323   -3.4949   -2.9061 N.2       1 <0>        -0.2266
     12 C10        -1.4728   -4.5582   -2.5610 C.2       1 <0>         0.0489
     13 C11        -1.8852   -5.9851   -2.8158 C.3       1 <0>         0.5553
     14 F1         -2.6666   -6.4423   -1.7492 F         1 <0>        -0.1559
     15 F2         -2.6274   -6.0518   -3.9998 F         1 <0>        -0.1568
     16 F3         -0.7443   -6.7860   -2.9349 F         1 <0>        -0.1544
     17 O2          2.7986   -1.9959   -0.0891 O.3       1 <0>        -0.2934
     18 C12         3.8511   -2.7608    0.5018 C.3       1 <0>         0.0584
     19 C13         4.8906   -1.8155    1.1073 C.3       1 <0>        -0.1186
     20 C14         6.0175   -2.6345    1.7400 C.3       1 <0>         0.0660
     21 O3          6.9884   -1.7516    2.3056 O.3       1 <0>        -0.3165
     22 C15         8.0634   -2.3227    2.9118 C.ar      1 <0>         0.0923
     23 C16         8.1799   -3.7099    2.9538 C.ar      1 <0>        -0.1886
     24 C17         9.2619   -4.3046    3.5632 C.ar      1 <0>        -0.0680
     25 C18        10.2516   -3.5186    4.1442 C.ar      1 <0>         0.0794
     26 C19        10.1368   -2.1177    4.1035 C.ar      1 <0>        -0.0730
     27 C20         9.0374   -1.5252    3.4780 C.ar      1 <0>        -0.1158
     28 C21        11.3197   -1.5938    4.7906 C.2       1 <0>        -0.2286
     29 C22        12.0447   -2.6518    5.1871 C.2       1 <0>         0.0802
     30 N2         11.4232   -3.8107    4.8103 N.pl3     1 <0>        -0.4663
     31 C23        11.9267   -5.1607    5.0755 C.3       1 <0>         0.2261
     32 C24        12.7040   -5.6506    3.8811 C.2       1 <0>         0.0224
     33 N3         14.0021   -5.4947    3.6651 N.2       1 <0>        -0.3731
     34 N4         14.2795   -6.0543    2.5371 N.2       1 <0>        -0.1918
     35 N5         13.2017   -6.5541    2.0407 N.2       1 <0>        -0.1920
     36 N6         12.2222   -6.3251    2.8473 N.2       1 <0>        -0.3699
     37 H1          1.0039    1.9031    0.0027 H         1 <0>         0.0570
     38 H2         -0.5459    1.8868   -0.8726 H         1 <0>         0.0541
     39 H3         -0.5289    1.8773    0.9072 H         1 <0>         0.0550
     40 H4          0.5293   -0.3651    0.8851 H         1 <0>         0.0656
     41 H5         -1.0205   -0.3814    0.0098 H         1 <0>         0.0593
     42 H6          0.1910   -0.1364   -2.1398 H         1 <0>         0.0750
     43 H7          1.7408   -0.1202   -1.2645 H         1 <0>         0.0862
     44 H8          2.6380   -4.6024   -0.2152 H         1 <0>         0.1498
     45 H9          0.8322   -5.8699   -1.2636 H         1 <0>         0.1453
     46 H10         3.4411   -3.3992    1.2844 H         1 <0>         0.0740
     47 H11         4.3234   -3.3793   -0.2614 H         1 <0>         0.0746
     48 H12         5.3007   -1.1771    0.3248 H         1 <0>         0.0878
     49 H13         4.4184   -1.1969    1.8705 H         1 <0>         0.0874
     50 H14         5.6075   -3.2729    2.5226 H         1 <0>         0.0632
     51 H15         6.4898   -3.2530    0.9768 H         1 <0>         0.0643
     52 H16         7.4142   -4.3249    2.5045 H         1 <0>         0.1248
     53 H17         9.3421   -5.3813    3.5903 H         1 <0>         0.1269
     54 H18         8.9479   -0.4495    3.4412 H         1 <0>         0.1248
     55 H19        11.5629   -0.5533    4.9479 H         1 <0>         0.1433
     56 H20        12.9801   -2.5962    5.7241 H         1 <0>         0.1664
     57 H21        12.5778   -5.1404    5.9494 H         1 <0>         0.0968
     58 H22        11.0878   -5.8310    5.2629 H         1 <0>         0.0910
@<TRIPOS>BOND
     1    1    2 1
     2    1   37 1
     3    1   38 1
     4    1   39 1
     5    2    3 1
     6    2   40 1
     7    2   41 1
     8    3    4 1
     9    3   42 1
    10    3   43 1
    11    4    9 ar
    12    4    5 ar
    13    5    6 ar
    14    5   17 1
    15    6    7 ar
    16    6   44 1
    17    7    8 ar
    18    7   45 1
    19    8   12 1
    20    8    9 ar
    21    9   10 1
    22   10   11 1
    23   11   12 2
    24   12   13 1
    25   13   14 1
    26   13   15 1
    27   13   16 1
    28   17   18 1
    29   18   19 1
    30   18   46 1
    31   18   47 1
    32   19   20 1
    33   19   48 1
    34   19   49 1
    35   20   21 1
    36   20   50 1
    37   20   51 1
    38   21   22 1
    39   22   27 ar
    40   22   23 ar
    41   23   24 ar
    42   23   52 1
    43   24   25 ar
    44   24   53 1
    45   25   30 1
    46   25   26 ar
    47   26   27 ar
    48   26   28 1
    49   27   54 1
    50   28   29 2
    51   28   55 1
    52   29   30 1
    53   29   56 1
    54   30   31 1
    55   31   57 1
    56   31   58 1
    57   31   32 1
    58   32   33 2
    59   32   36 1
    60   33   34 1
    61   34   35 2
    62   35   36 1
@<TRIPOS>MOLECULE
CHEMBL1075703
   64    68     0     0     0
SMALL
USER_CHARGES

@<TRIPOS>ATOM
      1 C1         -0.4925    2.0092   -0.7886 C.3       1 <0>        -0.1054
      2 C2         -0.3839    0.5149   -0.6265 C.ar      1 <0>        -0.0849
      3 C3         -0.3217   -0.2982   -1.7417 C.ar      1 <0>        -0.1079
      4 C4         -0.2213   -1.6732   -1.5925 C.ar      1 <0>         0.0752
      5 C5         -0.1833   -2.2323   -0.3236 C.ar      1 <0>        -0.1696
      6 C6         -0.2456   -1.4195    0.7913 C.ar      1 <0>        -0.1755
      7 C7         -0.3407   -0.0436    0.6421 C.ar      1 <0>         0.1106
      8 O1         -0.3963    0.7571    1.7398 O.3       1 <0>        -0.2774
      9 C8         -0.3469    0.1141    3.0150 C.3       1 <0>        -0.0069
     10 C9         -0.4198    1.1527    4.1044 C.2       1 <0>         0.5011
     11 O2         -0.5059    2.3341    3.8156 O.co2     1 <0>        -0.6703
     12 O3         -0.3925    0.8117    5.2747 O.co2     1 <0>        -0.6884
     13 O4         -0.1605   -2.4735   -2.6902 O.3       1 <0>        -0.3103
     14 C10        -0.0579   -3.8805   -2.4624 C.3       1 <0>         0.1512
     15 C11        -0.0025   -4.6008   -3.7849 C.2       1 <0>         0.0485
     16 N1          1.0540   -4.9156   -4.4877 N.2       1 <0>        -0.4803
     17 C12         0.9541   -5.5551   -5.6423 C.2       1 <0>         0.1213
     18 C13        -0.3395   -5.8671   -6.0543 C.2       1 <0>        -0.1604
     19 S1         -1.2853   -5.1939   -4.6976 S.3       1 <0>         0.1780
     20 C14        -0.8000   -6.5642   -7.2717 C.ar      1 <0>        -0.0187
     21 C15        -0.1996   -7.7635   -7.6615 C.ar      1 <0>        -0.0499
     22 C16        -0.6327   -8.4109   -8.7988 C.ar      1 <0>        -0.1182
     23 C17        -1.6642   -7.8724   -9.5566 C.ar      1 <0>         0.1149
     24 C18        -2.2637   -6.6801   -9.1730 C.ar      1 <0>        -0.1862
     25 C19        -1.8411   -6.0291   -8.0337 C.ar      1 <0>        -0.0562
     26 O5         -2.0880   -8.5140  -10.6771 O.3       1 <0>        -0.3091
     27 C20        -3.1531   -7.9050  -11.4097 C.3       1 <0>         0.6038
     28 F1         -2.7595   -6.6308  -11.8323 F         1 <0>        -0.1631
     29 F2         -3.4614   -8.6916  -12.5248 F         1 <0>        -0.1300
     30 F3         -4.2811   -7.7965  -10.5893 F         1 <0>        -0.1633
     31 C21         2.1442   -5.9162   -6.4468 C.ar      1 <0>        -0.0115
     32 C22         2.1318   -5.7388   -7.8302 C.ar      1 <0>        -0.0847
     33 C23         3.2407   -6.0754   -8.5810 C.ar      1 <0>        -0.1147
     34 C24         4.3669   -6.5893   -7.9577 C.ar      1 <0>         0.0752
     35 C25         4.3851   -6.7682   -6.5807 C.ar      1 <0>         0.0656
     36 C26         3.2813   -6.4290   -5.8207 C.ar      1 <0>        -0.0810
     37 O6          5.5022   -7.2744   -5.9814 O.3       1 <0>        -0.3162
     38 C27         5.7999   -8.6422   -6.2680 C.3       1 <0>         0.0594
     39 C28         6.5794   -8.7636   -7.5681 C.3       1 <0>        -0.1886
     40 C29         5.7668   -8.3176   -8.7736 C.3       1 <0>         0.0607
     41 O7          5.4666   -6.9229   -8.6947 O.3       1 <0>        -0.3187
     42 H1          0.5063    2.4437   -0.8299 H         1 <0>         0.0696
     43 H2         -1.0261    2.2368   -1.7114 H         1 <0>         0.0613
     44 H3         -1.0361    2.4280    0.0583 H         1 <0>         0.0809
     45 H4         -0.3515    0.1371   -2.7297 H         1 <0>         0.1327
     46 H5         -0.1055   -3.3032   -0.2074 H         1 <0>         0.1249
     47 H6         -0.2168   -1.8548    1.7792 H         1 <0>         0.1323
     48 H7         -1.1894   -0.5711    3.1093 H         1 <0>         0.0578
     49 H8          0.5859   -0.4425    3.1054 H         1 <0>         0.0581
     50 H9          0.8488   -4.0916   -1.8954 H         1 <0>         0.0970
     51 H10        -0.9264   -4.2216   -1.8990 H         1 <0>         0.0900
     52 H11         0.6030   -8.1828   -7.0730 H         1 <0>         0.1405
     53 H12        -0.1688   -9.3382   -9.1012 H         1 <0>         0.1448
     54 H13        -3.0654   -6.2646   -9.7654 H         1 <0>         0.1399
     55 H14        -2.3112   -5.1043   -7.7334 H         1 <0>         0.1393
     56 H15         1.2538   -5.3380   -8.3148 H         1 <0>         0.1333
     57 H16         3.2303   -5.9386   -9.6523 H         1 <0>         0.1393
     58 H17         3.2970   -6.5644   -4.7494 H         1 <0>         0.1396
     59 H18         6.3932   -9.0584   -5.4538 H         1 <0>         0.1049
     60 H19         4.8685   -9.2017   -6.3546 H         1 <0>         0.0573
     61 H20         7.4771   -8.1491   -7.5004 H         1 <0>         0.0848
     62 H21         6.8751   -9.8036   -7.7067 H         1 <0>         0.0909
     63 H22         6.3371   -8.5110   -9.6821 H         1 <0>         0.1046
     64 H23         4.8359   -8.8835   -8.8080 H         1 <0>         0.0578
@<TRIPOS>BOND
     1    1    2 1
     2    1   42 1
     3    1   43 1
     4    1   44 1
     5    2    7 ar
     6    2    3 ar
     7    3    4 ar
     8    3   45 1
     9    4    5 ar
    10    4   13 1
    11    5    6 ar
    12    5   46 1
    13    6    7 ar
    14    6   47 1
    15    7    8 1
    16    8    9 1
    17    9   10 1
    18    9   48 1
    19    9   49 1
    20   10   11 2
    21   10   12 1
    22   13   14 1
    23   14   15 1
    24   14   50 1
    25   14   51 1
    26   15   19 1
    27   15   16 2
    28   16   17 1
    29   17   18 2
    30   17   31 1
    31   18   19 1
    32   18   20 1
    33   20   25 ar
    34   20   21 ar
    35   21   22 ar
    36   21   52 1
    37   22   23 ar
    38   22   53 1
    39   23   24 ar
    40   23   26 1
    41   24   25 ar
    42   24   54 1
    43   25   55 1
    44   26   27 1
    45   27   28 1
    46   27   29 1
    47   27   30 1
    48   31   36 ar
    49   31   32 ar
    50   32   33 ar
    51   32   56 1
    52   33   34 ar
    53   33   57 1
    54   34   41 1
    55   34   35 ar
    56   35   36 ar
    57   35   37 1
    58   36   58 1
    59   37   38 1
    60   38   39 1
    61   38   59 1
    62   38   60 1
    63   39   40 1
    64   39   61 1
    65   39   62 1
    66   40   41 1
    67   40   63 1
    68   40   64 1
@<TRIPOS>MOLECULE
CHEMBL1079965
   61    65     0     0     0
SMALL
USER_CHARGES

@<TRIPOS>ATOM
      1 C1         -0.4939    2.0089   -0.7881 C.3       1 <0>        -0.1053
      2 C2         -0.3853    0.5145   -0.6262 C.ar      1 <0>        -0.0851
      3 C3         -0.3228   -0.2984   -1.7414 C.ar      1 <0>        -0.1081
      4 C4         -0.2223   -1.6735   -1.5923 C.ar      1 <0>         0.0754
      5 C5         -0.1847   -2.2327   -0.3234 C.ar      1 <0>        -0.1696
      6 C6         -0.2472   -1.4200    0.7915 C.ar      1 <0>        -0.1755
      7 C7         -0.3424   -0.0441    0.6424 C.ar      1 <0>         0.1104
      8 O1         -0.3983    0.7565    1.7401 O.3       1 <0>        -0.2775
      9 C8         -0.3492    0.1134    3.0153 C.3       1 <0>        -0.0069
     10 C9         -0.4224    1.1520    4.1048 C.2       1 <0>         0.5012
     11 O2         -0.5086    2.3334    3.8161 O.co2     1 <0>        -0.6704
     12 O3         -0.3954    0.8109    5.2750 O.co2     1 <0>        -0.6884
     13 O4         -0.1612   -2.4737   -2.6901 O.3       1 <0>        -0.3103
     14 C10        -0.0586   -3.8807   -2.4623 C.3       1 <0>         0.1515
     15 C11        -0.0028   -4.6009   -3.7849 C.2       1 <0>         0.0473
     16 N1          1.0538   -4.9156   -4.4874 N.2       1 <0>        -0.4809
     17 C12         0.9542   -5.5550   -5.6421 C.2       1 <0>         0.1249
     18 C13        -0.3392   -5.8670   -6.0544 C.2       1 <0>        -0.1599
     19 S1         -1.2854   -5.1940   -4.6979 S.3       1 <0>         0.1753
     20 C14        -0.7994   -6.5640   -7.2720 C.ar      1 <0>        -0.0186
     21 C15        -0.1988   -7.7633   -7.6618 C.ar      1 <0>        -0.0484
     22 C16        -0.6315   -8.4106   -8.7993 C.ar      1 <0>        -0.1177
     23 C17        -1.6630   -7.8722   -9.5572 C.ar      1 <0>         0.1144
     24 C18        -2.2626   -6.6800   -9.1736 C.ar      1 <0>        -0.1869
     25 C19        -1.8404   -6.0291   -8.0342 C.ar      1 <0>        -0.0569
     26 O5         -2.0865   -8.5137  -10.6778 O.3       1 <0>        -0.3089
     27 C20        -3.1515   -7.9048  -11.4107 C.3       1 <0>         0.6037
     28 F1         -2.7579   -6.6304  -11.8330 F         1 <0>        -0.1633
     29 F2         -3.4595   -8.6913  -12.5259 F         1 <0>        -0.1303
     30 F3         -4.2796   -7.7965  -10.5905 F         1 <0>        -0.1635
     31 C21         2.1446   -5.9160   -6.4463 C.ar      1 <0>        -0.0165
     32 C22         2.1337   -5.7389   -7.8298 C.ar      1 <0>        -0.0876
     33 C23         3.2431   -6.0767   -8.5765 C.ar      1 <0>        -0.1117
     34 C24         4.3733   -6.5919   -7.9562 C.ar      1 <0>         0.0594
     35 C25         4.3910   -6.7684   -6.5765 C.ar      1 <0>         0.0494
     36 C26         3.2810   -6.4282   -5.8218 C.ar      1 <0>        -0.0776
     37 O6          5.4940   -7.2652   -5.9520 O.3       1 <0>        -0.3049
     38 C27         6.4520   -7.9382   -6.7759 C.3       1 <0>         0.0205
     39 C28         6.7001   -7.0795   -8.0234 C.3       1 <0>         0.0194
     40 O7          5.4558   -6.9216   -8.7135 O.3       1 <0>        -0.3062
     41 H1          0.5048    2.4434   -0.8292 H         1 <0>         0.0694
     42 H2         -1.0274    2.2365   -1.7110 H         1 <0>         0.0613
     43 H3         -1.0378    2.4275    0.0586 H         1 <0>         0.0808
     44 H4         -0.3524    0.1369   -2.7293 H         1 <0>         0.1326
     45 H5         -0.1068   -3.3036   -0.2073 H         1 <0>         0.1250
     46 H6         -0.2186   -1.8554    1.7794 H         1 <0>         0.1323
     47 H7         -1.1917   -0.5718    3.1093 H         1 <0>         0.0579
     48 H8          0.5836   -0.4431    3.1059 H         1 <0>         0.0580
     49 H9          0.8480   -4.0918   -1.8951 H         1 <0>         0.0966
     50 H10        -0.9272   -4.2219   -1.8992 H         1 <0>         0.0898
     51 H11         0.6038   -8.1826   -7.0731 H         1 <0>         0.1417
     52 H12        -0.1675   -9.3378   -9.1016 H         1 <0>         0.1450
     53 H13        -3.0643   -6.2645   -9.7662 H         1 <0>         0.1394
     54 H14        -2.3106   -5.1043   -7.7339 H         1 <0>         0.1388
     55 H15         1.2568   -5.3379   -8.3162 H         1 <0>         0.1336
     56 H16         3.2327   -5.9395   -9.6477 H         1 <0>         0.1388
     57 H17         3.2942   -6.5630   -4.7503 H         1 <0>         0.1393
     58 H18         7.3845   -8.0659   -6.2261 H         1 <0>         0.1231
     59 H19         6.0626   -8.9123   -7.0717 H         1 <0>         0.0780
     60 H20         7.0828   -6.1028   -7.7273 H         1 <0>         0.0793
     61 H21         7.4207   -7.5755   -8.6737 H         1 <0>         0.1231
@<TRIPOS>BOND
     1    1    2 1
     2    1   41 1
     3    1   42 1
     4    1   43 1
     5    2    7 ar
     6    2    3 ar
     7    3    4 ar
     8    3   44 1
     9    4    5 ar
    10    4   13 1
    11    5    6 ar
    12    5   45 1
    13    6    7 ar
    14    6   46 1
    15    7    8 1
    16    8    9 1
    17    9   10 1
    18    9   47 1
    19    9   48 1
    20   10   11 2
    21   10   12 1
    22   13   14 1
    23   14   15 1
    24   14   49 1
    25   14   50 1
    26   15   19 1
    27   15   16 2
    28   16   17 1
    29   17   18 2
    30   17   31 1
    31   18   19 1
    32   18   20 1
    33   20   25 ar
    34   20   21 ar
    35   21   22 ar
    36   21   51 1
    37   22   23 ar
    38   22   52 1
    39   23   24 ar
    40   23   26 1
    41   24   25 ar
    42   24   53 1
    43   25   54 1
    44   26   27 1
    45   27   28 1
    46   27   29 1
    47   27   30 1
    48   31   36 ar
    49   31   32 ar
    50   32   33 ar
    51   32   55 1
    52   33   34 ar
    53   33   56 1
    54   34   40 1
    55   34   35 ar
    56   35   36 ar
    57   35   37 1
    58   36   57 1
    59   37   38 1
    60   38   39 1
    61   38   58 1
    62   38   59 1
    63   39   40 1
    64   39   60 1
    65   39   61 1
@<TRIPOS>MOLECULE
CHEMBL418874
   62    66     0     0     0
SMALL
USER_CHARGES

@<TRIPOS>ATOM
      1 C1         -0.0187    1.5258    0.0104 C.3       1 <0>        -0.1529
      2 C2          0.0021   -0.0041    0.0020 C.3       1 <0>        -0.1168
      3 C3          0.7182   -0.4975   -1.2568 C.3       1 <0>        -0.0735
      4 C4          0.7386   -2.0043   -1.2651 C.ar      1 <0>        -0.1098
      5 C5          1.8328   -2.6809   -0.7691 C.ar      1 <0>        -0.0389
      6 C6          1.8507   -4.0753   -0.7767 C.ar      1 <0>        -0.0772
      7 C7          0.7608   -4.7810   -1.2865 C.ar      1 <0>        -0.0474
      8 C8         -0.3299   -4.0987   -1.7808 C.ar      1 <0>        -0.2068
      9 C9         -0.3469   -2.7099   -1.7669 C.ar      1 <0>         0.1562
     10 O1         -1.4257   -2.0405   -2.2497 O.3       1 <0>        -0.3013
     11 C10        -2.5074   -2.8285   -2.7507 C.3       1 <0>         0.0611
     12 C11        -3.6229   -1.9066   -3.2472 C.3       1 <0>        -0.1204
     13 C12        -4.7810   -2.7503   -3.7836 C.3       1 <0>         0.0634
     14 O2         -5.8228   -1.8892   -4.2473 O.3       1 <0>        -0.3079
     15 C13        -6.9327   -2.4837   -4.7589 C.ar      1 <0>         0.1356
     16 C14        -7.0196   -3.8676   -4.8082 C.ar      1 <0>        -0.1913
     17 C15        -8.1489   -4.4694   -5.3282 C.ar      1 <0>        -0.0708
     18 C16        -9.1923   -3.6938   -5.7995 C.ar      1 <0>        -0.1319
     19 C17        -9.1080   -2.3148   -5.7519 C.ar      1 <0>        -0.0406
     20 C18        -7.9829   -1.7080   -5.2274 C.ar      1 <0>        -0.1184
     21 C19       -10.2467   -1.4726   -6.2668 C.3       1 <0>        -0.0340
     22 C20       -11.5721   -1.8957   -5.6489 C.2       1 <0>         0.5343
     23 O3        -11.7837   -1.8243   -4.4573 O.2       1 <0>        -0.4482
     24 N1        -12.4765   -2.3470   -6.5016 N.am      1 <0>        -0.6896
     25 C21       -12.2661   -2.4366   -7.8280 C.2       1 <0>         0.5628
     26 O4        -13.0324   -2.8355   -8.6834 O.2       1 <0>        -0.4134
     27 S1        -10.5980   -1.8316   -8.0383 S.3       1 <0>        -0.1360
     28 C22         3.0253   -4.8057   -0.2449 C.2       1 <0>         0.1809
     29 C23         3.0037   -6.0908    0.4733 C.ar      1 <0>        -0.1886
     30 C24         1.9849   -6.9630    0.8565 C.ar      1 <0>        -0.0412
     31 C25         2.2913   -8.1109    1.5323 C.ar      1 <0>        -0.1477
     32 C26         3.6094   -8.4155    1.8405 C.ar      1 <0>        -0.0589
     33 C27         4.6299   -7.5665    1.4704 C.ar      1 <0>        -0.1247
     34 C28         4.3382   -6.3943    0.7825 C.ar      1 <0>         0.0858
     35 O5          5.0998   -5.3915    0.2997 O.3       1 <0>        -0.0880
     36 N2          4.2745   -4.4326   -0.3304 N.2       1 <0>        -0.2812
     37 H1          1.0039    1.9031    0.0027 H         1 <0>         0.0543
     38 H2         -0.5459    1.8868   -0.8726 H         1 <0>         0.0555
     39 H3         -0.5289    1.8773    0.9072 H         1 <0>         0.0549
     40 H4          0.5293   -0.3651    0.8851 H         1 <0>         0.0604
     41 H5         -1.0205   -0.3814    0.0098 H         1 <0>         0.0642
     42 H6          0.1910   -0.1364   -2.1398 H         1 <0>         0.0797
     43 H7          1.7408   -0.1202   -1.2645 H         1 <0>         0.0736
     44 H8          2.6752   -2.1316   -0.3755 H         1 <0>         0.1375
     45 H9          0.7718   -5.8610   -1.2941 H         1 <0>         0.1329
     46 H10        -1.1739   -4.6446   -2.1759 H         1 <0>         0.1372
     47 H11        -2.1542   -3.4481   -3.5750 H         1 <0>         0.0692
     48 H12        -2.8909   -3.4670   -1.9548 H         1 <0>         0.0693
     49 H13        -3.9761   -1.2871   -2.4228 H         1 <0>         0.0893
     50 H14        -3.2393   -1.2681   -4.0431 H         1 <0>         0.0892
     51 H15        -4.4278   -3.3698   -4.6080 H         1 <0>         0.0689
     52 H16        -5.1645   -3.3887   -2.9877 H         1 <0>         0.0687
     53 H17        -6.2048   -4.4737   -4.4407 H         1 <0>         0.1337
     54 H18        -8.2169   -5.5465   -5.3672 H         1 <0>         0.1338
     55 H19       -10.0745   -4.1663   -6.2057 H         1 <0>         0.1209
     56 H20        -7.9193   -0.6307   -5.1863 H         1 <0>         0.1407
     57 H21       -10.0548   -0.4115   -6.1076 H         1 <0>         0.1697
     58 H22       -13.3366   -2.6286   -6.1527 H         1 <0>         0.4203
     59 H23         0.9567   -6.7318    0.6201 H         1 <0>         0.1334
     60 H24         1.5017   -8.7854    1.8290 H         1 <0>         0.1366
     61 H25         3.8376   -9.3256    2.3752 H         1 <0>         0.1422
     62 H26         5.6532   -7.8111    1.7142 H         1 <0>         0.1412
@<TRIPOS>BOND
     1    1    2 1
     2    1   37 1
     3    1   38 1
     4    1   39 1
     5    2    3 1
     6    2   40 1
     7    2   41 1
     8    3    4 1
     9    3   42 1
    10    3   43 1
    11    4    9 ar
    12    4    5 ar
    13    5    6 ar
    14    5   44 1
    15    6    7 ar
    16    6   28 1
    17    7    8 ar
    18    7   45 1
    19    8    9 ar
    20    8   46 1
    21    9   10 1
    22   10   11 1
    23   11   12 1
    24   11   47 1
    25   11   48 1
    26   12   13 1
    27   12   49 1
    28   12   50 1
    29   13   14 1
    30   13   51 1
    31   13   52 1
    32   14   15 1
    33   15   20 ar
    34   15   16 ar
    35   16   17 ar
    36   16   53 1
    37   17   18 ar
    38   17   54 1
    39   18   19 ar
    40   18   55 1
    41   19   20 ar
    42   19   21 1
    43   20   56 1
    44   21   27 1
    45   21   22 1
    46   21   57 1
    47   22   23 2
    48   22   24 am
    49   24   25 am
    50   24   58 1
    51   25   26 2
    52   25   27 1
    53   28   36 2
    54   28   29 1
    55   29   34 ar
    56   29   30 ar
    57   30   31 ar
    58   30   59 1
    59   31   32 ar
    60   31   60 1
    61   32   33 ar
    62   32   61 1
    63   33   34 ar
    64   33   62 1
    65   34   35 1
    66   35   36 1
@<TRIPOS>MOLECULE
CHEMBL418874__1
   62    66     0     0     0
SMALL
USER_CHARGES

@<TRIPOS>ATOM
      1 C1         -0.0187    1.5258    0.0104 C.3       1 <0>        -0.1529
      2 C2          0.0021   -0.0041    0.0020 C.3       1 <0>        -0.1168
      3 C3          0.7182   -0.4975   -1.2568 C.3       1 <0>        -0.0735
      4 C4          0.7386   -2.0043   -1.2651 C.ar      1 <0>        -0.1098
      5 C5          1.8328   -2.6809   -0.7691 C.ar      1 <0>        -0.0389
      6 C6          1.8507   -4.0753   -0.7767 C.ar      1 <0>        -0.0772
      7 C7          0.7608   -4.7810   -1.2865 C.ar      1 <0>        -0.0474
      8 C8         -0.3299   -4.0987   -1.7808 C.ar      1 <0>        -0.2068
      9 C9         -0.3469   -2.7099   -1.7669 C.ar      1 <0>         0.1562
     10 O1         -1.4257   -2.0405   -2.2497 O.3       1 <0>        -0.3013
     11 C10        -2.5074   -2.8285   -2.7507 C.3       1 <0>         0.0611
     12 C11        -3.6229   -1.9066   -3.2472 C.3       1 <0>        -0.1204
     13 C12        -4.7810   -2.7503   -3.7836 C.3       1 <0>         0.0634
     14 O2         -5.8228   -1.8892   -4.2473 O.3       1 <0>        -0.3079
     15 C13        -6.9327   -2.4837   -4.7589 C.ar      1 <0>         0.1357
     16 C14        -7.0196   -3.8676   -4.8082 C.ar      1 <0>        -0.1913
     17 C15        -8.1489   -4.4694   -5.3282 C.ar      1 <0>        -0.0708
     18 C16        -9.1923   -3.6938   -5.7995 C.ar      1 <0>        -0.1319
     19 C17        -9.1080   -2.3148   -5.7519 C.ar      1 <0>        -0.0405
     20 C18        -7.9829   -1.7080   -5.2274 C.ar      1 <0>        -0.1185
     21 C19       -10.2467   -1.4726   -6.2668 C.3       1 <0>        -0.0339
     22 C20       -10.6449   -1.8824   -7.6777 C.2       1 <0>         0.5343
     23 O3         -9.8829   -1.7970   -8.6168 O.2       1 <0>        -0.4481
     24 N1        -11.8793   -2.3384   -7.8084 N.am      1 <0>        -0.6896
     25 C21       -12.7440   -2.4434   -6.7823 C.2       1 <0>         0.5629
     26 O4        -13.8901   -2.8484   -6.8060 O.2       1 <0>        -0.4134
     27 S1        -11.8142   -1.8491   -5.3769 S.3       1 <0>        -0.1364
     28 C22         3.0253   -4.8057   -0.2449 C.2       1 <0>         0.1809
     29 C23         3.0037   -6.0908    0.4733 C.ar      1 <0>        -0.1886
     30 C24         1.9849   -6.9630    0.8565 C.ar      1 <0>        -0.0412
     31 C25         2.2913   -8.1109    1.5323 C.ar      1 <0>        -0.1477
     32 C26         3.6094   -8.4155    1.8405 C.ar      1 <0>        -0.0589
     33 C27         4.6299   -7.5665    1.4704 C.ar      1 <0>        -0.1248
     34 C28         4.3382   -6.3943    0.7825 C.ar      1 <0>         0.0858
     35 O5          5.0998   -5.3915    0.2997 O.3       1 <0>        -0.0881
     36 N2          4.2745   -4.4326   -0.3304 N.2       1 <0>        -0.2812
     37 H1          1.0039    1.9031    0.0027 H         1 <0>         0.0543
     38 H2         -0.5459    1.8868   -0.8726 H         1 <0>         0.0555
     39 H3         -0.5289    1.8773    0.9072 H         1 <0>         0.0549
     40 H4          0.5293   -0.3651    0.8851 H         1 <0>         0.0604
     41 H5         -1.0205   -0.3814    0.0098 H         1 <0>         0.0642
     42 H6          0.1910   -0.1364   -2.1398 H         1 <0>         0.0797
     43 H7          1.7408   -0.1202   -1.2645 H         1 <0>         0.0736
     44 H8          2.6752   -2.1316   -0.3755 H         1 <0>         0.1375
     45 H9          0.7718   -5.8610   -1.2941 H         1 <0>         0.1329
     46 H10        -1.1739   -4.6446   -2.1759 H         1 <0>         0.1372
     47 H11        -2.1542   -3.4481   -3.5750 H         1 <0>         0.0691
     48 H12        -2.8909   -3.4670   -1.9548 H         1 <0>         0.0694
     49 H13        -3.9761   -1.2871   -2.4228 H         1 <0>         0.0893
     50 H14        -3.2393   -1.2681   -4.0431 H         1 <0>         0.0892
     51 H15        -4.4278   -3.3698   -4.6080 H         1 <0>         0.0687
     52 H16        -5.1645   -3.3887   -2.9877 H         1 <0>         0.0689
     53 H17        -6.2048   -4.4737   -4.4407 H         1 <0>         0.1337
     54 H18        -8.2169   -5.5465   -5.3672 H         1 <0>         0.1338
     55 H19       -10.0745   -4.1663   -6.2057 H         1 <0>         0.1210
     56 H20        -7.9193   -0.6307   -5.1863 H         1 <0>         0.1407
     57 H21       -10.0060   -0.4108   -6.2143 H         1 <0>         0.1697
     58 H22       -12.1773   -2.6114   -8.6902 H         1 <0>         0.4204
     59 H23         0.9567   -6.7318    0.6201 H         1 <0>         0.1334
     60 H24         1.5017   -8.7854    1.8290 H         1 <0>         0.1366
     61 H25         3.8376   -9.3256    2.3752 H         1 <0>         0.1422
     62 H26         5.6532   -7.8111    1.7142 H         1 <0>         0.1412
@<TRIPOS>BOND
     1    1    2 1
     2    1   37 1
     3    1   38 1
     4    1   39 1
     5    2    3 1
     6    2   40 1
     7    2   41 1
     8    3    4 1
     9    3   42 1
    10    3   43 1
    11    4    9 ar
    12    4    5 ar
    13    5    6 ar
    14    5   44 1
    15    6    7 ar
    16    6   28 1
    17    7    8 ar
    18    7   45 1
    19    8    9 ar
    20    8   46 1
    21    9   10 1
    22   10   11 1
    23   11   12 1
    24   11   47 1
    25   11   48 1
    26   12   13 1
    27   12   49 1
    28   12   50 1
    29   13   14 1
    30   13   51 1
    31   13   52 1
    32   14   15 1
    33   15   20 ar
    34   15   16 ar
    35   16   17 ar
    36   16   53 1
    37   17   18 ar
    38   17   54 1
    39   18   19 ar
    40   18   55 1
    41   19   20 ar
    42   19   21 1
    43   20   56 1
    44   21   27 1
    45   21   22 1
    46   21   57 1
    47   22   23 2
    48   22   24 am
    49   24   25 am
    50   24   58 1
    51   25   26 2
    52   25   27 1
    53   28   36 2
    54   28   29 1
    55   29   34 ar
    56   29   30 ar
    57   30   31 ar
    58   30   59 1
    59   31   32 ar
    60   31   60 1
    61   32   33 ar
    62   32   61 1
    63   33   34 ar
    64   33   62 1
    65   34   35 1
    66   35   36 1
@<TRIPOS>MOLECULE
CHEMBL247909
   57    60     0     0     0
SMALL
USER_CHARGES

@<TRIPOS>ATOM
      1 C1         -0.0184    1.5028    0.0103 C.3       1 <0>        -0.1010
      2 C2          0.0021   -0.0041    0.0020 C.ar      1 <0>        -0.1150
      3 C3          0.0057   -0.6889   -1.1980 C.ar      1 <0>        -0.0846
      4 C4          0.0240   -2.0712   -1.2062 C.ar      1 <0>        -0.0926
      5 C5          0.0391   -2.7720   -0.0142 C.ar      1 <0>        -0.0875
      6 C6          0.0359   -2.0920    1.1881 C.ar      1 <0>        -0.2006
      7 C7          0.0230   -0.7046    1.1991 C.ar      1 <0>         0.1086
      8 O1          0.0255   -0.0332    2.3806 O.3       1 <0>        -0.3137
      9 C8          0.0475   -0.8196    3.5736 C.3       1 <0>         0.0651
     10 C9          0.0471    0.1040    4.7934 C.3       1 <0>        -0.1346
     11 C10         0.0706   -0.7379    6.0706 C.3       1 <0>         0.1305
     12 N1          0.0702    0.1465    7.2386 N.pl3     1 <0>        -0.5500
     13 C11        -1.1986    0.5719    7.8348 C.3       1 <0>         0.2072
     14 C12        -1.6103   -0.4148    8.8969 C.2       1 <0>        -0.1866
     15 C13        -1.3219   -0.4133   10.2213 C.2       1 <0>        -0.1287
     16 C14        -1.8136   -1.4321   11.0156 C.2       1 <0>        -0.1618
     17 C15        -2.5696   -2.4027   10.4466 C.2       1 <0>        -0.1620
     18 S1         -2.6109   -1.8848    8.7386 S.3       1 <0>         0.0545
     19 C16         1.2651    0.5789    7.7772 C.2       1 <0>         0.4282
     20 N2          2.4899    0.3136    7.3839 N.2       1 <0>        -0.5772
     21 C17         3.5778    0.8112    8.0129 C.ar      1 <0>         0.1400
     22 C18         4.9399    0.6050    7.6949 C.ar      1 <0>        -0.0726
     23 C19         5.9299    1.1882    8.4419 C.ar      1 <0>        -0.0877
     24 C20         5.6353    1.9973    9.5308 C.ar      1 <0>        -0.0408
     25 C21         4.3122    2.2204    9.8702 C.ar      1 <0>        -0.0411
     26 C22         3.3152    1.6399    9.1270 C.ar      1 <0>        -0.1615
     27 S2          1.5393    1.6486    9.1824 S.3       1 <0>        -0.0120
     28 Cl1         6.9126    2.7210   10.4572 Cl        1 <0>        -0.0581
     29 C23         0.0269   -2.8156   -2.5165 C.3       1 <0>        -0.0566
     30 C24         1.4703   -3.0485   -2.9676 C.3       1 <0>        -0.1751
     31 C25         1.4732   -3.7929   -4.2779 C.2       1 <0>         0.4891
     32 O2          0.4186   -4.1080   -4.8023 O.co2     1 <0>        -0.6989
     33 O3          2.5302   -4.0801   -4.8135 O.co2     1 <0>        -0.7066
     34 H1          1.0042    1.8801    0.0026 H         1 <0>         0.0644
     35 H2         -0.5455    1.8639   -0.8728 H         1 <0>         0.0628
     36 H3         -0.5286    1.8543    0.9071 H         1 <0>         0.0650
     37 H4         -0.0060   -0.1439   -2.1303 H         1 <0>         0.1277
     38 H5          0.0529   -3.8519   -0.0233 H         1 <0>         0.1232
     39 H6          0.0477   -2.6398    2.1188 H         1 <0>         0.1222
     40 H7         -0.8338   -1.4603    3.6027 H         1 <0>         0.0616
     41 H8          0.9459   -1.4367    3.5855 H         1 <0>         0.0638
     42 H9          0.9284    0.7448    4.7642 H         1 <0>         0.0818
     43 H10        -0.8513    0.7212    4.7815 H         1 <0>         0.0768
     44 H11        -0.8107   -1.3786    6.0997 H         1 <0>         0.0891
     45 H12         0.9690   -1.3550    6.0825 H         1 <0>         0.0957
     46 H13        -1.0769    1.5581    8.2827 H         1 <0>         0.1040
     47 H14        -1.9664    0.6158    7.0624 H         1 <0>         0.1135
     48 H15        -0.7168    0.3721   10.6496 H         1 <0>         0.1342
     49 H16        -1.5983   -1.4547   12.0737 H         1 <0>         0.1356
     50 H17        -3.0307   -3.2637   10.9076 H         1 <0>         0.1874
     51 H18         5.2031   -0.0194    6.8539 H         1 <0>         0.1416
     52 H19         6.9625    1.0142    8.1777 H         1 <0>         0.1423
     53 H20         4.0660    2.8470   10.7147 H         1 <0>         0.1395
     54 H21        -0.4736   -3.7756   -2.3901 H         1 <0>         0.0692
     55 H22        -0.4987   -2.2282   -3.2694 H         1 <0>         0.0697
     56 H23         1.9708   -2.0885   -3.0940 H         1 <0>         0.0566
     57 H24         1.9959   -3.6359   -2.2147 H         1 <0>         0.0561
@<TRIPOS>BOND
     1    1    2 1
     2    1   34 1
     3    1   35 1
     4    1   36 1
     5    2    7 ar
     6    2    3 ar
     7    3    4 ar
     8    3   37 1
     9    4    5 ar
    10    4   29 1
    11    5    6 ar
    12    5   38 1
    13    6    7 ar
    14    6   39 1
    15    7    8 1
    16    8    9 1
    17    9   10 1
    18    9   40 1
    19    9   41 1
    20   10   11 1
    21   10   42 1
    22   10   43 1
    23   11   12 1
    24   11   44 1
    25   11   45 1
    26   12   13 1
    27   12   19 1
    28   13   14 1
    29   13   46 1
    30   13   47 1
    31   14   18 1
    32   14   15 2
    33   15   16 1
    34   15   48 1
    35   16   17 2
    36   16   49 1
    37   17   18 1
    38   17   50 1
    39   19   27 1
    40   19   20 2
    41   20   21 1
    42   21   26 ar
    43   21   22 ar
    44   22   23 ar
    45   22   51 1
    46   23   24 ar
    47   23   52 1
    48   24   25 ar
    49   24   28 1
    50   25   26 ar
    51   25   53 1
    52   26   27 1
    53   29   30 1
    54   29   54 1
    55   29   55 1
    56   30   31 1
    57   30   56 1
    58   30   57 1
    59   31   32 2
    60   31   33 1
@<TRIPOS>MOLECULE
CHEMBL213355
   54    55     0     0     0
SMALL
USER_CHARGES

@<TRIPOS>ATOM
      1 C1         -0.0187    1.5258    0.0104 C.3       1 <0>        -0.1524
      2 C2          0.0021   -0.0041    0.0020 C.3       1 <0>        -0.1180
      3 C3         -1.4333   -0.5336    0.0129 C.3       1 <0>        -0.0724
      4 C4         -1.4129   -2.0405    0.0046 C.ar      1 <0>        -0.1143
      5 C5         -1.5134   -2.7268   -1.1904 C.ar      1 <0>        -0.0316
      6 C6         -1.4953   -4.1091   -1.1986 C.ar      1 <0>        -0.2217
      7 C7         -1.3760   -4.8084   -0.0116 C.ar      1 <0>        -0.0321
      8 C8         -1.2747   -4.1270    1.1856 C.ar      1 <0>        -0.2086
      9 C9         -1.2874   -2.7396    1.1961 C.ar      1 <0>         0.1684
     10 O1         -1.1822   -2.0667    2.3721 O.3       1 <0>        -0.2999
     11 C10        -1.0560   -2.8517    3.5596 C.3       1 <0>         0.0596
     12 C11        -0.9506   -1.9266    4.7737 C.3       1 <0>        -0.1179
     13 C12        -0.8154   -2.7670    6.0450 C.3       1 <0>         0.0657
     14 O2         -0.7169   -1.9030    7.1789 O.3       1 <0>        -0.3154
     15 C13        -0.5904   -2.4946    8.3967 C.ar      1 <0>         0.0754
     16 C14        -0.5560   -3.8779    8.4956 C.ar      1 <0>        -0.1706
     17 C15        -0.4279   -4.4788    9.7325 C.ar      1 <0>        -0.1766
     18 C16        -0.3331   -3.6991   10.8760 C.ar      1 <0>         0.1085
     19 C17        -0.3670   -2.3163   10.7771 C.ar      1 <0>        -0.0855
     20 C18        -0.4899   -1.7151    9.5393 C.ar      1 <0>        -0.1118
     21 C19        -0.2641   -1.4693   12.0192 C.3       1 <0>        -0.1054
     22 O3         -0.2075   -4.2908   12.0939 O.3       1 <0>        -0.2778
     23 C20        -0.1800   -5.7192   12.1214 C.3       1 <0>        -0.0067
     24 C21        -0.0369   -6.1915   13.5453 C.2       1 <0>         0.5012
     25 O4          0.0349   -5.3801   14.4524 O.co2     1 <0>        -0.6702
     26 O5          0.0071   -7.3851   13.7902 O.co2     1 <0>        -0.6884
     27 C22        -1.6061   -4.8551   -2.5033 C.3       1 <0>         0.5124
     28 F1         -0.3272   -5.0679   -3.0289 F         1 <0>        -0.1777
     29 F2         -2.2313   -6.0873   -2.2842 F         1 <0>        -0.1780
     30 F3         -2.3628   -4.1025   -3.4079 F         1 <0>        -0.1783
     31 H1          1.0039    1.9031    0.0027 H         1 <0>         0.0549
     32 H2         -0.5459    1.8868   -0.8726 H         1 <0>         0.0535
     33 H3         -0.5289    1.8773    0.9072 H         1 <0>         0.0561
     34 H4          0.5123   -0.3556   -0.8948 H         1 <0>         0.0606
     35 H5          0.5293   -0.3651    0.8851 H         1 <0>         0.0654
     36 H6         -1.9435   -0.1821    0.9097 H         1 <0>         0.0809
     37 H7         -1.9605   -0.1726   -0.8702 H         1 <0>         0.0737
     38 H8         -1.6067   -2.1829   -2.1187 H         1 <0>         0.1414
     39 H9         -1.3624   -5.8883   -0.0206 H         1 <0>         0.1387
     40 H10        -1.1816   -4.6736    2.1124 H         1 <0>         0.1413
     41 H11        -1.9311   -3.4927    3.6661 H         1 <0>         0.0706
     42 H12        -0.1596   -3.4684    3.4938 H         1 <0>         0.0706
     43 H13        -0.0755   -1.2855    4.6671 H         1 <0>         0.0870
     44 H14        -1.8469   -1.3099    4.8394 H         1 <0>         0.0869
     45 H15        -1.6905   -3.4081    6.1515 H         1 <0>         0.0629
     46 H16         0.0810   -3.3837    5.9792 H         1 <0>         0.0629
     47 H17        -0.6298   -4.4849    7.6054 H         1 <0>         0.1232
     48 H18        -0.4019   -5.5557    9.8096 H         1 <0>         0.1310
     49 H19        -0.5122   -0.6381    9.4618 H         1 <0>         0.1326
     50 H20         0.7836   -1.2469   12.2216 H         1 <0>         0.0692
     51 H21        -0.8109   -0.5382   11.8705 H         1 <0>         0.0613
     52 H22        -0.6905   -2.0100   12.8641 H         1 <0>         0.0806
     53 H23        -1.1072   -6.1086   11.7009 H         1 <0>         0.0574
     54 H24         0.6646   -6.0778   11.5330 H         1 <0>         0.0575
@<TRIPOS>BOND
     1    1    2 1
     2    1   31 1
     3    1   32 1
     4    1   33 1
     5    2    3 1
     6    2   34 1
     7    2   35 1
     8    3    4 1
     9    3   36 1
    10    3   37 1
    11    4    9 ar
    12    4    5 ar
    13    5    6 ar
    14    5   38 1
    15    6    7 ar
    16    6   27 1
    17    7    8 ar
    18    7   39 1
    19    8    9 ar
    20    8   40 1
    21    9   10 1
    22   10   11 1
    23   11   12 1
    24   11   41 1
    25   11   42 1
    26   12   13 1
    27   12   43 1
    28   12   44 1
    29   13   14 1
    30   13   45 1
    31   13   46 1
    32   14   15 1
    33   15   20 ar
    34   15   16 ar
    35   16   17 ar
    36   16   47 1
    37   17   18 ar
    38   17   48 1
    39   18   19 ar
    40   18   22 1
    41   19   20 ar
    42   19   21 1
    43   20   49 1
    44   21   50 1
    45   21   51 1
    46   21   52 1
    47   22   23 1
    48   23   24 1
    49   23   53 1
    50   23   54 1
    51   24   25 2
    52   24   26 1
    53   27   28 1
    54   27   29 1
    55   27   30 1
@<TRIPOS>MOLECULE
CHEMBL247508
   57    60     0     0     0
SMALL
USER_CHARGES

@<TRIPOS>ATOM
      1 C1         -0.0165    1.3664    0.0096 C.ar      1 <0>        -0.0990
      2 C2          1.1564    2.1072    0.0023 C.ar      1 <0>        -0.1211
      3 C3          2.3728    1.4491   -0.0128 C.ar      1 <0>        -0.0534
      4 C4          2.4008    0.0772   -0.0204 C.ar      1 <0>        -0.1649
      5 C5          1.2271   -0.7099   -0.0134 C.ar      1 <0>         0.1315
      6 C6          0.0021   -0.0041    0.0020 C.ar      1 <0>        -0.0872
      7 N1          1.4190   -2.0474   -0.0227 N.2       1 <0>        -0.5834
      8 C7          2.6161   -2.5880   -0.0374 C.2       1 <0>         0.4232
      9 S1          3.6821   -1.1535   -0.0397 S.3       1 <0>        -0.0294
     10 N2          2.9626   -3.9238   -0.0483 N.pl3     1 <0>        -0.5476
     11 C8          1.9184   -4.9514   -0.0439 C.3       1 <0>         0.1343
     12 C9          1.5409   -5.3010   -1.4848 C.3       1 <0>         0.0413
     13 O1          2.6606   -5.9025   -2.1380 O.3       1 <0>        -0.3187
     14 C10         2.4916   -6.2755   -3.4338 C.ar      1 <0>         0.1082
     15 C11         1.2751   -6.0616   -4.0655 C.ar      1 <0>        -0.2026
     16 C12         1.1061   -6.4413   -5.3829 C.ar      1 <0>        -0.0821
     17 C13         2.1480   -7.0343   -6.0718 C.ar      1 <0>        -0.0954
     18 C14         3.3612   -7.2490   -5.4444 C.ar      1 <0>        -0.0828
     19 C15         3.5372   -6.8656   -4.1289 C.ar      1 <0>        -0.1476
     20 C16         1.9607   -7.4479   -7.5088 C.3       1 <0>        -0.0575
     21 C17         2.3505   -6.2887   -8.4281 C.3       1 <0>        -0.1752
     22 C18         2.1632   -6.7023   -9.8651 C.2       1 <0>         0.4890
     23 O2          1.7557   -7.8206  -10.1294 O.co2     1 <0>        -0.6987
     24 O3          2.4192   -5.9186  -10.7633 O.co2     1 <0>        -0.7061
     25 C19         4.3745   -4.3142   -0.0642 C.3       1 <0>         0.1588
     26 C20         4.8724   -4.4561    1.3511 C.ar      1 <0>        -0.0829
     27 C21         5.4147   -3.3659    2.0055 C.ar      1 <0>        -0.1018
     28 C22         5.8715   -3.4960    3.3037 C.ar      1 <0>        -0.0688
     29 C23         5.7855   -4.7162    3.9477 C.ar      1 <0>        -0.1771
     30 C24         5.2424   -5.8062    3.2936 C.ar      1 <0>        -0.0705
     31 C25         4.7817   -5.6750    1.9968 C.ar      1 <0>        -0.0991
     32 C26         6.2843   -4.8583    5.3626 C.3       1 <0>         0.5079
     33 F1          5.2434   -4.5785    6.2544 F         1 <0>        -0.1760
     34 F2          6.7360   -6.1662    5.5687 F         1 <0>        -0.1762
     35 F3          7.3367   -3.9621    5.5783 F         1 <0>        -0.1764
     36 H1         -0.9658    1.8812    0.0259 H         1 <0>         0.1305
     37 H2          1.1200    3.1865    0.0081 H         1 <0>         0.1347
     38 H3          3.2948    2.0115   -0.0189 H         1 <0>         0.1293
     39 H4         -0.9293   -0.5508    0.0079 H         1 <0>         0.1292
     40 H5          2.2887   -5.8434    0.4614 H         1 <0>         0.0962
     41 H6          1.0402   -4.5748    0.4806 H         1 <0>         0.1099
     42 H7          0.7038   -5.9992   -1.4819 H         1 <0>         0.0756
     43 H8          1.2550   -4.3932   -2.0160 H         1 <0>         0.0684
     44 H9          0.4608   -5.5991   -3.5276 H         1 <0>         0.1212
     45 H10         0.1593   -6.2750   -5.8751 H         1 <0>         0.1233
     46 H11         4.1734   -7.7127   -5.9845 H         1 <0>         0.1283
     47 H12         4.4865   -7.0294   -3.6406 H         1 <0>         0.1248
     48 H13         2.5917   -8.3103   -7.7239 H         1 <0>         0.0703
     49 H14         0.9164   -7.7106   -7.6781 H         1 <0>         0.0694
     50 H15         1.7195   -5.4264   -8.2130 H         1 <0>         0.0558
     51 H16         3.3948   -6.0261   -8.2588 H         1 <0>         0.0566
     52 H17         4.4824   -5.2660   -0.5844 H         1 <0>         0.1194
     53 H18         4.9569   -3.5504   -0.5794 H         1 <0>         0.0928
     54 H19         5.4819   -2.4126    1.5025 H         1 <0>         0.1359
     55 H20         6.2958   -2.6444    3.8148 H         1 <0>         0.1379
     56 H21         5.1755   -6.7595    3.7965 H         1 <0>         0.1387
     57 H22         4.3539   -6.5256    1.4871 H         1 <0>         0.1392
@<TRIPOS>BOND
     1    1    6 ar
     2    1    2 ar
     3    1   36 1
     4    2    3 ar
     5    2   37 1
     6    3    4 ar
     7    3   38 1
     8    4    9 1
     9    4    5 ar
    10    5    6 ar
    11    5    7 1
    12    6   39 1
    13    7    8 2
    14    8    9 1
    15    8   10 1
    16   10   11 1
    17   10   25 1
    18   11   12 1
    19   11   40 1
    20   11   41 1
    21   12   13 1
    22   12   42 1
    23   12   43 1
    24   13   14 1
    25   14   19 ar
    26   14   15 ar
    27   15   16 ar
    28   15   44 1
    29   16   17 ar
    30   16   45 1
    31   17   18 ar
    32   17   20 1
    33   18   19 ar
    34   18   46 1
    35   19   47 1
    36   20   21 1
    37   20   48 1
    38   20   49 1
    39   21   22 1
    40   21   50 1
    41   21   51 1
    42   22   23 2
    43   22   24 1
    44   25   26 1
    45   25   52 1
    46   25   53 1
    47   26   31 ar
    48   26   27 ar
    49   27   28 ar
    50   27   54 1
    51   28   29 ar
    52   28   55 1
    53   29   30 ar
    54   29   32 1
    55   30   31 ar
    56   30   56 1
    57   31   57 1
    58   32   33 1
    59   32   34 1
    60   32   35 1
@<TRIPOS>MOLECULE
CHEMBL241298
   59    61     0     0     0
SMALL
USER_CHARGES

@<TRIPOS>ATOM
      1 C1         -0.0028    1.4959    0.2722 C.3       1 <0>        -0.1493
      2 C2          0.0042   -0.0099    0.0011 C.3       1 <0>        -0.0787
      3 C3         -1.4106   -0.5289    0.0122 C.ar      1 <0>        -0.1207
      4 C4         -1.9729   -0.9725    1.1959 C.ar      1 <0>        -0.0687
      5 C5         -3.2699   -1.4498    1.2160 C.ar      1 <0>        -0.2113
      6 C6         -4.0141   -1.4865    0.0479 C.ar      1 <0>         0.1573
      7 C7         -3.4487   -1.0389   -1.1495 C.ar      1 <0>        -0.0483
      8 C8         -2.1429   -0.5546   -1.1577 C.ar      1 <0>        -0.0661
      9 C9         -4.2381   -1.0744   -2.4053 C.2       1 <0>         0.0368
     10 C10        -3.8153   -0.6792   -3.6309 C.2       1 <0>        -0.0692
     11 O1         -4.8392   -0.8796   -4.4831 O.3       1 <0>        -0.2043
     12 C11        -5.8641   -1.3874   -3.7855 C.2       1 <0>         0.1707
     13 N1         -5.5101   -1.5124   -2.5396 N.2       1 <0>        -0.4544
     14 O2         -5.2890   -1.9563    0.0662 O.3       1 <0>        -0.2723
     15 C12        -5.8414   -2.2837    1.3428 C.3       1 <0>         0.0809
     16 H1         -5.4643   -1.5870    2.0914 H         1 <0>         0.0740
     17 C13        -5.4368   -3.7093    1.7232 C.3       1 <0>        -0.1770
     18 C14        -7.3670   -2.1865    1.2784 C.3       1 <0>        -0.1089
     19 C15        -7.7751   -0.7345    1.0210 C.3       1 <0>         0.0628
     20 O3         -9.1999   -0.6437    0.9609 O.3       1 <0>        -0.3186
     21 C16        -9.7308    0.5871    0.7369 C.ar      1 <0>         0.1163
     22 C17        -8.8972    1.6840    0.5726 C.ar      1 <0>        -0.2094
     23 C18        -9.4393    2.9338    0.3446 C.ar      1 <0>        -0.0792
     24 C19       -10.8115    3.0924    0.2800 C.ar      1 <0>        -0.1005
     25 C20       -11.6442    2.0011    0.4439 C.ar      1 <0>        -0.0465
     26 C21       -11.1068    0.7478    0.6665 C.ar      1 <0>        -0.1514
     27 C22       -13.1392    2.1775    0.3735 C.3       1 <0>        -0.1207
     28 C23       -11.4002    4.4571    0.0312 C.3       1 <0>        -0.0562
     29 C24       -11.7538    5.1116    1.3682 C.3       1 <0>        -0.1754
     30 C25       -12.3425    6.4763    1.1193 C.2       1 <0>         0.4892
     31 O4        -12.4676    6.8874   -0.0217 O.co2     1 <0>        -0.6986
     32 O5        -12.6936    7.1694    2.0589 O.co2     1 <0>        -0.7070
     33 H2          1.0205    1.8712    0.2642 H         1 <0>         0.0571
     34 H3         -0.5813    2.0015   -0.5009 H         1 <0>         0.0561
     35 H4         -0.4525    1.6876    1.2464 H         1 <0>         0.0560
     36 H5          0.4539   -0.2016   -0.9731 H         1 <0>         0.0703
     37 H6          0.5828   -0.5156    0.7742 H         1 <0>         0.0708
     38 H7         -1.3957   -0.9462    2.1084 H         1 <0>         0.1255
     39 H8         -3.7036   -1.7948    2.1430 H         1 <0>         0.1334
     40 H9         -1.7023   -0.2034   -2.0790 H         1 <0>         0.1280
     41 H10        -2.8427   -0.2796   -3.8774 H         1 <0>         0.2138
     42 H11        -6.8280   -1.6544   -4.1928 H         1 <0>         0.2486
     43 H12        -5.8140   -4.4060    0.9745 H         1 <0>         0.0702
     44 H13        -4.3500   -3.7786    1.7690 H         1 <0>         0.0639
     45 H14        -5.8583   -3.9591    2.6969 H         1 <0>         0.0733
     46 H15        -7.7374   -2.8167    0.4699 H         1 <0>         0.0877
     47 H16        -7.7926   -2.5213    2.2243 H         1 <0>         0.0911
     48 H17        -7.4047   -0.1042    1.8295 H         1 <0>         0.0546
     49 H18        -7.3494   -0.3997    0.0751 H         1 <0>         0.0704
     50 H19        -7.8255    1.5608    0.6232 H         1 <0>         0.1196
     51 H20        -8.7909    3.7881    0.2169 H         1 <0>         0.1221
     52 H21       -11.7576   -0.1051    0.7900 H         1 <0>         0.1248
     53 H22       -13.4723    2.0472   -0.6561 H         1 <0>         0.0711
     54 H23       -13.6229    1.4354    1.0086 H         1 <0>         0.0631
     55 H24       -13.4036    3.1776    0.7171 H         1 <0>         0.0807
     56 H25       -10.6734    5.0758   -0.4953 H         1 <0>         0.0672
     57 H26       -12.3009    4.3593   -0.5749 H         1 <0>         0.0718
     58 H27       -12.4805    4.4929    1.8946 H         1 <0>         0.0579
     59 H28       -10.8531    5.2094    1.9743 H         1 <0>         0.0553
@<TRIPOS>BOND
     1    1    2 1
     2    1   33 1
     3    1   34 1
     4    1   35 1
     5    2    3 1
     6    2   36 1
     7    2   37 1
     8    3    8 ar
     9    3    4 ar
    10    4    5 ar
    11    4   38 1
    12    5    6 ar
    13    5   39 1
    14    6    7 ar
    15    6   14 1
    16    7    8 ar
    17    7    9 1
    18    8   40 1
    19    9   13 1
    20    9   10 2
    21   10   11 1
    22   10   41 1
    23   11   12 1
    24   12   13 2
    25   12   42 1
    26   14   15 1
    27   15   16 1
    28   15   17 1
    29   15   18 1
    30   17   43 1
    31   17   44 1
    32   17   45 1
    33   18   19 1
    34   18   46 1
    35   18   47 1
    36   19   20 1
    37   19   48 1
    38   19   49 1
    39   20   21 1
    40   21   26 ar
    41   21   22 ar
    42   22   23 ar
    43   22   50 1
    44   23   24 ar
    45   23   51 1
    46   24   25 ar
    47   24   28 1
    48   25   26 ar
    49   25   27 1
    50   26   52 1
    51   27   53 1
    52   27   54 1
    53   27   55 1
    54   28   29 1
    55   28   56 1
    56   28   57 1
    57   29   30 1
    58   29   58 1
    59   29   59 1
    60   30   31 2
    61   30   32 1
@<TRIPOS>MOLECULE
CHEMBL221044
   70    74     0     0     0
SMALL
USER_CHARGES

@<TRIPOS>ATOM
      1 C1         -1.0794    2.6432    0.6209 C.3       1 <0>        -0.1524
      2 C2         -0.8197    1.1413    0.4877 C.3       1 <0>        -0.1172
      3 C3         -2.1546    0.3956    0.4357 C.3       1 <0>        -0.0715
      4 C4         -1.8988   -1.0838    0.3045 C.ar      1 <0>        -0.1188
      5 C5         -1.8903   -1.6729   -0.9414 C.ar      1 <0>        -0.0211
      6 C6         -1.6528   -3.0427   -1.0620 C.ar      1 <0>        -0.0840
      7 C7         -1.4247   -3.8115    0.0806 C.ar      1 <0>        -0.0376
      8 C8         -1.4346   -3.2159    1.3229 C.ar      1 <0>        -0.2104
      9 C9         -1.6661   -1.8508    1.4389 C.ar      1 <0>         0.1654
     10 O1         -1.6700   -1.2662    2.6643 O.3       1 <0>        -0.3008
     11 C10        -1.4237   -2.1137    3.7882 C.3       1 <0>         0.0603
     12 C11        -1.4672   -1.2832    5.0724 C.3       1 <0>        -0.1184
     13 C12        -1.2034   -2.1905    6.2758 C.3       1 <0>         0.0656
     14 O2         -1.2440   -1.4148    7.4752 O.3       1 <0>        -0.3151
     15 C13        -1.0280   -2.0740    8.6439 C.ar      1 <0>         0.1139
     16 C14        -0.7763   -3.4384    8.6367 C.ar      1 <0>        -0.2081
     17 C15        -0.5575   -4.1034    9.8260 C.ar      1 <0>        -0.0704
     18 C16        -0.5886   -3.4146   11.0277 C.ar      1 <0>        -0.1077
     19 C17        -0.8393   -2.0549   11.0374 C.ar      1 <0>        -0.0610
     20 C18        -1.0529   -1.3841    9.8457 C.ar      1 <0>        -0.1400
     21 C19        -0.8204   -1.5413   12.4613 C.3       1 <0>        -0.0828
     22 C20        -0.9664   -2.7976   13.3459 C.3       1 <0>        -0.1019
     23 C21        -0.3838   -3.9069   12.4446 C.3       1 <0>        -0.0267
     24 H1          0.6785   -4.0410   12.6486 H         1 <0>         0.0889
     25 C22        -1.1377   -5.2200   12.6645 C.3       1 <0>        -0.1740
     26 C23        -0.8097   -5.7649   14.0307 C.2       1 <0>         0.4909
     27 O3          0.0345   -5.2171   14.7189 O.co2     1 <0>        -0.6953
     28 O4         -1.3886   -6.7535   14.4478 O.co2     1 <0>        -0.7081
     29 C24        -1.6435   -3.6787   -2.3975 C.2       1 <0>         0.2854
     30 N1         -1.8332   -3.0979   -3.5510 N.2       1 <0>        -0.5474
     31 C25        -1.8123   -3.8670   -4.7789 C.3       1 <0>         0.2493
     32 C26        -1.1267   -5.2279   -4.5949 C.3       1 <0>        -0.0804
     33 S1         -1.3623   -5.4022   -2.7727 S.3       1 <0>        -0.2353
     34 C27         0.3666   -5.1728   -4.8702 C.3       1 <0>        -0.1143
     35 C28         0.6716   -4.3961   -6.1468 C.3       1 <0>        -0.1530
     36 C29         0.0580   -2.9971   -6.0346 C.3       1 <0>         0.0542
     37 O5         -1.3517   -3.1288   -5.8841 O.3       1 <0>        -0.3415
     38 H2         -0.1284    3.1746    0.6579 H         1 <0>         0.0539
     39 H3         -1.6560    2.9897   -0.2368 H         1 <0>         0.0532
     40 H4         -1.6389    2.8354    1.5364 H         1 <0>         0.0558
     41 H5         -0.2602    0.9492   -0.4279 H         1 <0>         0.0599
     42 H6         -0.2431    0.7949    1.3453 H         1 <0>         0.0648
     43 H7         -2.7141    0.5877    1.3512 H         1 <0>         0.0793
     44 H8         -2.7312    0.7420   -0.4220 H         1 <0>         0.0726
     45 H9         -2.0675   -1.0753   -1.8233 H         1 <0>         0.1424
     46 H10        -1.2409   -4.8720   -0.0091 H         1 <0>         0.1336
     47 H11        -1.2584   -3.8102    2.2073 H         1 <0>         0.1388
     48 H12        -2.1872   -2.8904    3.8318 H         1 <0>         0.0703
     49 H13        -0.4413   -2.5750    3.6870 H         1 <0>         0.0701
     50 H14        -0.7037   -0.5064    5.0288 H         1 <0>         0.0867
     51 H15        -2.4495   -0.8218    5.1737 H         1 <0>         0.0869
     52 H16        -1.9669   -2.9673    6.3194 H         1 <0>         0.0645
     53 H17        -0.2211   -2.6519    6.1745 H         1 <0>         0.0642
     54 H18        -0.7520   -3.9792    7.7022 H         1 <0>         0.1233
     55 H19        -0.3615   -5.1654    9.8200 H         1 <0>         0.1224
     56 H20        -1.2440   -0.3212    9.8527 H         1 <0>         0.1240
     57 H21         0.1246   -1.0396   12.6699 H         1 <0>         0.0794
     58 H22        -1.6556   -0.8614   12.6293 H         1 <0>         0.0709
     59 H23        -0.3838   -2.6966   14.2616 H         1 <0>         0.0855
     60 H24        -2.0147   -2.9927   13.5719 H         1 <0>         0.0643
     61 H25        -2.2103   -5.0395   12.5931 H         1 <0>         0.0567
     62 H26        -0.8394   -5.9419   11.9042 H         1 <0>         0.0557
     63 H27        -2.8540   -4.1042   -4.9948 H         1 <0>         0.1186
     64 H28        -1.6237   -6.0184   -5.1572 H         1 <0>         0.1412
     65 H29         0.8658   -4.6886   -4.0309 H         1 <0>         0.0756
     66 H30         0.7477   -6.1889   -4.9718 H         1 <0>         0.0827
     67 H31         1.7509   -4.3123   -6.2740 H         1 <0>         0.0855
     68 H32         0.2407   -4.9163   -7.0023 H         1 <0>         0.0784
     69 H33         0.4722   -2.4845   -5.1665 H         1 <0>         0.0554
     70 H34         0.2777   -2.4278   -6.9378 H         1 <0>         0.1051
@<TRIPOS>BOND
     1    1    2 1
     2    1   38 1
     3    1   39 1
     4    1   40 1
     5    2    3 1
     6    2   41 1
     7    2   42 1
     8    3    4 1
     9    3   43 1
    10    3   44 1
    11    4    9 ar
    12    4    5 ar
    13    5    6 ar
    14    5   45 1
    15    6    7 ar
    16    6   29 1
    17    7    8 ar
    18    7   46 1
    19    8    9 ar
    20    8   47 1
    21    9   10 1
    22   10   11 1
    23   11   12 1
    24   11   48 1
    25   11   49 1
    26   12   13 1
    27   12   50 1
    28   12   51 1
    29   13   14 1
    30   13   52 1
    31   13   53 1
    32   14   15 1
    33   15   20 ar
    34   15   16 ar
    35   16   17 ar
    36   16   54 1
    37   17   18 ar
    38   17   55 1
    39   18   23 1
    40   18   19 ar
    41   19   20 ar
    42   19   21 1
    43   20   56 1
    44   21   22 1
    45   21   57 1
    46   21   58 1
    47   22   23 1
    48   22   59 1
    49   22   60 1
    50   23   24 1
    51   23   25 1
    52   25   26 1
    53   25   61 1
    54   25   62 1
    55   26   27 2
    56   26   28 1
    57   29   33 1
    58   29   30 2
    59   30   31 1
    60   31   37 1
    61   31   32 1
    62   31   63 1
    63   32   33 1
    64   32   34 1
    65   32   64 1
    66   34   35 1
    67   34   65 1
    68   34   66 1
    69   35   36 1
    70   35   67 1
    71   35   68 1
    72   36   37 1
    73   36   69 1
    74   36   70 1
@<TRIPOS>MOLECULE
CHEMBL221044__1
   70    74     0     0     0
SMALL
USER_CHARGES

@<TRIPOS>ATOM
      1 C1         -1.0794    2.6432    0.6209 C.3       1 <0>        -0.1523
      2 C2         -0.8197    1.1413    0.4877 C.3       1 <0>        -0.1178
      3 C3         -2.1546    0.3956    0.4357 C.3       1 <0>        -0.0715
      4 C4         -1.8988   -1.0838    0.3045 C.ar      1 <0>        -0.1190
      5 C5         -1.8903   -1.6729   -0.9414 C.ar      1 <0>        -0.0201
      6 C6         -1.6528   -3.0427   -1.0620 C.ar      1 <0>        -0.0833
      7 C7         -1.4247   -3.8115    0.0806 C.ar      1 <0>        -0.0355
      8 C8         -1.4346   -3.2159    1.3229 C.ar      1 <0>        -0.2105
      9 C9         -1.6661   -1.8508    1.4389 C.ar      1 <0>         0.1667
     10 O1         -1.6700   -1.2662    2.6643 O.3       1 <0>        -0.3005
     11 C10        -1.4237   -2.1137    3.7882 C.3       1 <0>         0.0601
     12 C11        -1.4672   -1.2832    5.0724 C.3       1 <0>        -0.1184
     13 C12        -1.2034   -2.1905    6.2758 C.3       1 <0>         0.0655
     14 O2         -1.2440   -1.4148    7.4752 O.3       1 <0>        -0.3151
     15 C13        -1.0280   -2.0740    8.6439 C.ar      1 <0>         0.1140
     16 C14        -0.7763   -3.4384    8.6367 C.ar      1 <0>        -0.2081
     17 C15        -0.5575   -4.1034    9.8260 C.ar      1 <0>        -0.0704
     18 C16        -0.5886   -3.4146   11.0277 C.ar      1 <0>        -0.1077
     19 C17        -0.8393   -2.0549   11.0374 C.ar      1 <0>        -0.0610
     20 C18        -1.0529   -1.3841    9.8457 C.ar      1 <0>        -0.1400
     21 C19        -0.8204   -1.5413   12.4613 C.3       1 <0>        -0.0829
     22 C20        -0.9664   -2.7976   13.3459 C.3       1 <0>        -0.1019
     23 C21        -0.3838   -3.9069   12.4446 C.3       1 <0>        -0.0266
     24 H1          0.6785   -4.0410   12.6486 H         1 <0>         0.0889
     25 C22        -1.1377   -5.2200   12.6645 C.3       1 <0>        -0.1740
     26 C23        -0.8097   -5.7649   14.0307 C.2       1 <0>         0.4909
     27 O3          0.0345   -5.2171   14.7189 O.co2     1 <0>        -0.6953
     28 O4         -1.3886   -6.7535   14.4478 O.co2     1 <0>        -0.7082
     29 C24        -1.6435   -3.6787   -2.3975 C.2       1 <0>         0.2839
     30 N1         -1.8353   -3.0922   -3.5648 N.2       1 <0>        -0.5247
     31 C25        -1.9067   -3.9058   -4.7547 C.3       1 <0>         0.2473
     32 C26        -1.0509   -5.1899   -4.5474 C.3       1 <0>        -0.1193
     33 S1         -1.3610   -5.4108   -2.7761 S.3       1 <0>        -0.2040
     34 C27        -1.5029   -6.2269   -5.5159 C.3       1 <0>        -0.0914
     35 C28        -1.2471   -5.6466   -6.9249 C.3       1 <0>        -0.1504
     36 C29        -1.8362   -4.2472   -7.0690 C.3       1 <0>         0.0541
     37 O5         -1.4528   -3.3669   -5.9941 O.3       1 <0>        -0.3464
     38 H2         -0.1284    3.1746    0.6579 H         1 <0>         0.0540
     39 H3         -1.6560    2.9897   -0.2368 H         1 <0>         0.0532
     40 H4         -1.6389    2.8354    1.5364 H         1 <0>         0.0556
     41 H5         -0.2602    0.9492   -0.4279 H         1 <0>         0.0606
     42 H6         -0.2431    0.7949    1.3453 H         1 <0>         0.0649
     43 H7         -2.7141    0.5877    1.3512 H         1 <0>         0.0794
     44 H8         -2.7312    0.7420   -0.4220 H         1 <0>         0.0728
     45 H9         -2.0675   -1.0753   -1.8233 H         1 <0>         0.1432
     46 H10        -1.2409   -4.8720   -0.0091 H         1 <0>         0.1348
     47 H11        -1.2584   -3.8102    2.2073 H         1 <0>         0.1395
     48 H12        -2.1872   -2.8904    3.8318 H         1 <0>         0.0705
     49 H13        -0.4413   -2.5750    3.6870 H         1 <0>         0.0704
     50 H14        -0.7037   -0.5064    5.0288 H         1 <0>         0.0868
     51 H15        -2.4495   -0.8218    5.1737 H         1 <0>         0.0868
     52 H16        -1.9669   -2.9673    6.3194 H         1 <0>         0.0645
     53 H17        -0.2211   -2.6519    6.1745 H         1 <0>         0.0643
     54 H18        -0.7520   -3.9792    7.7022 H         1 <0>         0.1234
     55 H19        -0.3615   -5.1654    9.8200 H         1 <0>         0.1224
     56 H20        -1.2440   -0.3212    9.8527 H         1 <0>         0.1240
     57 H21         0.1246   -1.0396   12.6699 H         1 <0>         0.0794
     58 H22        -1.6556   -0.8614   12.6293 H         1 <0>         0.0708
     59 H23        -0.3838   -2.6966   14.2616 H         1 <0>         0.0854
     60 H24        -2.0147   -2.9927   13.5719 H         1 <0>         0.0643
     61 H25        -2.2103   -5.0395   12.5931 H         1 <0>         0.0567
     62 H26        -0.8394   -5.9419   11.9042 H         1 <0>         0.0557
     63 H27        -2.9398   -4.2285   -4.8842 H         1 <0>         0.0881
     64 H28         0.0028   -4.9625   -4.7088 H         1 <0>         0.1122
     65 H29        -0.9282   -7.1429   -5.3786 H         1 <0>         0.0866
     66 H30        -2.5658   -6.4270   -5.3810 H         1 <0>         0.0808
     67 H31        -0.1725   -5.6005   -7.1014 H         1 <0>         0.0772
     68 H32        -1.7010   -6.3023   -7.6679 H         1 <0>         0.0906
     69 H33        -1.4978   -3.8186   -8.0123 H         1 <0>         0.1073
     70 H34        -2.9233   -4.3238   -7.0900 H         1 <0>         0.0592
@<TRIPOS>BOND
     1    1    2 1
     2    1   38 1
     3    1   39 1
     4    1   40 1
     5    2    3 1
     6    2   41 1
     7    2   42 1
     8    3    4 1
     9    3   43 1
    10    3   44 1
    11    4    9 ar
    12    4    5 ar
    13    5    6 ar
    14    5   45 1
    15    6    7 ar
    16    6   29 1
    17    7    8 ar
    18    7   46 1
    19    8    9 ar
    20    8   47 1
    21    9   10 1
    22   10   11 1
    23   11   12 1
    24   11   48 1
    25   11   49 1
    26   12   13 1
    27   12   50 1
    28   12   51 1
    29   13   14 1
    30   13   52 1
    31   13   53 1
    32   14   15 1
    33   15   20 ar
    34   15   16 ar
    35   16   17 ar
    36   16   54 1
    37   17   18 ar
    38   17   55 1
    39   18   23 1
    40   18   19 ar
    41   19   20 ar
    42   19   21 1
    43   20   56 1
    44   21   22 1
    45   21   57 1
    46   21   58 1
    47   22   23 1
    48   22   59 1
    49   22   60 1
    50   23   24 1
    51   23   25 1
    52   25   26 1
    53   25   61 1
    54   25   62 1
    55   26   27 2
    56   26   28 1
    57   29   33 1
    58   29   30 2
    59   30   31 1
    60   31   37 1
    61   31   32 1
    62   31   63 1
    63   32   33 1
    64   32   34 1
    65   32   64 1
    66   34   35 1
    67   34   65 1
    68   34   66 1
    69   35   36 1
    70   35   67 1
    71   35   68 1
    72   36   37 1
    73   36   69 1
    74   36   70 1
@<TRIPOS>MOLECULE
CHEMBL221044__2
   70    74     0     0     0
SMALL
USER_CHARGES

@<TRIPOS>ATOM
      1 C1         -1.0794    2.6432    0.6209 C.3       1 <0>        -0.1524
      2 C2         -0.8197    1.1413    0.4877 C.3       1 <0>        -0.1175
      3 C3         -2.1546    0.3956    0.4357 C.3       1 <0>        -0.0717
      4 C4         -1.8988   -1.0838    0.3045 C.ar      1 <0>        -0.1190
      5 C5         -1.8903   -1.6729   -0.9414 C.ar      1 <0>        -0.0201
      6 C6         -1.6528   -3.0427   -1.0620 C.ar      1 <0>        -0.0834
      7 C7         -1.4247   -3.8115    0.0806 C.ar      1 <0>        -0.0356
      8 C8         -1.4346   -3.2159    1.3229 C.ar      1 <0>        -0.2105
      9 C9         -1.6661   -1.8508    1.4389 C.ar      1 <0>         0.1667
     10 O1         -1.6700   -1.2662    2.6643 O.3       1 <0>        -0.3005
     11 C10        -1.4237   -2.1137    3.7882 C.3       1 <0>         0.0601
     12 C11        -1.4672   -1.2832    5.0724 C.3       1 <0>        -0.1184
     13 C12        -1.2034   -2.1905    6.2758 C.3       1 <0>         0.0655
     14 O2         -1.2440   -1.4148    7.4752 O.3       1 <0>        -0.3151
     15 C13        -1.0280   -2.0740    8.6439 C.ar      1 <0>         0.1140
     16 C14        -0.7763   -3.4384    8.6367 C.ar      1 <0>        -0.2081
     17 C15        -0.5575   -4.1034    9.8260 C.ar      1 <0>        -0.0704
     18 C16        -0.5886   -3.4146   11.0277 C.ar      1 <0>        -0.1077
     19 C17        -0.8393   -2.0549   11.0374 C.ar      1 <0>        -0.0610
     20 C18        -1.0529   -1.3841    9.8457 C.ar      1 <0>        -0.1400
     21 C19        -0.8204   -1.5413   12.4613 C.3       1 <0>        -0.0829
     22 C20        -0.9664   -2.7976   13.3459 C.3       1 <0>        -0.1019
     23 C21        -0.3838   -3.9069   12.4446 C.3       1 <0>        -0.0266
     24 H1          0.6785   -4.0410   12.6486 H         1 <0>         0.0889
     25 C22        -1.1377   -5.2200   12.6645 C.3       1 <0>        -0.1741
     26 C23        -0.8097   -5.7649   14.0307 C.2       1 <0>         0.4909
     27 O3          0.0345   -5.2171   14.7189 O.co2     1 <0>        -0.6953
     28 O4         -1.3886   -6.7535   14.4478 O.co2     1 <0>        -0.7081
     29 C24        -1.6435   -3.6787   -2.3975 C.2       1 <0>         0.2839
     30 N1         -1.8353   -3.0922   -3.5648 N.2       1 <0>        -0.5242
     31 C25        -1.6681   -3.8639   -4.7729 C.3       1 <0>         0.2470
     32 C26        -1.9980   -5.3561   -4.4753 C.3       1 <0>        -0.1172
     33 S1         -1.3610   -5.4108   -2.7761 S.3       1 <0>        -0.2063
     34 C27        -1.3690   -6.2034   -5.5261 C.3       1 <0>        -0.0918
     35 C28        -2.0102   -5.7806   -6.8668 C.3       1 <0>        -0.1505
     36 C29        -1.9578   -4.2686   -7.0597 C.3       1 <0>         0.0540
     37 O5         -2.4545   -3.5427   -5.9179 O.3       1 <0>        -0.3465
     38 H2         -0.1284    3.1746    0.6579 H         1 <0>         0.0539
     39 H3         -1.6560    2.9897   -0.2368 H         1 <0>         0.0532
     40 H4         -1.6389    2.8354    1.5364 H         1 <0>         0.0556
     41 H5         -0.2602    0.9492   -0.4279 H         1 <0>         0.0604
     42 H6         -0.2431    0.7949    1.3453 H         1 <0>         0.0649
     43 H7         -2.7141    0.5877    1.3512 H         1 <0>         0.0794
     44 H8         -2.7312    0.7420   -0.4220 H         1 <0>         0.0729
     45 H9         -2.0675   -1.0753   -1.8233 H         1 <0>         0.1432
     46 H10        -1.2409   -4.8720   -0.0091 H         1 <0>         0.1348
     47 H11        -1.2584   -3.8102    2.2073 H         1 <0>         0.1395
     48 H12        -2.1872   -2.8904    3.8318 H         1 <0>         0.0705
     49 H13        -0.4413   -2.5750    3.6870 H         1 <0>         0.0703
     50 H14        -0.7037   -0.5064    5.0288 H         1 <0>         0.0867
     51 H15        -2.4495   -0.8218    5.1737 H         1 <0>         0.0869
     52 H16        -1.9669   -2.9673    6.3194 H         1 <0>         0.0645
     53 H17        -0.2211   -2.6519    6.1745 H         1 <0>         0.0642
     54 H18        -0.7520   -3.9792    7.7022 H         1 <0>         0.1234
     55 H19        -0.3615   -5.1654    9.8200 H         1 <0>         0.1224
     56 H20        -1.2440   -0.3212    9.8527 H         1 <0>         0.1240
     57 H21         0.1246   -1.0396   12.6699 H         1 <0>         0.0794
     58 H22        -1.6556   -0.8614   12.6293 H         1 <0>         0.0708
     59 H23        -0.3838   -2.6966   14.2616 H         1 <0>         0.0854
     60 H24        -2.0147   -2.9927   13.5719 H         1 <0>         0.0643
     61 H25        -2.2103   -5.0395   12.5931 H         1 <0>         0.0567
     62 H26        -0.8394   -5.9419   11.9042 H         1 <0>         0.0557
     63 H27        -0.6177   -3.8209   -5.0609 H         1 <0>         0.0882
     64 H28        -3.0781   -5.5033   -4.4743 H         1 <0>         0.1127
     65 H29        -0.2936   -6.0281   -5.5539 H         1 <0>         0.0808
     66 H30        -1.5727   -7.2560   -5.3295 H         1 <0>         0.0867
     67 H31        -1.4754   -6.2627   -7.6851 H         1 <0>         0.0906
     68 H32        -3.0505   -6.1057   -6.8823 H         1 <0>         0.0773
     69 H33        -0.9247   -3.9729   -7.2421 H         1 <0>         0.0592
     70 H34        -2.5561   -4.0044   -7.9318 H         1 <0>         0.1073
@<TRIPOS>BOND
     1    1    2 1
     2    1   38 1
     3    1   39 1
     4    1   40 1
     5    2    3 1
     6    2   41 1
     7    2   42 1
     8    3    4 1
     9    3   43 1
    10    3   44 1
    11    4    9 ar
    12    4    5 ar
    13    5    6 ar
    14    5   45 1
    15    6    7 ar
    16    6   29 1
    17    7    8 ar
    18    7   46 1
    19    8    9 ar
    20    8   47 1
    21    9   10 1
    22   10   11 1
    23   11   12 1
    24   11   48 1
    25   11   49 1
    26   12   13 1
    27   12   50 1
    28   12   51 1
    29   13   14 1
    30   13   52 1
    31   13   53 1
    32   14   15 1
    33   15   20 ar
    34   15   16 ar
    35   16   17 ar
    36   16   54 1
    37   17   18 ar
    38   17   55 1
    39   18   23 1
    40   18   19 ar
    41   19   20 ar
    42   19   21 1
    43   20   56 1
    44   21   22 1
    45   21   57 1
    46   21   58 1
    47   22   23 1
    48   22   59 1
    49   22   60 1
    50   23   24 1
    51   23   25 1
    52   25   26 1
    53   25   61 1
    54   25   62 1
    55   26   27 2
    56   26   28 1
    57   29   33 1
    58   29   30 2
    59   30   31 1
    60   31   37 1
    61   31   32 1
    62   31   63 1
    63   32   33 1
    64   32   34 1
    65   32   64 1
    66   34   35 1
    67   34   65 1
    68   34   66 1
    69   35   36 1
    70   35   67 1
    71   35   68 1
    72   36   37 1
    73   36   69 1
    74   36   70 1
@<TRIPOS>MOLECULE
CHEMBL221044__3
   70    74     0     0     0
SMALL
USER_CHARGES

@<TRIPOS>ATOM
      1 C1         -1.0794    2.6432    0.6209 C.3       1 <0>        -0.1523
      2 C2         -0.8197    1.1413    0.4877 C.3       1 <0>        -0.1175
      3 C3         -2.1546    0.3956    0.4357 C.3       1 <0>        -0.0713
      4 C4         -1.8988   -1.0838    0.3045 C.ar      1 <0>        -0.1189
      5 C5         -1.8903   -1.6729   -0.9414 C.ar      1 <0>        -0.0211
      6 C6         -1.6528   -3.0427   -1.0620 C.ar      1 <0>        -0.0844
      7 C7         -1.4247   -3.8115    0.0806 C.ar      1 <0>        -0.0373
      8 C8         -1.4346   -3.2159    1.3229 C.ar      1 <0>        -0.2105
      9 C9         -1.6661   -1.8508    1.4389 C.ar      1 <0>         0.1656
     10 O1         -1.6700   -1.2662    2.6643 O.3       1 <0>        -0.3007
     11 C10        -1.4237   -2.1137    3.7882 C.3       1 <0>         0.0603
     12 C11        -1.4672   -1.2832    5.0724 C.3       1 <0>        -0.1184
     13 C12        -1.2034   -2.1905    6.2758 C.3       1 <0>         0.0656
     14 O2         -1.2440   -1.4148    7.4752 O.3       1 <0>        -0.3151
     15 C13        -1.0280   -2.0740    8.6439 C.ar      1 <0>         0.1139
     16 C14        -0.7763   -3.4384    8.6367 C.ar      1 <0>        -0.2081
     17 C15        -0.5575   -4.1034    9.8260 C.ar      1 <0>        -0.0704
     18 C16        -0.5886   -3.4146   11.0277 C.ar      1 <0>        -0.1077
     19 C17        -0.8393   -2.0549   11.0374 C.ar      1 <0>        -0.0610
     20 C18        -1.0529   -1.3841    9.8457 C.ar      1 <0>        -0.1400
     21 C19        -0.8204   -1.5413   12.4613 C.3       1 <0>        -0.0828
     22 C20        -0.9664   -2.7976   13.3459 C.3       1 <0>        -0.1019
     23 C21        -0.3838   -3.9069   12.4446 C.3       1 <0>        -0.0268
     24 H1          0.6785   -4.0410   12.6486 H         1 <0>         0.0890
     25 C22        -1.1377   -5.2200   12.6645 C.3       1 <0>        -0.1740
     26 C23        -0.8097   -5.7649   14.0307 C.2       1 <0>         0.4908
     27 O3          0.0345   -5.2171   14.7189 O.co2     1 <0>        -0.6952
     28 O4         -1.3886   -6.7535   14.4478 O.co2     1 <0>        -0.7081
     29 C24        -1.6435   -3.6787   -2.3975 C.2       1 <0>         0.2860
     30 N1         -1.8334   -3.0973   -3.5521 N.2       1 <0>        -0.5468
     31 C25        -1.7630   -3.8610   -4.7784 C.3       1 <0>         0.2447
     32 C26        -1.9330   -5.3691   -4.5325 C.3       1 <0>        -0.0752
     33 S1         -1.3623   -5.4024   -2.7727 S.3       1 <0>        -0.2376
     34 C27        -3.3784   -5.8187   -4.5690 C.3       1 <0>        -0.1153
     35 C28        -4.2156   -5.1340   -5.6304 C.3       1 <0>        -0.1500
     36 C29        -3.9933   -3.6236   -5.6118 C.3       1 <0>         0.0517
     37 O5         -2.6000   -3.3688   -5.8025 O.3       1 <0>        -0.3379
     38 H2         -0.1284    3.1746    0.6579 H         1 <0>         0.0541
     39 H3         -1.6560    2.9897   -0.2368 H         1 <0>         0.0531
     40 H4         -1.6389    2.8354    1.5364 H         1 <0>         0.0556
     41 H5         -0.2602    0.9492   -0.4279 H         1 <0>         0.0604
     42 H6         -0.2431    0.7949    1.3453 H         1 <0>         0.0649
     43 H7         -2.7141    0.5877    1.3512 H         1 <0>         0.0791
     44 H8         -2.7312    0.7420   -0.4220 H         1 <0>         0.0723
     45 H9         -2.0675   -1.0753   -1.8233 H         1 <0>         0.1424
     46 H10        -1.2409   -4.8720   -0.0091 H         1 <0>         0.1337
     47 H11        -1.2584   -3.8102    2.2073 H         1 <0>         0.1389
     48 H12        -2.1872   -2.8904    3.8318 H         1 <0>         0.0703
     49 H13        -0.4413   -2.5750    3.6870 H         1 <0>         0.0702
     50 H14        -0.7037   -0.5064    5.0288 H         1 <0>         0.0868
     51 H15        -2.4495   -0.8218    5.1737 H         1 <0>         0.0868
     52 H16        -1.9669   -2.9673    6.3194 H         1 <0>         0.0644
     53 H17        -0.2211   -2.6519    6.1745 H         1 <0>         0.0642
     54 H18        -0.7520   -3.9792    7.7022 H         1 <0>         0.1233
     55 H19        -0.3615   -5.1654    9.8200 H         1 <0>         0.1224
     56 H20        -1.2440   -0.3212    9.8527 H         1 <0>         0.1240
     57 H21         0.1246   -1.0396   12.6699 H         1 <0>         0.0794
     58 H22        -1.6556   -0.8614   12.6293 H         1 <0>         0.0708
     59 H23        -0.3838   -2.6966   14.2616 H         1 <0>         0.0855
     60 H24        -2.0147   -2.9927   13.5719 H         1 <0>         0.0643
     61 H25        -2.2103   -5.0395   12.5931 H         1 <0>         0.0566
     62 H26        -0.8394   -5.9419   11.9042 H         1 <0>         0.0557
     63 H27        -0.7427   -3.7455   -5.1441 H         1 <0>         0.1197
     64 H28        -1.2957   -5.9667   -5.1843 H         1 <0>         0.1410
     65 H29        -3.4024   -6.8935   -4.7487 H         1 <0>         0.0809
     66 H30        -3.8267   -5.6237   -3.5948 H         1 <0>         0.0754
     67 H31        -3.9408   -5.5243   -6.6102 H         1 <0>         0.0759
     68 H32        -5.2692   -5.3431   -5.4453 H         1 <0>         0.0838
     69 H33        -4.5640   -3.1594   -6.4161 H         1 <0>         0.1043
     70 H34        -4.3117   -3.2182   -4.6514 H         1 <0>         0.0581
@<TRIPOS>BOND
     1    1    2 1
     2    1   38 1
     3    1   39 1
     4    1   40 1
     5    2    3 1
     6    2   41 1
     7    2   42 1
     8    3    4 1
     9    3   43 1
    10    3   44 1
    11    4    9 ar
    12    4    5 ar
    13    5    6 ar
    14    5   45 1
    15    6    7 ar
    16    6   29 1
    17    7    8 ar
    18    7   46 1
    19    8    9 ar
    20    8   47 1
    21    9   10 1
    22   10   11 1
    23   11   12 1
    24   11   48 1
    25   11   49 1
    26   12   13 1
    27   12   50 1
    28   12   51 1
    29   13   14 1
    30   13   52 1
    31   13   53 1
    32   14   15 1
    33   15   20 ar
    34   15   16 ar
    35   16   17 ar
    36   16   54 1
    37   17   18 ar
    38   17   55 1
    39   18   23 1
    40   18   19 ar
    41   19   20 ar
    42   19   21 1
    43   20   56 1
    44   21   22 1
    45   21   57 1
    46   21   58 1
    47   22   23 1
    48   22   59 1
    49   22   60 1
    50   23   24 1
    51   23   25 1
    52   25   26 1
    53   25   61 1
    54   25   62 1
    55   26   27 2
    56   26   28 1
    57   29   33 1
    58   29   30 2
    59   30   31 1
    60   31   37 1
    61   31   32 1
    62   31   63 1
    63   32   33 1
    64   32   34 1
    65   32   64 1
    66   34   35 1
    67   34   65 1
    68   34   66 1
    69   35   36 1
    70   35   67 1
    71   35   68 1
    72   36   37 1
    73   36   69 1
    74   36   70 1
@<TRIPOS>MOLECULE
CHEMBL425431
   53    54     0     0     0
SMALL
USER_CHARGES

@<TRIPOS>ATOM
      1 C1         -0.0187    1.5258    0.0104 C.3       1 <0>        -0.1522
      2 C2          0.0021   -0.0041    0.0020 C.3       1 <0>        -0.1181
      3 C3         -1.4333   -0.5336    0.0129 C.3       1 <0>        -0.0750
      4 C4         -1.4129   -2.0405    0.0046 C.ar      1 <0>        -0.0698
      5 C5         -1.5125   -2.7452   -1.1845 C.ar      1 <0>        -0.0825
      6 C6         -1.4897   -4.1268   -1.1539 C.ar      1 <0>        -0.0033
      7 N1         -1.3754   -4.7770   -0.0123 N.ar      1 <0>        -0.4084
      8 C7         -1.2782   -4.1445    1.1401 C.ar      1 <0>         0.0271
      9 C8         -1.2877   -2.7579    1.1897 C.ar      1 <0>         0.1175
     10 O1         -1.1814   -2.1100    2.3797 O.3       1 <0>        -0.2927
     11 C9         -1.0563   -2.9198    3.5504 C.3       1 <0>         0.0550
     12 C10        -0.9493   -2.0205    4.7836 C.3       1 <0>        -0.1171
     13 C11        -0.8154   -2.8876    6.0370 C.3       1 <0>         0.0651
     14 O2         -0.7155   -2.0477    7.1888 O.3       1 <0>        -0.3154
     15 C12        -0.5898   -2.6649    8.3939 C.ar      1 <0>         0.0749
     16 C13        -0.5578   -4.0500    8.4638 C.ar      1 <0>        -0.1703
     17 C14        -0.4306   -4.6769    9.6879 C.ar      1 <0>        -0.1766
     18 C15        -0.3345   -3.9215   10.8474 C.ar      1 <0>         0.1088
     19 C16        -0.3660   -2.5368   10.7774 C.ar      1 <0>        -0.0857
     20 C17        -0.4880   -1.9097    9.5525 C.ar      1 <0>        -0.1116
     21 C18        -0.2616   -1.7162   12.0371 C.3       1 <0>        -0.1054
     22 O3         -0.2097   -4.5387   12.0526 O.3       1 <0>        -0.2777
     23 C19        -0.1846   -5.9675   12.0502 C.3       1 <0>        -0.0068
     24 C20        -0.0422   -6.4698   13.4639 C.2       1 <0>         0.5012
     25 O4          0.0310   -5.6776   14.3878 O.co2     1 <0>        -0.6703
     26 O5         -0.0002   -7.6683   13.6837 O.co2     1 <0>        -0.6882
     27 C21        -1.5975   -4.9007   -2.4425 C.3       1 <0>         0.5277
     28 F1         -0.3176   -5.1212   -2.9625 F         1 <0>        -0.1715
     29 F2         -2.2196   -6.1296   -2.1978 F         1 <0>        -0.1642
     30 F3         -2.3555   -4.1696   -3.3636 F         1 <0>        -0.1726
     31 H1          1.0039    1.9031    0.0027 H         1 <0>         0.0569
     32 H2         -0.5459    1.8868   -0.8726 H         1 <0>         0.0549
     33 H3         -0.5289    1.8773    0.9072 H         1 <0>         0.0573
     34 H4          0.5123   -0.3556   -0.8948 H         1 <0>         0.0625
     35 H5          0.5293   -0.3651    0.8851 H         1 <0>         0.0669
     36 H6         -1.9435   -0.1821    0.9097 H         1 <0>         0.0867
     37 H7         -1.9605   -0.1726   -0.8702 H         1 <0>         0.0803
     38 H8         -1.6071   -2.2210   -2.1239 H         1 <0>         0.1548
     39 H9         -1.1860   -4.7113    2.0547 H         1 <0>         0.1729
     40 H10        -1.9325   -3.5615    3.6436 H         1 <0>         0.0742
     41 H11        -0.1610   -3.5365    3.4717 H         1 <0>         0.0742
     42 H12        -0.0731   -1.3789    4.6904 H         1 <0>         0.0879
     43 H13        -1.8446   -1.4038    4.8623 H         1 <0>         0.0879
     44 H14        -1.6916   -3.5293    6.1302 H         1 <0>         0.0638
     45 H15         0.0799   -3.5043    5.9583 H         1 <0>         0.0637
     46 H16        -0.6326   -4.6381    7.5611 H         1 <0>         0.1235
     47 H17        -0.4064   -5.7552    9.7424 H         1 <0>         0.1312
     48 H18        -0.5085   -0.8312    9.4977 H         1 <0>         0.1325
     49 H19         0.7865   -1.4999   12.2439 H         1 <0>         0.0693
     50 H20        -0.8069   -0.7813   11.9079 H         1 <0>         0.0613
     51 H21        -0.6888   -2.2738   12.8705 H         1 <0>         0.0806
     52 H22        -1.1125   -6.3465   11.6217 H         1 <0>         0.0576
     53 H23         0.6593   -6.3151   11.4544 H         1 <0>         0.0577
@<TRIPOS>BOND
     1    1    2 1
     2    1   31 1
     3    1   32 1
     4    1   33 1
     5    2    3 1
     6    2   34 1
     7    2   35 1
     8    3    4 1
     9    3   36 1
    10    3   37 1
    11    4    9 ar
    12    4    5 ar
    13    5    6 ar
    14    5   38 1
    15    6    7 ar
    16    6   27 1
    17    7    8 ar
    18    8    9 ar
    19    8   39 1
    20    9   10 1
    21   10   11 1
    22   11   12 1
    23   11   40 1
    24   11   41 1
    25   12   13 1
    26   12   42 1
    27   12   43 1
    28   13   14 1
    29   13   44 1
    30   13   45 1
    31   14   15 1
    32   15   20 ar
    33   15   16 ar
    34   16   17 ar
    35   16   46 1
    36   17   18 ar
    37   17   47 1
    38   18   19 ar
    39   18   22 1
    40   19   20 ar
    41   19   21 1
    42   20   48 1
    43   21   49 1
    44   21   50 1
    45   21   51 1
    46   22   23 1
    47   23   24 1
    48   23   52 1
    49   23   53 1
    50   24   25 2
    51   24   26 1
    52   27   28 1
    53   27   29 1
    54   27   30 1
@<TRIPOS>MOLECULE
CHEMBL118169
   64    67     0     0     0
SMALL
USER_CHARGES

@<TRIPOS>ATOM
      1 C1         -0.7800    1.6839   -0.0326 C.3       1 <0>        -0.1525
      2 C2         -0.5211    0.1766   -0.0761 C.3       1 <0>        -0.1161
      3 C3         -1.8465   -0.5730    0.0739 C.3       1 <0>        -0.0726
      4 C4         -1.5915   -2.0577    0.0311 C.ar      1 <0>        -0.0694
      5 C5         -1.7108   -2.7449   -1.1614 C.ar      1 <0>        -0.1138
      6 C6         -1.4757   -4.1110   -1.2009 C.ar      1 <0>         0.1019
      7 C7         -1.1208   -4.7875   -0.0430 C.ar      1 <0>        -0.1747
      8 C8         -1.0016   -4.1005    1.1491 C.ar      1 <0>        -0.1657
      9 C9         -1.2316   -2.7330    1.1876 C.ar      1 <0>         0.0947
     10 O1         -1.1087   -2.0556    2.3602 O.3       1 <0>        -0.3065
     11 C10        -0.7349   -2.8146    3.5118 C.3       1 <0>         0.0646
     12 C11        -0.6475   -1.8886    4.7266 C.3       1 <0>        -0.1195
     13 C12        -0.2473   -2.7012    5.9596 C.3       1 <0>         0.0635
     14 O2         -0.1656   -1.8363    7.0942 O.3       1 <0>        -0.3079
     15 C13         0.1811   -2.4042    8.2792 C.ar      1 <0>         0.1361
     16 C14         0.4431   -3.7651    8.3474 C.ar      1 <0>        -0.1914
     17 C15         0.7958   -4.3397    9.5529 C.ar      1 <0>        -0.0708
     18 C16         0.8879   -3.5600   10.6912 C.ar      1 <0>        -0.1323
     19 C17         0.6269   -2.2040   10.6260 C.ar      1 <0>        -0.0408
     20 C18         0.2793   -1.6233    9.4215 C.ar      1 <0>        -0.1186
     21 C19         0.7277   -1.3573   11.8686 C.3       1 <0>        -0.0337
     22 C20         2.0647   -1.5574   12.5683 C.2       1 <0>         0.5342
     23 O3          3.1202   -1.2783   12.0411 O.2       1 <0>        -0.4481
     24 N1          1.9955   -2.0571   13.7907 N.am      1 <0>        -0.6896
     25 C21         0.8372   -2.3754   14.3977 C.2       1 <0>         0.5629
     26 O4          0.6761   -2.8363   15.5111 O.2       1 <0>        -0.4137
     27 S1         -0.4087   -1.9618   13.1854 S.3       1 <0>        -0.1363
     28 O5         -1.5935   -4.7876   -2.3746 O.3       1 <0>        -0.3078
     29 C22        -1.4566   -6.2090   -2.3207 C.3       1 <0>         0.0802
     30 C23         0.0304   -6.6016   -2.4420 C.3       1 <0>        -0.1486
     31 C24         0.0131   -7.8974   -3.2903 C.3       1 <0>        -0.1244
     32 C25        -1.1080   -7.6160   -4.3213 C.3       1 <0>        -0.1240
     33 C26        -2.1804   -6.8540   -3.5156 C.3       1 <0>        -0.1222
     34 H1          0.1642    2.2179   -0.1394 H         1 <0>         0.0543
     35 H2         -1.4486    1.9614   -0.8475 H         1 <0>         0.0539
     36 H3         -1.2400    1.9462    0.9201 H         1 <0>         0.0550
     37 H4         -0.0611   -0.0857   -1.0288 H         1 <0>         0.0606
     38 H5          0.1475   -0.1009    0.7389 H         1 <0>         0.0641
     39 H6         -2.3065   -0.3107    1.0266 H         1 <0>         0.0786
     40 H7         -2.5150   -0.2955   -0.7410 H         1 <0>         0.0723
     41 H8         -1.9874   -2.2183   -2.0628 H         1 <0>         0.1370
     42 H9         -0.9381   -5.8515   -0.0737 H         1 <0>         0.1304
     43 H10        -0.7260   -4.6273    2.0507 H         1 <0>         0.1289
     44 H11        -1.4821   -3.5865    3.6964 H         1 <0>         0.0643
     45 H12         0.2350   -3.2814    3.3402 H         1 <0>         0.0644
     46 H13         0.0996   -1.1167    4.5420 H         1 <0>         0.0882
     47 H14        -1.6174   -1.4218    4.8982 H         1 <0>         0.0882
     48 H15        -0.9944   -3.4731    6.1442 H         1 <0>         0.0683
     49 H16         0.7226   -3.1680    5.7880 H         1 <0>         0.0681
     50 H17         0.3710   -4.3745    7.4587 H         1 <0>         0.1336
     51 H18         0.9994   -5.3990    9.6065 H         1 <0>         0.1336
     52 H19         1.1638   -4.0112   11.6329 H         1 <0>         0.1208
     53 H20         0.0799   -0.5631    9.3701 H         1 <0>         0.1407
     54 H21         0.5503   -0.3056   11.6437 H         1 <0>         0.1697
     55 H22         2.8232   -2.2022   14.2753 H         1 <0>         0.4203
     56 H23        -1.8685   -6.5883   -1.3855 H         1 <0>         0.0751
     57 H24         0.5912   -5.8187   -2.9526 H         1 <0>         0.0804
     58 H25         0.4552   -6.7960   -1.4572 H         1 <0>         0.0699
     59 H26         0.9702   -8.0442   -3.7909 H         1 <0>         0.0722
     60 H27        -0.2374   -8.7600   -2.6729 H         1 <0>         0.0699
     61 H28        -0.7311   -6.9970   -5.1354 H         1 <0>         0.0704
     62 H29        -1.5140   -8.5508   -4.7080 H         1 <0>         0.0711
     63 H30        -2.9431   -7.5470   -3.1603 H         1 <0>         0.0773
     64 H31        -2.6361   -6.0828   -4.1366 H         1 <0>         0.0818
@<TRIPOS>BOND
     1    1    2 1
     2    1   34 1
     3    1   35 1
     4    1   36 1
     5    2    3 1
     6    2   37 1
     7    2   38 1
     8    3    4 1
     9    3   39 1
    10    3   40 1
    11    4    9 ar
    12    4    5 ar
    13    5    6 ar
    14    5   41 1
    15    6    7 ar
    16    6   28 1
    17    7    8 ar
    18    7   42 1
    19    8    9 ar
    20    8   43 1
    21    9   10 1
    22   10   11 1
    23   11   12 1
    24   11   44 1
    25   11   45 1
    26   12   13 1
    27   12   46 1
    28   12   47 1
    29   13   14 1
    30   13   48 1
    31   13   49 1
    32   14   15 1
    33   15   20 ar
    34   15   16 ar
    35   16   17 ar
    36   16   50 1
    37   17   18 ar
    38   17   51 1
    39   18   19 ar
    40   18   52 1
    41   19   20 ar
    42   19   21 1
    43   20   53 1
    44   21   27 1
    45   21   22 1
    46   21   54 1
    47   22   23 2
    48   22   24 am
    49   24   25 am
    50   24   55 1
    51   25   26 2
    52   25   27 1
    53   28   29 1
    54   29   33 1
    55   29   30 1
    56   29   56 1
    57   30   31 1
    58   30   57 1
    59   30   58 1
    60   31   32 1
    61   31   59 1
    62   31   60 1
    63   32   33 1
    64   32   61 1
    65   32   62 1
    66   33   63 1
    67   33   64 1
@<TRIPOS>MOLECULE
CHEMBL118169__1
   64    67     0     0     0
SMALL
USER_CHARGES

@<TRIPOS>ATOM
      1 C1         -0.7800    1.6839   -0.0326 C.3       1 <0>        -0.1525
      2 C2         -0.5211    0.1766   -0.0761 C.3       1 <0>        -0.1160
      3 C3         -1.8465   -0.5730    0.0739 C.3       1 <0>        -0.0727
      4 C4         -1.5915   -2.0577    0.0311 C.ar      1 <0>        -0.0694
      5 C5         -1.7108   -2.7449   -1.1614 C.ar      1 <0>        -0.1138
      6 C6         -1.4757   -4.1110   -1.2009 C.ar      1 <0>         0.1019
      7 C7         -1.1208   -4.7875   -0.0430 C.ar      1 <0>        -0.1747
      8 C8         -1.0016   -4.1005    1.1491 C.ar      1 <0>        -0.1657
      9 C9         -1.2316   -2.7330    1.1876 C.ar      1 <0>         0.0947
     10 O1         -1.1087   -2.0556    2.3602 O.3       1 <0>        -0.3065
     11 C10        -0.7349   -2.8146    3.5118 C.3       1 <0>         0.0646
     12 C11        -0.6475   -1.8886    4.7266 C.3       1 <0>        -0.1195
     13 C12        -0.2473   -2.7012    5.9596 C.3       1 <0>         0.0635
     14 O2         -0.1656   -1.8363    7.0942 O.3       1 <0>        -0.3079
     15 C13         0.1811   -2.4042    8.2792 C.ar      1 <0>         0.1361
     16 C14         0.4431   -3.7651    8.3474 C.ar      1 <0>        -0.1915
     17 C15         0.7958   -4.3397    9.5529 C.ar      1 <0>        -0.0708
     18 C16         0.8879   -3.5600   10.6912 C.ar      1 <0>        -0.1323
     19 C17         0.6269   -2.2040   10.6260 C.ar      1 <0>        -0.0408
     20 C18         0.2793   -1.6233    9.4215 C.ar      1 <0>        -0.1187
     21 C19         0.7277   -1.3573   11.8686 C.3       1 <0>        -0.0336
     22 C20        -0.0861   -1.9501   13.0104 C.2       1 <0>         0.5343
     23 O3         -1.2895   -2.0834   12.9474 O.2       1 <0>        -0.4481
     24 N1          0.6102   -2.3100   14.0754 N.am      1 <0>        -0.6896
     25 C21         1.9458   -2.1730   14.1699 C.2       1 <0>         0.5629
     26 O4          2.6663   -2.4735   15.1018 O.2       1 <0>        -0.4136
     27 S1          2.4128   -1.4467   12.6055 S.3       1 <0>        -0.1365
     28 O5         -1.5935   -4.7876   -2.3746 O.3       1 <0>        -0.3078
     29 C22        -1.4566   -6.2090   -2.3207 C.3       1 <0>         0.0801
     30 C23         0.0304   -6.6016   -2.4420 C.3       1 <0>        -0.1485
     31 C24         0.0131   -7.8974   -3.2903 C.3       1 <0>        -0.1244
     32 C25        -1.1080   -7.6160   -4.3213 C.3       1 <0>        -0.1240
     33 C26        -2.1804   -6.8540   -3.5156 C.3       1 <0>        -0.1223
     34 H1          0.1642    2.2179   -0.1394 H         1 <0>         0.0544
     35 H2         -1.4486    1.9614   -0.8475 H         1 <0>         0.0538
     36 H3         -1.2400    1.9462    0.9201 H         1 <0>         0.0550
     37 H4         -0.0611   -0.0857   -1.0288 H         1 <0>         0.0606
     38 H5          0.1475   -0.1009    0.7389 H         1 <0>         0.0641
     39 H6         -2.3065   -0.3107    1.0266 H         1 <0>         0.0786
     40 H7         -2.5150   -0.2955   -0.7410 H         1 <0>         0.0723
     41 H8         -1.9874   -2.2183   -2.0628 H         1 <0>         0.1370
     42 H9         -0.9381   -5.8515   -0.0737 H         1 <0>         0.1304
     43 H10        -0.7260   -4.6273    2.0507 H         1 <0>         0.1289
     44 H11        -1.4821   -3.5865    3.6964 H         1 <0>         0.0642
     45 H12         0.2350   -3.2814    3.3402 H         1 <0>         0.0644
     46 H13         0.0996   -1.1167    4.5420 H         1 <0>         0.0882
     47 H14        -1.6174   -1.4218    4.8982 H         1 <0>         0.0881
     48 H15        -0.9944   -3.4731    6.1442 H         1 <0>         0.0681
     49 H16         0.7226   -3.1680    5.7880 H         1 <0>         0.0683
     50 H17         0.3710   -4.3745    7.4587 H         1 <0>         0.1336
     51 H18         0.9994   -5.3990    9.6065 H         1 <0>         0.1336
     52 H19         1.1638   -4.0112   11.6329 H         1 <0>         0.1208
     53 H20         0.0799   -0.5631    9.3701 H         1 <0>         0.1407
     54 H21         0.4372   -0.3263   11.6670 H         1 <0>         0.1697
     55 H22         0.1332   -2.6927   14.8284 H         1 <0>         0.4203
     56 H23        -1.8685   -6.5883   -1.3855 H         1 <0>         0.0751
     57 H24         0.5912   -5.8187   -2.9526 H         1 <0>         0.0804
     58 H25         0.4552   -6.7960   -1.4572 H         1 <0>         0.0699
     59 H26         0.9702   -8.0442   -3.7909 H         1 <0>         0.0722
     60 H27        -0.2374   -8.7600   -2.6729 H         1 <0>         0.0698
     61 H28        -0.7311   -6.9970   -5.1354 H         1 <0>         0.0704
     62 H29        -1.5140   -8.5508   -4.7080 H         1 <0>         0.0711
     63 H30        -2.9431   -7.5470   -3.1603 H         1 <0>         0.0773
     64 H31        -2.6361   -6.0828   -4.1366 H         1 <0>         0.0818
@<TRIPOS>BOND
     1    1    2 1
     2    1   34 1
     3    1   35 1
     4    1   36 1
     5    2    3 1
     6    2   37 1
     7    2   38 1
     8    3    4 1
     9    3   39 1
    10    3   40 1
    11    4    9 ar
    12    4    5 ar
    13    5    6 ar
    14    5   41 1
    15    6    7 ar
    16    6   28 1
    17    7    8 ar
    18    7   42 1
    19    8    9 ar
    20    8   43 1
    21    9   10 1
    22   10   11 1
    23   11   12 1
    24   11   44 1
    25   11   45 1
    26   12   13 1
    27   12   46 1
    28   12   47 1
    29   13   14 1
    30   13   48 1
    31   13   49 1
    32   14   15 1
    33   15   20 ar
    34   15   16 ar
    35   16   17 ar
    36   16   50 1
    37   17   18 ar
    38   17   51 1
    39   18   19 ar
    40   18   52 1
    41   19   20 ar
    42   19   21 1
    43   20   53 1
    44   21   27 1
    45   21   22 1
    46   21   54 1
    47   22   23 2
    48   22   24 am
    49   24   25 am
    50   24   55 1
    51   25   26 2
    52   25   27 1
    53   28   29 1
    54   29   33 1
    55   29   30 1
    56   29   56 1
    57   30   31 1
    58   30   57 1
    59   30   58 1
    60   31   32 1
    61   31   59 1
    62   31   60 1
    63   32   33 1
    64   32   61 1
    65   32   62 1
    66   33   63 1
    67   33   64 1
@<TRIPOS>MOLECULE
CHEMBL374346
   49    52     0     0     0
SMALL
USER_CHARGES

@<TRIPOS>ATOM
      1 C1          0.8968    0.9672   -0.0441 C.ar      1 <0>        -0.0296
      2 C2          2.0129    1.7449   -0.1675 C.ar      1 <0>        -0.2238
      3 C3          3.2549    1.1642   -0.4103 C.ar      1 <0>         0.1537
      4 C4          3.3777   -0.2076   -0.5302 C.ar      1 <0>        -0.1750
      5 C5          2.2517   -1.0142   -0.4073 C.ar      1 <0>         0.1337
      6 C6          1.0002   -0.4201   -0.1621 C.ar      1 <0>        -0.1451
      7 C7          0.0366   -1.5219   -0.0870 C.2       1 <0>        -0.1945
      8 C8          0.7237   -2.6581   -0.2807 C.2       1 <0>         0.0407
      9 N1          2.0496   -2.3746   -0.4744 N.pl3     1 <0>        -0.5969
     10 H1          2.7430   -3.0339   -0.6342 H         1 <0>         0.4160
     11 O1          4.3558    1.9527   -0.5308 O.3       1 <0>        -0.3124
     12 C9          4.1620    3.3622   -0.3972 C.3       1 <0>         0.0655
     13 C10         5.5035    4.0793   -0.5618 C.3       1 <0>        -0.1190
     14 C11         5.2960    5.5884   -0.4187 C.3       1 <0>         0.0657
     15 O2          6.5490    6.2581   -0.5725 O.3       1 <0>        -0.3155
     16 C12         6.5404    7.6134   -0.4727 C.ar      1 <0>         0.1143
     17 C13         5.3518    8.2853   -0.2261 C.ar      1 <0>        -0.2082
     18 C14         5.3482    9.6617   -0.1256 C.ar      1 <0>        -0.0703
     19 C15         6.5264   10.3760   -0.2703 C.ar      1 <0>        -0.1083
     20 C16         7.7121    9.7087   -0.5162 C.ar      1 <0>        -0.0613
     21 C17         7.7199    8.3279   -0.6113 C.ar      1 <0>        -0.1404
     22 C18         8.8454   10.7055   -0.6333 C.3       1 <0>        -0.0827
     23 C19         8.1615   12.0690   -0.8684 C.3       1 <0>        -0.1019
     24 C20         6.7826   11.8667   -0.2052 C.3       1 <0>        -0.0265
     25 H2          6.8090   12.2010    0.8319 H         1 <0>         0.0888
     26 C21         5.7039   12.6250   -0.9813 C.3       1 <0>        -0.1741
     27 C22         5.8951   14.1074   -0.7888 C.2       1 <0>         0.4909
     28 O3          6.7418   14.5172   -0.0132 O.co2     1 <0>        -0.6954
     29 O4          5.2030   14.8969   -1.4086 O.co2     1 <0>        -0.7083
     30 H3         -0.0627    1.4240    0.1486 H         1 <0>         0.1271
     31 H4          1.9314    2.8179   -0.0764 H         1 <0>         0.1304
     32 H5          4.3443   -0.6509   -0.7188 H         1 <0>         0.1280
     33 H6         -1.0251   -1.4357    0.0909 H         1 <0>         0.1462
     34 H7          0.2948   -3.6493   -0.2833 H         1 <0>         0.1702
     35 H8          3.4687    3.7079   -1.1639 H         1 <0>         0.0679
     36 H9          3.7518    3.5807    0.5888 H         1 <0>         0.0677
     37 H10         6.1968    3.7335    0.2049 H         1 <0>         0.0856
     38 H11         5.9137    3.8608   -1.5478 H         1 <0>         0.0858
     39 H12         4.6027    5.9341   -1.1855 H         1 <0>         0.0646
     40 H13         4.8858    5.8069    0.5672 H         1 <0>         0.0644
     41 H14         4.4310    7.7322   -0.1134 H         1 <0>         0.1237
     42 H15         4.4228   10.1843    0.0665 H         1 <0>         0.1224
     43 H16         8.6468    7.8061   -0.7985 H         1 <0>         0.1238
     44 H17         9.4263   10.7277    0.2888 H         1 <0>         0.0792
     45 H18         9.4856   10.4528   -1.4785 H         1 <0>         0.0707
     46 H19         8.7141   12.8696   -0.3767 H         1 <0>         0.0853
     47 H20         8.0531   12.2694   -1.9343 H         1 <0>         0.0643
     48 H21         5.7812   12.3833   -2.0413 H         1 <0>         0.0567
     49 H22         4.7198   12.3348   -0.6133 H         1 <0>         0.0558
@<TRIPOS>BOND
     1    1    6 ar
     2    1    2 ar
     3    1   30 1
     4    2    3 ar
     5    2   31 1
     6    3    4 ar
     7    3   11 1
     8    4    5 ar
     9    4   32 1
    10    5    9 1
    11    5    6 ar
    12    6    7 1
    13    7    8 2
    14    7   33 1
    15    8    9 1
    16    8   34 1
    17    9   10 1
    18   11   12 1
    19   12   13 1
    20   12   35 1
    21   12   36 1
    22   13   14 1
    23   13   37 1
    24   13   38 1
    25   14   15 1
    26   14   39 1
    27   14   40 1
    28   15   16 1
    29   16   21 ar
    30   16   17 ar
    31   17   18 ar
    32   17   41 1
    33   18   19 ar
    34   18   42 1
    35   19   24 1
    36   19   20 ar
    37   20   21 ar
    38   20   22 1
    39   21   43 1
    40   22   23 1
    41   22   44 1
    42   22   45 1
    43   23   24 1
    44   23   46 1
    45   23   47 1
    46   24   25 1
    47   24   26 1
    48   26   27 1
    49   26   48 1
    50   26   49 1
    51   27   28 2
    52   27   29 1
@<TRIPOS>MOLECULE
CHEMBL426371
   60    62     0     0     0
SMALL
USER_CHARGES

@<TRIPOS>ATOM
      1 C1         -1.4822    0.2694   -1.9387 C.3       1 <0>        -0.1493
      2 C2         -0.0031    0.6125   -1.7511 C.3       1 <0>        -0.1026
      3 C3          0.7370   -0.6066   -1.1970 C.3       1 <0>        -0.1509
      4 C4          0.1881   -0.9498    0.1893 C.3       1 <0>        -0.0588
      5 C5          0.8294   -2.2211    0.6829 C.ar      1 <0>        -0.0947
      6 C6          0.2480   -3.4431    0.3983 C.ar      1 <0>        -0.0699
      7 C7          0.8336   -4.6097    0.8499 C.ar      1 <0>        -0.2135
      8 C8          2.0064   -4.5547    1.5894 C.ar      1 <0>         0.1315
      9 C9          2.5878   -3.3278    1.8732 C.ar      1 <0>        -0.1444
     10 C10         2.0009   -2.1640    1.4147 C.ar      1 <0>        -0.0339
     11 C11         3.8614   -3.2644    2.6762 C.3       1 <0>         0.1782
     12 N1          5.0022   -3.5624    1.8066 N.am      1 <0>        -0.7041
     13 C12         6.2520   -3.5635    2.3112 C.2       1 <0>         0.5552
     14 O1          6.4326   -3.3173    3.4878 O.2       1 <0>        -0.5389
     15 C13         7.4032   -3.8641    1.4337 C.ar      1 <0>        -0.0938
     16 C14         7.1998   -4.1415    0.0810 C.ar      1 <0>        -0.0821
     17 C15         8.2784   -4.4208   -0.7325 C.ar      1 <0>        -0.0744
     18 C16         9.5596   -4.4268   -0.2101 C.ar      1 <0>        -0.1665
     19 C17         9.7681   -4.1531    1.1300 C.ar      1 <0>        -0.0801
     20 C18         8.6987   -3.8661    1.9531 C.ar      1 <0>        -0.0635
     21 C19        10.7330   -4.7332   -1.1046 C.3       1 <0>         0.5086
     22 F1         11.2168   -3.5450   -1.6627 F         1 <0>        -0.1740
     23 F2         11.7449   -5.3419   -0.3543 F         1 <0>        -0.1773
     24 F3         10.3268   -5.5972   -2.1272 F         1 <0>        -0.1759
     25 O2          2.5842   -5.7011    2.0353 O.3       1 <0>        -0.3050
     26 C20         1.9299   -6.9281    1.7059 C.3       1 <0>         0.1012
     27 C21         2.7094   -8.0830    2.2802 C.ar      1 <0>        -0.0914
     28 C22         3.7105   -8.6791    1.5363 C.ar      1 <0>        -0.0942
     29 C23         4.4254   -9.7384    2.0631 C.ar      1 <0>        -0.1234
     30 C24         4.1396  -10.2013    3.3339 C.ar      1 <0>        -0.1126
     31 C25         3.1392   -9.6046    4.0781 C.ar      1 <0>        -0.1244
     32 C26         2.4271   -8.5425    3.5530 C.ar      1 <0>        -0.0955
     33 C27         2.2080   -0.2965   -1.0923 C.2       1 <0>         0.5017
     34 O3          3.0237   -1.0183   -1.6401 O.co2     1 <0>        -0.7000
     35 O4          2.5824    0.6762   -0.4597 O.co2     1 <0>        -0.6995
     36 H1         -1.5723   -0.6276   -2.5514 H         1 <0>         0.0474
     37 H2         -1.9404    0.0923   -0.9657 H         1 <0>         0.0508
     38 H3         -1.9878    1.0991   -2.4328 H         1 <0>         0.0444
     39 H4          0.4291    0.8944   -2.7112 H         1 <0>         0.0520
     40 H5          0.0914    1.4435   -1.0521 H         1 <0>         0.0639
     41 H6          0.5912   -1.4550   -1.8657 H         1 <0>         0.0574
     42 H7          0.4129   -0.1374    0.8804 H         1 <0>         0.0723
     43 H8         -0.8915   -1.0871    0.1288 H         1 <0>         0.0596
     44 H9         -0.6648   -3.4853   -0.1774 H         1 <0>         0.1210
     45 H10         0.3788   -5.5638    0.6280 H         1 <0>         0.1234
     46 H11         2.4553   -1.2086    1.6319 H         1 <0>         0.1350
     47 H12         3.9764   -2.2655    3.0969 H         1 <0>         0.0768
     48 H13         3.8190   -3.9959    3.4832 H         1 <0>         0.0783
     49 H14         4.8581   -3.7588    0.8677 H         1 <0>         0.4046
     50 H15         6.2002   -4.1379   -0.3279 H         1 <0>         0.1421
     51 H16         8.1224   -4.6357   -1.7794 H         1 <0>         0.1432
     52 H17        10.7706   -4.1596    1.5317 H         1 <0>         0.1416
     53 H18         8.8633   -3.6478    2.9979 H         1 <0>         0.1484
     54 H19         0.9229   -6.9263    2.1230 H         1 <0>         0.0689
     55 H20         1.8741   -7.0305    0.6222 H         1 <0>         0.0700
     56 H21         3.9337   -8.3175    0.5435 H         1 <0>         0.1242
     57 H22         5.2071  -10.2047    1.4817 H         1 <0>         0.1238
     58 H23         4.6978  -11.0294    3.7452 H         1 <0>         0.1221
     59 H24         2.9157   -9.9664    5.0709 H         1 <0>         0.1234
     60 H25         1.6479   -8.0738    4.1359 H         1 <0>         0.1236
@<TRIPOS>BOND
     1    1    2 1
     2    1   36 1
     3    1   37 1
     4    1   38 1
     5    2    3 1
     6    2   39 1
     7    2   40 1
     8    3    4 1
     9    3   33 1
    10    3   41 1
    11    4    5 1
    12    4   42 1
    13    4   43 1
    14    5   10 ar
    15    5    6 ar
    16    6    7 ar
    17    6   44 1
    18    7    8 ar
    19    7   45 1
    20    8    9 ar
    21    8   25 1
    22    9   10 ar
    23    9   11 1
    24   10   46 1
    25   11   12 1
    26   11   47 1
    27   11   48 1
    28   12   13 am
    29   12   49 1
    30   13   14 2
    31   13   15 1
    32   15   20 ar
    33   15   16 ar
    34   16   17 ar
    35   16   50 1
    36   17   18 ar
    37   17   51 1
    38   18   19 ar
    39   18   21 1
    40   19   20 ar
    41   19   52 1
    42   20   53 1
    43   21   22 1
    44   21   23 1
    45   21   24 1
    46   25   26 1
    47   26   27 1
    48   26   54 1
    49   26   55 1
    50   27   32 ar
    51   27   28 ar
    52   28   29 ar
    53   28   56 1
    54   29   30 ar
    55   29   57 1
    56   30   31 ar
    57   30   58 1
    58   31   32 ar
    59   31   59 1
    60   32   60 1
    61   33   34 2
    62   33   35 1
@<TRIPOS>MOLECULE
CHEMBL426371__1
   60    62     0     0     0
SMALL
USER_CHARGES

@<TRIPOS>ATOM
      1 C1         -0.0187    1.5258    0.0104 C.3       1 <0>        -0.1446
      2 C2          0.0021   -0.0041    0.0020 C.3       1 <0>        -0.1007
      3 C3          0.7182   -0.4975   -1.2568 C.3       1 <0>        -0.1541
      4 C4          0.8493   -2.0210   -1.2049 C.3       1 <0>        -0.0586
      5 C5          1.6611   -2.4957   -2.3824 C.ar      1 <0>        -0.0949
      6 C6          1.0312   -2.8160   -3.5711 C.ar      1 <0>        -0.0418
      7 C7          1.7730   -3.2518   -4.6516 C.ar      1 <0>        -0.2060
      8 C8          3.1515   -3.3676   -4.5439 C.ar      1 <0>         0.1324
      9 C9          3.7811   -3.0452   -3.3506 C.ar      1 <0>        -0.1539
     10 C10         3.0350   -2.6048   -2.2743 C.ar      1 <0>        -0.0620
     11 C11         5.2780   -3.1699   -3.2301 C.3       1 <0>         0.1798
     12 N1          5.9161   -2.0006   -3.8400 N.am      1 <0>        -0.7082
     13 C12         7.2597   -1.8946   -3.8497 C.2       1 <0>         0.5545
     14 O1          7.9420   -2.7691   -3.3525 O.2       1 <0>        -0.5366
     15 C13         7.9036   -0.7146   -4.4651 C.ar      1 <0>        -0.0962
     16 C14         7.1229    0.2941   -5.0318 C.ar      1 <0>        -0.0854
     17 C15         7.7300    1.3928   -5.6040 C.ar      1 <0>        -0.0744
     18 C16         9.1097    1.4959   -5.6174 C.ar      1 <0>        -0.1647
     19 C17         9.8895    0.4993   -5.0578 C.ar      1 <0>        -0.0789
     20 C18         9.2947   -0.6017   -4.4769 C.ar      1 <0>        -0.0633
     21 C19         9.7661    2.6987   -6.2447 C.3       1 <0>         0.5081
     22 F1          9.9338    3.6957   -5.2778 F         1 <0>        -0.1743
     23 F2         11.0147    2.3333   -6.7592 F         1 <0>        -0.1765
     24 F3          8.9591    3.1836   -7.2795 F         1 <0>        -0.1747
     25 O2          3.8835   -3.7965   -5.6055 O.3       1 <0>        -0.3064
     26 C20         3.1684   -4.1111   -6.8020 C.3       1 <0>         0.0994
     27 C21         4.1383   -4.5656   -7.8621 C.ar      1 <0>        -0.0901
     28 C22         4.7115   -3.6421   -8.7162 C.ar      1 <0>        -0.0943
     29 C23         5.6012   -4.0590   -9.6886 C.ar      1 <0>        -0.1235
     30 C24         5.9180   -5.3994   -9.8066 C.ar      1 <0>        -0.1130
     31 C25         5.3454   -6.3228   -8.9520 C.ar      1 <0>        -0.1246
     32 C26         4.4591   -5.9053   -7.9768 C.ar      1 <0>        -0.0956
     33 C27        -0.0771   -0.1029   -2.4745 C.2       1 <0>         0.5068
     34 O3          0.4235    0.6153   -3.3231 O.co2     1 <0>        -0.7011
     35 O4         -1.2211   -0.5017   -2.6110 O.co2     1 <0>        -0.7014
     36 H1          1.0039    1.9031    0.0027 H         1 <0>         0.0458
     37 H2         -0.5459    1.8868   -0.8726 H         1 <0>         0.0583
     38 H3         -0.5289    1.8773    0.9072 H         1 <0>         0.0420
     39 H4          0.5293   -0.3651    0.8851 H         1 <0>         0.0439
     40 H5         -1.0205   -0.3814    0.0098 H         1 <0>         0.0632
     41 H6          1.7103   -0.0491   -1.3098 H         1 <0>         0.0577
     42 H7          1.3468   -2.3116   -0.2797 H         1 <0>         0.0566
     43 H8         -0.1422   -2.4724   -1.2416 H         1 <0>         0.0740
     44 H9         -0.0418   -2.7257   -3.6545 H         1 <0>         0.1324
     45 H10         1.2805   -3.5025   -5.5795 H         1 <0>         0.1249
     46 H11         3.5251   -2.3499   -1.3463 H         1 <0>         0.1261
     47 H12         5.5543   -3.2268   -2.1772 H         1 <0>         0.0750
     48 H13         5.6098   -4.0732   -3.7421 H         1 <0>         0.0786
     49 H14         5.3716   -1.3028   -4.2367 H         1 <0>         0.4035
     50 H15         6.0458    0.2145   -5.0226 H         1 <0>         0.1417
     51 H16         7.1271    2.1740   -6.0428 H         1 <0>         0.1442
     52 H17        10.9659    0.5856   -5.0719 H         1 <0>         0.1424
     53 H18         9.9044   -1.3765   -4.0361 H         1 <0>         0.1486
     54 H19         2.4527   -4.9076   -6.5988 H         1 <0>         0.0703
     55 H20         2.6372   -3.2256   -7.1512 H         1 <0>         0.0725
     56 H21         4.4641   -2.5949   -8.6240 H         1 <0>         0.1246
     57 H22         6.0485   -3.3376  -10.3563 H         1 <0>         0.1236
     58 H23         6.6125   -5.7252  -10.5668 H         1 <0>         0.1219
     59 H24         5.5926   -7.3701   -9.0444 H         1 <0>         0.1233
     60 H25         4.0146   -6.6263   -7.3066 H         1 <0>         0.1237
@<TRIPOS>BOND
     1    1    2 1
     2    1   36 1
     3    1   37 1
     4    1   38 1
     5    2    3 1
     6    2   39 1
     7    2   40 1
     8    3    4 1
     9    3   33 1
    10    3   41 1
    11    4    5 1
    12    4   42 1
    13    4   43 1
    14    5   10 ar
    15    5    6 ar
    16    6    7 ar
    17    6   44 1
    18    7    8 ar
    19    7   45 1
    20    8    9 ar
    21    8   25 1
    22    9   10 ar
    23    9   11 1
    24   10   46 1
    25   11   12 1
    26   11   47 1
    27   11   48 1
    28   12   13 am
    29   12   49 1
    30   13   14 2
    31   13   15 1
    32   15   20 ar
    33   15   16 ar
    34   16   17 ar
    35   16   50 1
    36   17   18 ar
    37   17   51 1
    38   18   19 ar
    39   18   21 1
    40   19   20 ar
    41   19   52 1
    42   20   53 1
    43   21   22 1
    44   21   23 1
    45   21   24 1
    46   25   26 1
    47   26   27 1
    48   26   54 1
    49   26   55 1
    50   27   32 ar
    51   27   28 ar
    52   28   29 ar
    53   28   56 1
    54   29   30 ar
    55   29   57 1
    56   30   31 ar
    57   30   58 1
    58   31   32 ar
    59   31   59 1
    60   32   60 1
    61   33   34 2
    62   33   35 1
@<TRIPOS>MOLECULE
CHEMBL241269
   57    60     0     0     0
SMALL
USER_CHARGES

@<TRIPOS>ATOM
      1 C1         -0.4647    0.3294   -0.9410 C.3       1 <0>        -0.1536
      2 C2         -0.2854   -1.1761   -0.7357 C.3       1 <0>         0.0672
      3 O1          0.4742   -1.7173   -1.8183 O.3       1 <0>        -0.2992
      4 C3          0.7255   -3.0547   -1.7890 C.2       1 <0>         0.2616
      5 C4          1.4485   -3.6365   -2.7868 C.2       1 <0>        -0.2462
      6 S1          1.4584   -5.3389   -2.2390 S.3       1 <0>         0.0458
      7 C5          0.5035   -5.0948   -0.7473 C.2       1 <0>         0.1942
      8 N1          0.2764   -3.7884   -0.7954 N.2       1 <0>        -0.5452
      9 C6          0.0843   -6.0822    0.2694 C.ar      1 <0>        -0.1185
     10 C7          0.4412   -7.4313    0.1401 C.ar      1 <0>        -0.0091
     11 C8          0.0260   -8.3160    1.1156 C.ar      1 <0>        -0.1852
     12 C9         -0.7263   -7.8438    2.1856 C.ar      1 <0>         0.3485
     13 N2         -1.0472   -6.5637    2.2793 N.ar      1 <0>        -0.5367
     14 C10        -0.6671   -5.6845    1.3743 C.ar      1 <0>         0.2026
     15 O2         -1.1374   -8.7082    3.1467 O.3       1 <0>        -0.2959
     16 C11        -1.9071   -8.1652    4.2213 C.3       1 <0>         0.0734
     17 C12        -2.2766   -9.2823    5.1993 C.3       1 <0>        -0.1208
     18 C13        -3.1007   -8.7010    6.3499 C.3       1 <0>         0.0666
     19 O3         -3.4458   -9.7444    7.2633 O.3       1 <0>        -0.3158
     20 C14        -4.1832   -9.3943    8.3498 C.ar      1 <0>         0.1142
     21 C15        -4.5719   -8.0748    8.5309 C.ar      1 <0>        -0.2079
     22 C16        -5.3207   -7.7242    9.6359 C.ar      1 <0>        -0.0703
     23 C17        -5.6857   -8.6840   10.5659 C.ar      1 <0>        -0.1080
     24 C18        -5.2994   -9.9995   10.3877 C.ar      1 <0>        -0.0614
     25 C19        -4.5537  -10.3554    9.2772 C.ar      1 <0>        -0.1403
     26 C20        -5.8187  -10.8447   11.5312 C.3       1 <0>        -0.0826
     27 C21        -6.1851   -9.8388   12.6430 C.3       1 <0>        -0.1019
     28 C22        -6.4911   -8.5559   11.8413 C.3       1 <0>        -0.0267
     29 H1         -7.5552   -8.4978   11.6125 H         1 <0>         0.0888
     30 C23        -6.0478   -7.3203   12.6273 C.3       1 <0>        -0.1741
     31 C24        -6.9517   -7.1315   13.8182 C.2       1 <0>         0.4910
     32 O4         -7.9275   -7.8480   13.9626 O.co2     1 <0>        -0.6954
     33 O5         -6.7071   -6.2623   14.6374 O.co2     1 <0>        -0.7083
     34 H2          0.5128    0.8104   -0.9752 H         1 <0>         0.0646
     35 H3         -0.9906    0.5081   -1.8789 H         1 <0>         0.0645
     36 H4         -1.0442    0.7423   -0.1153 H         1 <0>         0.0799
     37 H5          0.2404   -1.3548    0.2022 H         1 <0>         0.0638
     38 H6         -1.2629   -1.6571   -0.7016 H         1 <0>         0.0637
     39 H7          1.8927   -3.1925   -3.6654 H         1 <0>         0.2034
     40 H8          1.0262   -7.7708   -0.7019 H         1 <0>         0.1485
     41 H9          0.2824   -9.3629    1.0482 H         1 <0>         0.1545
     42 H10        -0.9444   -4.6469    1.4872 H         1 <0>         0.1727
     43 H11        -1.3215   -7.4066    4.7407 H         1 <0>         0.0750
     44 H12        -2.8166   -7.7138    3.8250 H         1 <0>         0.0749
     45 H13        -2.8622  -10.0409    4.6800 H         1 <0>         0.0855
     46 H14        -1.3671   -9.7338    5.5957 H         1 <0>         0.0857
     47 H15        -2.5150   -7.9424    6.8692 H         1 <0>         0.0653
     48 H16        -4.0102   -8.2496    5.9535 H         1 <0>         0.0650
     49 H17        -4.2888   -7.3234    7.8087 H         1 <0>         0.1240
     50 H18        -5.6232   -6.6970    9.7764 H         1 <0>         0.1224
     51 H19        -4.2560  -11.3838    9.1353 H         1 <0>         0.1238
     52 H20        -6.7020  -11.4017   11.2191 H         1 <0>         0.0792
     53 H21        -5.0435  -11.5274   11.8793 H         1 <0>         0.0707
     54 H22        -7.0658  -10.1719   13.1920 H         1 <0>         0.0853
     55 H23        -5.3430   -9.6827   13.3172 H         1 <0>         0.0643
     56 H24        -5.0213   -7.4555   12.9680 H         1 <0>         0.0567
     57 H25        -6.1047   -6.4415   11.9850 H         1 <0>         0.0558
@<TRIPOS>BOND
     1    1    2 1
     2    1   34 1
     3    1   35 1
     4    1   36 1
     5    2    3 1
     6    2   37 1
     7    2   38 1
     8    3    4 1
     9    4    8 1
    10    4    5 2
    11    5    6 1
    12    5   39 1
    13    6    7 1
    14    7    8 2
    15    7    9 1
    16    9   14 ar
    17    9   10 ar
    18   10   11 ar
    19   10   40 1
    20   11   12 ar
    21   11   41 1
    22   12   13 ar
    23   12   15 1
    24   13   14 ar
    25   14   42 1
    26   15   16 1
    27   16   17 1
    28   16   43 1
    29   16   44 1
    30   17   18 1
    31   17   45 1
    32   17   46 1
    33   18   19 1
    34   18   47 1
    35   18   48 1
    36   19   20 1
    37   20   25 ar
    38   20   21 ar
    39   21   22 ar
    40   21   49 1
    41   22   23 ar
    42   22   50 1
    43   23   28 1
    44   23   24 ar
    45   24   25 ar
    46   24   26 1
    47   25   51 1
    48   26   27 1
    49   26   52 1
    50   26   53 1
    51   27   28 1
    52   27   54 1
    53   27   55 1
    54   28   29 1
    55   28   30 1
    56   30   31 1
    57   30   56 1
    58   30   57 1
    59   31   32 2
    60   31   33 1
@<TRIPOS>MOLECULE
CHEMBL1079449
   61    65     0     0     0
SMALL
USER_CHARGES

@<TRIPOS>ATOM
      1 C1         -0.4893    2.0077   -0.7857 C.3       1 <0>        -0.1053
      2 C2         -0.3805    0.5134   -0.6242 C.ar      1 <0>        -0.0849
      3 C3         -0.3192   -0.2993   -1.7397 C.ar      1 <0>        -0.1084
      4 C4         -0.2186   -1.6744   -1.5911 C.ar      1 <0>         0.0758
      5 C5         -0.1797   -2.2339   -0.3223 C.ar      1 <0>        -0.1700
      6 C6         -0.2410   -1.4215    0.7928 C.ar      1 <0>        -0.1754
      7 C7         -0.3363   -0.0456    0.6442 C.ar      1 <0>         0.1100
      8 O1         -0.3910    0.7548    1.7422 O.3       1 <0>        -0.2775
      9 C8         -0.3406    0.1113    3.0171 C.3       1 <0>        -0.0070
     10 C9         -0.4126    1.1496    4.1070 C.2       1 <0>         0.5013
     11 O2         -0.4991    2.3311    3.8186 O.co2     1 <0>        -0.6705
     12 O3         -0.3844    0.8082    5.2771 O.co2     1 <0>        -0.6885
     13 O4         -0.1587   -2.4744   -2.6891 O.3       1 <0>        -0.3104
     14 C10        -0.0559   -3.8814   -2.4618 C.3       1 <0>         0.1528
     15 C11        -0.0015   -4.6013   -3.7846 C.2       1 <0>         0.0433
     16 N1          1.0547   -4.9163   -4.4883 N.2       1 <0>        -0.4825
     17 C12         0.9541   -5.5551   -5.6426 C.2       1 <0>         0.1244
     18 C13        -0.3403   -5.8666   -6.0542 C.2       1 <0>        -0.1613
     19 S1         -1.2851   -5.1936   -4.6968 S.3       1 <0>         0.1675
     20 C14        -0.8014   -6.5634   -7.2706 C.ar      1 <0>         0.0028
     21 C15        -0.1927   -7.7722   -7.6562 C.ar      1 <0>        -0.0852
     22 C16        -0.5994   -8.4313   -8.7705 C.ar      1 <0>        -0.1012
     23 C17        -1.6424   -7.9081   -9.5571 C.ar      1 <0>        -0.0438
     24 C18        -2.0804   -8.5731  -10.7144 C.ar      1 <0>        -0.1077
     25 C19        -3.0921   -8.0430  -11.4554 C.ar      1 <0>        -0.1125
     26 C20        -3.7032   -6.8466  -11.0846 C.ar      1 <0>        -0.1169
     27 C21        -3.3059   -6.1737   -9.9705 C.ar      1 <0>        -0.1017
     28 C22        -2.2643   -6.6910   -9.1792 C.ar      1 <0>        -0.0500
     29 C23        -1.8344   -6.0255   -8.0215 C.ar      1 <0>        -0.0829
     30 C24         2.1437   -5.9162   -6.4478 C.ar      1 <0>        -0.0571
     31 C25         2.1315   -5.7389   -7.8314 C.ar      1 <0>        -0.0506
     32 C26         3.2408   -6.0762   -8.5779 C.ar      1 <0>        -0.1509
     33 C27         4.3688   -6.5919   -7.9540 C.ar      1 <0>         0.1359
     34 C28         4.3845   -6.7698   -6.5772 C.ar      1 <0>        -0.2102
     35 C29         3.2809   -6.4292   -5.8237 C.ar      1 <0>        -0.0435
     36 O5          5.4601   -6.9237   -8.6928 O.3       1 <0>        -0.3167
     37 C30         6.5862   -7.4488   -7.9870 C.3       1 <0>         0.0259
     38 H1          0.5095    2.4423   -0.8276 H         1 <0>         0.0694
     39 H2         -1.0237    2.2356   -1.7080 H         1 <0>         0.0613
     40 H3         -1.0322    2.4262    0.0617 H         1 <0>         0.0809
     41 H4         -0.3498    0.1363   -2.7275 H         1 <0>         0.1325
     42 H5         -0.1017   -3.3049   -0.2066 H         1 <0>         0.1248
     43 H6         -0.2114   -1.8572    1.7806 H         1 <0>         0.1322
     44 H7         -1.1830   -0.5738    3.1119 H         1 <0>         0.0579
     45 H8          0.5923   -0.4452    3.1066 H         1 <0>         0.0579
     46 H9          0.8513   -4.0927   -1.8956 H         1 <0>         0.0954
     47 H10        -0.9239   -4.2228   -1.8978 H         1 <0>         0.0890
     48 H11         0.6084   -8.1804   -7.0579 H         1 <0>         0.1265
     49 H12        -0.1220   -9.3577   -9.0541 H         1 <0>         0.1315
     50 H13        -1.6164   -9.5008  -11.0152 H         1 <0>         0.1278
     51 H14        -3.4259   -8.5573  -12.3445 H         1 <0>         0.1234
     52 H15        -4.5033   -6.4476  -11.6904 H         1 <0>         0.1241
     53 H16        -3.7878   -5.2472   -9.6953 H         1 <0>         0.1289
     54 H17        -2.3019   -5.0998   -7.7202 H         1 <0>         0.1318
     55 H18         1.2543   -5.3381   -8.3174 H         1 <0>         0.1297
     56 H19         3.2320   -5.9395   -9.6491 H         1 <0>         0.1336
     57 H20         5.2637   -7.1711   -6.0951 H         1 <0>         0.1312
     58 H21         3.2955   -6.5633   -4.7522 H         1 <0>         0.1291
     59 H22         6.9358   -6.7136   -7.2621 H         1 <0>         0.0571
     60 H23         6.2957   -8.3618   -7.4672 H         1 <0>         0.0563
     61 H24         7.3860   -7.6715   -8.6932 H         1 <0>         0.1004
@<TRIPOS>BOND
     1    1    2 1
     2    1   38 1
     3    1   39 1
     4    1   40 1
     5    2    7 ar
     6    2    3 ar
     7    3    4 ar
     8    3   41 1
     9    4    5 ar
    10    4   13 1
    11    5    6 ar
    12    5   42 1
    13    6    7 ar
    14    6   43 1
    15    7    8 1
    16    8    9 1
    17    9   10 1
    18    9   44 1
    19    9   45 1
    20   10   11 2
    21   10   12 1
    22   13   14 1
    23   14   15 1
    24   14   46 1
    25   14   47 1
    26   15   19 1
    27   15   16 2
    28   16   17 1
    29   17   18 2
    30   17   30 1
    31   18   19 1
    32   18   20 1
    33   20   29 ar
    34   20   21 ar
    35   21   22 ar
    36   21   48 1
    37   22   23 ar
    38   22   49 1
    39   23   28 ar
    40   23   24 ar
    41   24   25 ar
    42   24   50 1
    43   25   26 ar
    44   25   51 1
    45   26   27 ar
    46   26   52 1
    47   27   28 ar
    48   27   53 1
    49   28   29 ar
    50   29   54 1
    51   30   35 ar
    52   30   31 ar
    53   31   32 ar
    54   31   55 1
    55   32   33 ar
    56   32   56 1
    57   33   34 ar
    58   33   36 1
    59   34   35 ar
    60   34   57 1
    61   35   58 1
    62   36   37 1
    63   37   59 1
    64   37   60 1
    65   37   61 1
@<TRIPOS>MOLECULE
CHEMBL411045
   52    54     0     0     0
SMALL
USER_CHARGES

@<TRIPOS>ATOM
      1 C1          0.2753    1.1890   -0.1587 C.3       1 <0>        -0.0962
      2 C2          0.1609   -0.3095   -0.0466 C.ar      1 <0>        -0.1231
      3 C3          0.2118   -1.0926   -1.1830 C.ar      1 <0>        -0.0694
      4 C4          0.1063   -2.4737   -1.0794 C.ar      1 <0>        -0.1334
      5 C5         -0.0504   -3.0658    0.1677 C.ar      1 <0>        -0.1070
      6 C6         -0.1011   -2.2810    1.3025 C.ar      1 <0>        -0.1355
      7 C7          0.0101   -0.9020    1.1983 C.ar      1 <0>         0.1735
      8 O1         -0.0339   -0.1302    2.3173 O.3       1 <0>        -0.2966
      9 C8         -0.0637   -0.8104    3.5737 C.3       1 <0>         0.0288
     10 C9          1.1832   -1.6868    3.7089 C.3       1 <0>        -0.1735
     11 C10        -0.0914    0.2155    4.7085 C.3       1 <0>        -0.1148
     12 C11        -1.2958   -1.6749    3.6479 C.2       1 <0>         0.4810
     13 O2         -2.0761   -1.7058    2.7116 O.co2     1 <0>        -0.6689
     14 O3         -1.5123   -2.3435    4.6442 O.co2     1 <0>        -0.6847
     15 S1          0.1706   -3.4741   -2.5285 S.3       1 <0>        -0.1201
     16 C12        -0.0049   -5.1671   -1.9011 C.3       1 <0>        -0.1074
     17 C13         0.0347   -6.1514   -3.0718 C.3       1 <0>        -0.0187
     18 C14        -0.1111   -7.5579   -2.5506 C.2       1 <0>         0.0748
     19 N1         -1.2098   -8.2546   -2.3661 N.2       1 <0>        -0.5091
     20 C15        -1.0904   -9.4825   -1.8942 C.2       1 <0>         0.2880
     21 N2          0.1241   -9.9280   -1.6394 N.2       1 <0>        -0.4647
     22 S2          1.0913   -8.6277   -2.0680 S.3       1 <0>         0.3085
     23 C16        -2.2837  -10.3322   -1.6581 C.ar      1 <0>         0.0075
     24 C17        -3.5575   -9.8425   -1.9395 C.ar      1 <0>        -0.0713
     25 C18        -4.6639  -10.6374   -1.7184 C.ar      1 <0>        -0.0741
     26 C19        -4.5100  -11.9179   -1.2185 C.ar      1 <0>        -0.1677
     27 C20        -3.2478  -12.4091   -0.9374 C.ar      1 <0>        -0.0752
     28 C21        -2.1341  -11.6248   -1.1596 C.ar      1 <0>        -0.0798
     29 C22        -5.7219  -12.7810   -0.9788 C.3       1 <0>         0.5085
     30 F1         -6.0062  -13.5171   -2.1340 F         1 <0>        -0.1757
     31 F2         -5.4680  -13.6572    0.0818 F         1 <0>        -0.1757
     32 F3         -6.8167  -11.9698   -0.6615 F         1 <0>        -0.1743
     33 H1          1.3242    1.4790   -0.0960 H         1 <0>         0.0613
     34 H2         -0.1350    1.5142   -1.1147 H         1 <0>         0.0590
     35 H3         -0.2804    1.6576    0.6535 H         1 <0>         0.0695
     36 H4          0.3333   -0.6313   -2.1520 H         1 <0>         0.1245
     37 H5         -0.1329   -4.1396    0.2495 H         1 <0>         0.1124
     38 H6         -0.2229   -2.7410    2.2720 H         1 <0>         0.1431
     39 H7          2.0591   -1.0533    3.8487 H         1 <0>         0.0519
     40 H8          1.0715   -2.3473    4.5687 H         1 <0>         0.0753
     41 H9          1.3072   -2.2840    2.8056 H         1 <0>         0.0656
     42 H10        -0.9332    0.8931    4.5652 H         1 <0>         0.0573
     43 H11        -0.1989   -0.3007    5.6625 H         1 <0>         0.0785
     44 H12         0.8379    0.7851    4.7062 H         1 <0>         0.0511
     45 H13         0.8123   -5.3865   -1.2141 H         1 <0>         0.0914
     46 H14        -0.9559   -5.2637   -1.3773 H         1 <0>         0.0971
     47 H15        -0.7825   -5.9320   -3.7588 H         1 <0>         0.1144
     48 H16         0.9857   -6.0548   -3.5956 H         1 <0>         0.1096
     49 H17        -3.6789   -8.8427   -2.3295 H         1 <0>         0.1512
     50 H18        -5.6518  -10.2588   -1.9358 H         1 <0>         0.1444
     51 H19        -3.1334  -13.4095   -0.5469 H         1 <0>         0.1431
     52 H20        -1.1488  -12.0108   -0.9440 H         1 <0>         0.1457
@<TRIPOS>BOND
     1    1    2 1
     2    1   33 1
     3    1   34 1
     4    1   35 1
     5    2    7 ar
     6    2    3 ar
     7    3    4 ar
     8    3   36 1
     9    4    5 ar
    10    4   15 1
    11    5    6 ar
    12    5   37 1
    13    6    7 ar
    14    6   38 1
    15    7    8 1
    16    8    9 1
    17    9   10 1
    18    9   11 1
    19    9   12 1
    20   10   39 1
    21   10   40 1
    22   10   41 1
    23   11   42 1
    24   11   43 1
    25   11   44 1
    26   12   13 2
    27   12   14 1
    28   15   16 1
    29   16   17 1
    30   16   45 1
    31   16   46 1
    32   17   18 1
    33   17   47 1
    34   17   48 1
    35   18   22 1
    36   18   19 2
    37   19   20 1
    38   20   21 2
    39   20   23 1
    40   21   22 1
    41   23   28 ar
    42   23   24 ar
    43   24   25 ar
    44   24   49 1
    45   25   26 ar
    46   25   50 1
    47   26   27 ar
    48   26   29 1
    49   27   28 ar
    50   27   51 1
    51   28   52 1
    52   29   30 1
    53   29   31 1
    54   29   32 1
@<TRIPOS>MOLECULE
CHEMBL232397
   56    59     0     0     0
SMALL
USER_CHARGES

@<TRIPOS>ATOM
      1 C1         -0.0167    1.3781    0.0096 C.ar      1 <0>        -0.0949
      2 C2          1.1709    2.0855    0.0021 C.ar      1 <0>        -0.0724
      3 C3          2.3773    1.4107   -0.0130 C.ar      1 <0>        -0.1744
      4 C4          2.3960    0.0285   -0.0201 C.ar      1 <0>        -0.0726
      5 C5          1.2085   -0.6789   -0.0117 C.ar      1 <0>        -0.0953
      6 C6          0.0021   -0.0041    0.0020 C.ar      1 <0>        -0.0625
      7 C7         -1.2926   -0.7753    0.0107 C.3       1 <0>         0.0961
      8 O1         -1.7152   -1.0118   -1.3338 O.3       1 <0>        -0.3076
      9 C8         -2.8744   -1.7003   -1.5041 C.ar      1 <0>         0.1316
     10 C9         -3.5935   -2.1342   -0.3998 C.ar      1 <0>        -0.2078
     11 C10        -4.7718   -2.8335   -0.5756 C.ar      1 <0>        -0.0586
     12 C11        -5.2345   -3.1014   -1.8507 C.ar      1 <0>        -0.1057
     13 C12        -4.5195   -2.6704   -2.9529 C.ar      1 <0>        -0.0592
     14 C13        -3.3437   -1.9654   -2.7824 C.ar      1 <0>        -0.1482
     15 C14        -6.5200   -3.8648   -2.0396 C.3       1 <0>        -0.0637
     16 S1         -7.9100   -2.7013   -2.1070 S.3       1 <0>        -0.1192
     17 C15        -9.3203   -3.7342   -2.3276 C.ar      1 <0>        -0.1263
     18 C16        -9.1650   -5.1119   -2.4000 C.ar      1 <0>        -0.0899
     19 C17       -10.2702   -5.9212   -2.5723 C.ar      1 <0>        -0.2005
     20 C18       -11.5325   -5.3570   -2.6725 C.ar      1 <0>         0.1533
     21 C19       -11.6912   -3.9785   -2.6009 C.ar      1 <0>        -0.1187
     22 C20       -10.5875   -3.1675   -2.4230 C.ar      1 <0>        -0.0400
     23 C21       -11.0202   -1.7180   -2.3699 C.3       1 <0>        -0.0768
     24 C22       -12.4451   -1.6999   -2.9628 C.3       1 <0>        -0.1185
     25 C23       -12.9422   -3.1301   -2.6820 C.3       1 <0>        -0.0719
     26 O2        -12.6199   -6.1560   -2.8422 O.3       1 <0>        -0.2768
     27 C24       -12.3863   -7.5642   -2.9080 C.3       1 <0>        -0.0083
     28 C25       -13.6975   -8.2827   -3.0967 C.2       1 <0>         0.5014
     29 O3        -14.7358   -7.6476   -3.1681 O.co2     1 <0>        -0.6699
     30 O4        -13.7200   -9.4990   -3.1779 O.co2     1 <0>        -0.6876
     31 C26         3.6720    2.1819   -0.0222 C.3       1 <0>         0.5080
     32 F1          4.0857    2.4144    1.2938 F         1 <0>        -0.1755
     33 F2          4.6506    1.4423   -0.6949 F         1 <0>        -0.1758
     34 F3          3.4816    3.4050   -0.6742 F         1 <0>        -0.1757
     35 H1         -0.9591    1.9053    0.0259 H         1 <0>         0.1391
     36 H2          1.1563    3.1654    0.0076 H         1 <0>         0.1402
     37 H3          3.3385   -0.4987   -0.0326 H         1 <0>         0.1399
     38 H4          1.2231   -1.7588   -0.0179 H         1 <0>         0.1387
     39 H5         -1.1443   -1.7285    0.5180 H         1 <0>         0.0775
     40 H6         -2.0551   -0.1993    0.5352 H         1 <0>         0.0780
     41 H7         -3.2321   -1.9258    0.5964 H         1 <0>         0.1295
     42 H8         -5.3320   -3.1715    0.2837 H         1 <0>         0.1291
     43 H9         -4.8827   -2.8812   -3.9478 H         1 <0>         0.1337
     44 H10        -2.7879   -1.6251   -3.6436 H         1 <0>         0.1330
     45 H11        -6.4736   -4.4298   -2.9705 H         1 <0>         0.0943
     46 H12        -6.6609   -4.5513   -1.2046 H         1 <0>         0.0937
     47 H13        -8.1809   -5.5500   -2.3220 H         1 <0>         0.1217
     48 H14       -10.1514   -6.9931   -2.6293 H         1 <0>         0.1333
     49 H15       -11.0351   -1.3652   -1.3387 H         1 <0>         0.0814
     50 H16       -10.3523   -1.1016   -2.9717 H         1 <0>         0.0760
     51 H17       -13.0664   -0.9616   -2.4559 H         1 <0>         0.0764
     52 H18       -12.4159   -1.5122   -4.0361 H         1 <0>         0.0710
     53 H19       -13.5857   -3.4812   -3.4887 H         1 <0>         0.0817
     54 H20       -13.4774   -3.1537   -1.7328 H         1 <0>         0.0781
     55 H21       -11.7273   -7.7843   -3.7479 H         1 <0>         0.0590
     56 H22       -11.9187   -7.8987   -1.9820 H         1 <0>         0.0590
@<TRIPOS>BOND
     1    1    6 ar
     2    1    2 ar
     3    1   35 1
     4    2    3 ar
     5    2   36 1
     6    3    4 ar
     7    3   31 1
     8    4    5 ar
     9    4   37 1
    10    5    6 ar
    11    5   38 1
    12    6    7 1
    13    7    8 1
    14    7   39 1
    15    7   40 1
    16    8    9 1
    17    9   14 ar
    18    9   10 ar
    19   10   11 ar
    20   10   41 1
    21   11   12 ar
    22   11   42 1
    23   12   13 ar
    24   12   15 1
    25   13   14 ar
    26   13   43 1
    27   14   44 1
    28   15   16 1
    29   15   45 1
    30   15   46 1
    31   16   17 1
    32   17   22 ar
    33   17   18 ar
    34   18   19 ar
    35   18   47 1
    36   19   20 ar
    37   19   48 1
    38   20   21 ar
    39   20   26 1
    40   21   25 1
    41   21   22 ar
    42   22   23 1
    43   23   24 1
    44   23   49 1
    45   23   50 1
    46   24   25 1
    47   24   51 1
    48   24   52 1
    49   25   53 1
    50   25   54 1
    51   26   27 1
    52   27   28 1
    53   27   55 1
    54   27   56 1
    55   28   29 2
    56   28   30 1
    57   31   32 1
    58   31   33 1
    59   31   34 1
@<TRIPOS>MOLECULE
CHEMBL391470
   59    61     0     0     0
SMALL
USER_CHARGES

@<TRIPOS>ATOM
      1 C1         -0.0022    1.4955    0.2721 C.3       1 <0>        -0.1500
      2 C2          0.0044   -0.0103    0.0011 C.3       1 <0>        -0.0791
      3 C3         -1.4106   -0.5289    0.0121 C.ar      1 <0>        -0.1237
      4 C4         -1.9729   -0.9726    1.1969 C.ar      1 <0>        -0.0542
      5 C5         -3.2695   -1.4497    1.2189 C.ar      1 <0>        -0.2126
      6 C6         -4.0158   -1.4871    0.0519 C.ar      1 <0>         0.1759
      7 C7         -3.4506   -1.0392   -1.1486 C.ar      1 <0>        -0.0540
      8 C8         -2.1418   -0.5542   -1.1568 C.ar      1 <0>        -0.0478
      9 C9         -4.2372   -1.0747   -2.3982 C.2       1 <0>         0.2342
     10 N1         -5.4748   -1.4969   -2.5134 N.2       1 <0>        -0.4463
     11 C10        -5.8509   -1.3781   -3.7963 C.2       1 <0>        -0.0387
     12 C11        -4.8136   -0.8689   -4.4845 C.2       1 <0>        -0.0784
     13 O1         -3.8079   -0.6745   -3.6078 O.3       1 <0>        -0.2024
     14 O2         -5.2898   -1.9566    0.0722 O.3       1 <0>        -0.2707
     15 C12        -5.8405   -2.2834    1.3497 C.3       1 <0>         0.0803
     16 H1         -5.4623   -1.5863    2.0975 H         1 <0>         0.0767
     17 C13        -5.4354   -3.7088    1.7303 C.3       1 <0>        -0.1779
     18 C14        -7.3662   -2.1862    1.2874 C.3       1 <0>        -0.1096
     19 C15        -7.7747   -0.7344    1.0299 C.3       1 <0>         0.0619
     20 O3         -9.1996   -0.6436    0.9717 O.3       1 <0>        -0.3182
     21 C16        -9.7308    0.5870    0.7478 C.ar      1 <0>         0.1164
     22 C17        -8.8974    1.6839    0.5817 C.ar      1 <0>        -0.2094
     23 C18        -9.4398    2.9336    0.3538 C.ar      1 <0>        -0.0793
     24 C19       -10.8121    3.0921    0.2911 C.ar      1 <0>        -0.1006
     25 C20       -11.6446    2.0009    0.4567 C.ar      1 <0>        -0.0465
     26 C21       -11.1069    0.7478    0.6792 C.ar      1 <0>        -0.1513
     27 C22       -13.1397    2.1773    0.3883 C.3       1 <0>        -0.1207
     28 C23       -11.4012    4.4567    0.0424 C.3       1 <0>        -0.0562
     29 C24       -11.7529    5.1119    1.3795 C.3       1 <0>        -0.1753
     30 C25       -12.3419    6.4765    1.1308 C.2       1 <0>         0.4892
     31 O4        -12.4687    6.8870   -0.0102 O.co2     1 <0>        -0.6986
     32 O5        -12.6917    7.1700    2.0705 O.co2     1 <0>        -0.7070
     33 H2          1.0212    1.8705    0.2641 H         1 <0>         0.0581
     34 H3         -0.5806    2.0013   -0.5010 H         1 <0>         0.0566
     35 H4         -0.4518    1.6873    1.2463 H         1 <0>         0.0565
     36 H5          0.4540   -0.2022   -0.9732 H         1 <0>         0.0718
     37 H6          0.5828   -0.5161    0.7741 H         1 <0>         0.0727
     38 H7         -1.3949   -0.9460    2.1088 H         1 <0>         0.1302
     39 H8         -3.7017   -1.7942    2.1468 H         1 <0>         0.1395
     40 H9         -1.7009   -0.2034   -2.0782 H         1 <0>         0.1355
     41 H10        -6.8151   -1.6442   -4.2036 H         1 <0>         0.1845
     42 H11        -4.7917   -0.6522   -5.5423 H         1 <0>         0.2162
     43 H12        -5.8136   -4.4059    0.9825 H         1 <0>         0.0713
     44 H13        -4.3485   -3.7781    1.7747 H         1 <0>         0.0649
     45 H14        -5.8555   -3.9581    2.7047 H         1 <0>         0.0750
     46 H15        -7.7377   -2.8169    0.4797 H         1 <0>         0.0886
     47 H16        -7.7905   -2.5206    2.2341 H         1 <0>         0.0927
     48 H17        -7.4031   -0.1037    1.8375 H         1 <0>         0.0553
     49 H18        -7.3503   -0.4000    0.0832 H         1 <0>         0.0705
     50 H19        -7.8256    1.5607    0.6310 H         1 <0>         0.1196
     51 H20        -8.7916    3.7878    0.2249 H         1 <0>         0.1222
     52 H21       -11.7575   -0.1052    0.8040 H         1 <0>         0.1248
     53 H22       -13.4742    2.0464   -0.6408 H         1 <0>         0.0710
     54 H23       -13.6225    1.4355    1.0244 H         1 <0>         0.0631
     55 H24       -13.4036    3.1776    0.7317 H         1 <0>         0.0807
     56 H25       -10.6751    5.0752   -0.4854 H         1 <0>         0.0672
     57 H26       -12.3027    4.3586   -0.5624 H         1 <0>         0.0718
     58 H27       -12.4789    4.4934    1.9073 H         1 <0>         0.0579
     59 H28       -10.8514    5.2100    1.9843 H         1 <0>         0.0554
@<TRIPOS>BOND
     1    1    2 1
     2    1   33 1
     3    1   34 1
     4    1   35 1
     5    2    3 1
     6    2   36 1
     7    2   37 1
     8    3    8 ar
     9    3    4 ar
    10    4    5 ar
    11    4   38 1
    12    5    6 ar
    13    5   39 1
    14    6    7 ar
    15    6   14 1
    16    7    8 ar
    17    7    9 1
    18    8   40 1
    19    9   13 1
    20    9   10 2
    21   10   11 1
    22   11   12 2
    23   11   41 1
    24   12   13 1
    25   12   42 1
    26   14   15 1
    27   15   16 1
    28   15   17 1
    29   15   18 1
    30   17   43 1
    31   17   44 1
    32   17   45 1
    33   18   19 1
    34   18   46 1
    35   18   47 1
    36   19   20 1
    37   19   48 1
    38   19   49 1
    39   20   21 1
    40   21   26 ar
    41   21   22 ar
    42   22   23 ar
    43   22   50 1
    44   23   24 ar
    45   23   51 1
    46   24   25 ar
    47   24   28 1
    48   25   26 ar
    49   25   27 1
    50   26   52 1
    51   27   53 1
    52   27   54 1
    53   27   55 1
    54   28   29 1
    55   28   56 1
    56   28   57 1
    57   29   30 1
    58   29   58 1
    59   29   59 1
    60   30   31 2
    61   30   32 1
@<TRIPOS>MOLECULE
CHEMBL230605
   59    61     0     0     0
SMALL
USER_CHARGES

@<TRIPOS>ATOM
      1 C1         -0.0184    1.5028    0.0103 C.3       1 <0>        -0.1054
      2 C2          0.0021   -0.0041    0.0020 C.ar      1 <0>        -0.1066
      3 C3          0.0057   -0.6878   -1.1980 C.ar      1 <0>        -0.0595
      4 C4          0.0246   -2.0766   -1.2053 C.ar      1 <0>        -0.1423
      5 C5          0.0397   -2.7765   -0.0051 C.ar      1 <0>        -0.0923
      6 C6          0.0360   -2.0909    1.1933 C.ar      1 <0>        -0.1969
      7 C7          0.0229   -0.7036    1.1994 C.ar      1 <0>         0.1416
      8 O1          0.0254   -0.0293    2.3804 O.3       1 <0>        -0.2748
      9 C8          0.0474   -0.8131    3.5751 C.3       1 <0>        -0.0083
     10 C9          0.0468    0.0992    4.7746 C.2       1 <0>         0.5015
     11 O2          0.0293    1.3085    4.6207 O.co2     1 <0>        -0.6695
     12 O3          0.0640   -0.3721    5.8989 O.co2     1 <0>        -0.6868
     13 S1          0.0286   -2.9502   -2.7355 S.3       1 <0>        -0.1121
     14 C10         0.0549   -4.6962   -2.2439 C.3       1 <0>        -0.1346
     15 C11         0.0605   -5.5780   -3.4943 C.3       1 <0>         0.1114
     16 C12        -0.0432   -7.0478   -3.0822 C.3       1 <0>         0.0646
     17 O4         -0.1552   -7.8632   -4.2503 O.3       1 <0>        -0.2977
     18 C13        -0.2570   -9.2048   -4.0588 C.ar      1 <0>         0.1685
     19 C14        -0.2550   -9.7252   -2.7728 C.ar      1 <0>        -0.2124
     20 C15        -0.3591  -11.0893   -2.5808 C.ar      1 <0>        -0.0264
     21 C16        -0.4648  -11.9357   -3.6690 C.ar      1 <0>        -0.2268
     22 C17        -0.4665  -11.4196   -4.9517 C.ar      1 <0>        -0.0299
     23 C18        -0.3689  -10.0558   -5.1488 C.ar      1 <0>        -0.1529
     24 C19        -0.5777  -13.4234   -3.4566 C.3       1 <0>         0.5123
     25 F1         -1.9266  -13.7776   -3.3459 F         1 <0>        -0.1778
     26 F2         -0.0071  -14.0943   -4.5436 F         1 <0>        -0.1783
     27 F3          0.0957  -13.7794   -2.2831 F         1 <0>        -0.1780
     28 O5          1.2752   -5.3707   -4.2179 O.3       1 <0>        -0.3598
     29 C20         1.2009   -4.3271   -5.1913 C.3       1 <0>         0.0947
     30 C21         2.5297   -4.1966   -5.8901 C.ar      1 <0>        -0.0873
     31 C22         3.4963   -3.3478   -5.3841 C.ar      1 <0>        -0.0934
     32 C23         4.7152   -3.2281   -6.0252 C.ar      1 <0>        -0.1241
     33 C24         4.9676   -3.9575   -7.1720 C.ar      1 <0>        -0.1147
     34 C25         4.0013   -4.8071   -7.6774 C.ar      1 <0>        -0.1265
     35 C26         2.7840   -4.9300   -7.0340 C.ar      1 <0>        -0.0985
     36 H1          1.0042    1.8801    0.0026 H         1 <0>         0.0685
     37 H2         -0.5455    1.8639   -0.8728 H         1 <0>         0.0608
     38 H3         -0.5286    1.8543    0.9071 H         1 <0>         0.0799
     39 H4         -0.0064   -0.1428   -2.1303 H         1 <0>         0.1288
     40 H5          0.0540   -3.8564   -0.0097 H         1 <0>         0.1179
     41 H6          0.0478   -2.6347    2.1263 H         1 <0>         0.1317
     42 H7         -0.8339   -1.4538    3.6055 H         1 <0>         0.0591
     43 H8          0.9458   -1.4302    3.5883 H         1 <0>         0.0593
     44 H9          0.9506   -4.8945   -1.6554 H         1 <0>         0.1006
     45 H10        -0.8291   -4.9187   -1.6464 H         1 <0>         0.1003
     46 H11        -0.7882   -5.3172   -4.1266 H         1 <0>         0.0855
     47 H12         0.8490   -7.3326   -2.5245 H         1 <0>         0.0810
     48 H13        -0.9238   -7.1882   -2.4553 H         1 <0>         0.0849
     49 H14        -0.1719   -9.0645   -1.9226 H         1 <0>         0.1408
     50 H15        -0.3577  -11.4949   -1.5799 H         1 <0>         0.1392
     51 H16        -0.5488  -12.0829   -5.8000 H         1 <0>         0.1425
     52 H17        -0.3747   -9.6527   -6.1508 H         1 <0>         0.1437
     53 H18         0.4281   -4.5660   -5.9219 H         1 <0>         0.0589
     54 H19         0.9561   -3.3866   -4.6977 H         1 <0>         0.0806
     55 H20         3.2991   -2.7779   -4.4882 H         1 <0>         0.1274
     56 H21         5.4701   -2.5644   -5.6303 H         1 <0>         0.1235
     57 H22         5.9196   -3.8635   -7.6732 H         1 <0>         0.1210
     58 H23         4.1984   -5.3767   -8.5736 H         1 <0>         0.1216
     59 H24         2.0305   -5.5965   -7.4268 H         1 <0>         0.1215
@<TRIPOS>BOND
     1    1    2 1
     2    1   36 1
     3    1   37 1
     4    1   38 1
     5    2    7 ar
     6    2    3 ar
     7    3    4 ar
     8    3   39 1
     9    4    5 ar
    10    4   13 1
    11    5    6 ar
    12    5   40 1
    13    6    7 ar
    14    6   41 1
    15    7    8 1
    16    8    9 1
    17    9   10 1
    18    9   42 1
    19    9   43 1
    20   10   11 2
    21   10   12 1
    22   13   14 1
    23   14   15 1
    24   14   44 1
    25   14   45 1
    26   15   16 1
    27   15   28 1
    28   15   46 1
    29   16   17 1
    30   16   47 1
    31   16   48 1
    32   17   18 1
    33   18   23 ar
    34   18   19 ar
    35   19   20 ar
    36   19   49 1
    37   20   21 ar
    38   20   50 1
    39   21   22 ar
    40   21   24 1
    41   22   23 ar
    42   22   51 1
    43   23   52 1
    44   24   25 1
    45   24   26 1
    46   24   27 1
    47   28   29 1
    48   29   30 1
    49   29   53 1
    50   29   54 1
    51   30   35 ar
    52   30   31 ar
    53   31   32 ar
    54   31   55 1
    55   32   33 ar
    56   32   56 1
    57   33   34 ar
    58   33   57 1
    59   34   35 ar
    60   34   58 1
    61   35   59 1
@<TRIPOS>MOLECULE
CHEMBL230605__1
   59    61     0     0     0
SMALL
USER_CHARGES

@<TRIPOS>ATOM
      1 C1         -0.0184    1.5028    0.0103 C.3       1 <0>        -0.1052
      2 C2          0.0021   -0.0041    0.0020 C.ar      1 <0>        -0.1058
      3 C3          0.0057   -0.6878   -1.1980 C.ar      1 <0>        -0.0598
      4 C4          0.0246   -2.0766   -1.2053 C.ar      1 <0>        -0.1382
      5 C5          0.0397   -2.7765   -0.0051 C.ar      1 <0>        -0.0948
      6 C6          0.0360   -2.0909    1.1933 C.ar      1 <0>        -0.1962
      7 C7          0.0229   -0.7036    1.1994 C.ar      1 <0>         0.1402
      8 O1          0.0254   -0.0293    2.3804 O.3       1 <0>        -0.2750
      9 C8          0.0474   -0.8131    3.5751 C.3       1 <0>        -0.0082
     10 C9          0.0468    0.0992    4.7746 C.2       1 <0>         0.5014
     11 O2          0.0293    1.3085    4.6207 O.co2     1 <0>        -0.6696
     12 O3          0.0640   -0.3721    5.8989 O.co2     1 <0>        -0.6872
     13 S1          0.0286   -2.9502   -2.7355 S.3       1 <0>        -0.0952
     14 C10         0.0549   -4.6962   -2.2439 C.3       1 <0>        -0.1106
     15 C11         0.0605   -5.5780   -3.4943 C.3       1 <0>         0.1134
     16 C12         0.0826   -7.0506   -3.0797 C.3       1 <0>         0.0366
     17 O4          0.2053   -7.8712   -4.2431 O.3       1 <0>        -0.3037
     18 C13         0.2401   -9.2158   -4.0489 C.ar      1 <0>         0.1665
     19 C14         0.1520   -9.7349   -2.7653 C.ar      1 <0>        -0.2102
     20 C15         0.1872  -11.1021   -2.5706 C.ar      1 <0>        -0.0266
     21 C16         0.3104  -11.9529   -3.6535 C.ar      1 <0>        -0.2256
     22 C17         0.3987  -11.4380   -4.9336 C.ar      1 <0>        -0.0300
     23 C18         0.3579  -10.0718   -5.1342 C.ar      1 <0>        -0.1537
     24 C19         0.3489  -13.4439   -3.4381 C.3       1 <0>         0.5121
     25 F1         -0.9526  -13.9552   -3.4817 F         1 <0>        -0.1775
     26 F2          1.1182  -14.0405   -4.4428 F         1 <0>        -0.1782
     27 F3          0.9169  -13.7202   -2.1898 F         1 <0>        -0.1779
     28 O5         -1.1139   -5.3179   -4.2658 O.3       1 <0>        -0.3571
     29 C20        -0.9403   -5.5097   -5.6712 C.3       1 <0>         0.1018
     30 C21        -2.2342   -5.2092   -6.3828 C.ar      1 <0>        -0.0890
     31 C22        -3.1596   -6.2153   -6.5887 C.ar      1 <0>        -0.0973
     32 C23        -4.3465   -5.9396   -7.2415 C.ar      1 <0>        -0.1259
     33 C24        -4.6083   -4.6578   -7.6880 C.ar      1 <0>        -0.1144
     34 C25        -3.6833   -3.6516   -7.4813 C.ar      1 <0>        -0.1235
     35 C26        -2.4982   -3.9263   -6.8248 C.ar      1 <0>        -0.0943
     36 H1          1.0042    1.8801    0.0026 H         1 <0>         0.0683
     37 H2         -0.5455    1.8639   -0.8728 H         1 <0>         0.0608
     38 H3         -0.5286    1.8543    0.9071 H         1 <0>         0.0798
     39 H4         -0.0064   -0.1428   -2.1303 H         1 <0>         0.1292
     40 H5          0.0540   -3.8564   -0.0097 H         1 <0>         0.1176
     41 H6          0.0478   -2.6347    2.1263 H         1 <0>         0.1315
     42 H7         -0.8339   -1.4538    3.6055 H         1 <0>         0.0591
     43 H8          0.9458   -1.4302    3.5883 H         1 <0>         0.0591
     44 H9          0.9506   -4.8945   -1.6554 H         1 <0>         0.1030
     45 H10        -0.8291   -4.9187   -1.6464 H         1 <0>         0.0986
     46 H11         0.9445   -5.3554   -4.0918 H         1 <0>         0.0849
     47 H12         0.9303   -7.2291   -2.4181 H         1 <0>         0.0798
     48 H13        -0.8429   -7.2952   -2.5584 H         1 <0>         0.0807
     49 H14         0.0565   -9.0707   -1.9191 H         1 <0>         0.1409
     50 H15         0.1187  -11.5067   -1.5716 H         1 <0>         0.1393
     51 H16         0.4952  -12.1047   -5.7778 H         1 <0>         0.1427
     52 H17         0.4225   -9.6703   -6.1347 H         1 <0>         0.1434
     53 H18        -0.1611   -4.8402   -6.0357 H         1 <0>         0.0585
     54 H19        -0.6510   -6.5428   -5.8639 H         1 <0>         0.0702
     55 H20        -2.9551   -7.2167   -6.2398 H         1 <0>         0.1207
     56 H21        -5.0692   -6.7258   -7.4029 H         1 <0>         0.1216
     57 H22        -5.5353   -4.4426   -8.1986 H         1 <0>         0.1213
     58 H23        -3.8876   -2.6502   -7.8305 H         1 <0>         0.1233
     59 H24        -1.7771   -3.1393   -6.6600 H         1 <0>         0.1245
@<TRIPOS>BOND
     1    1    2 1
     2    1   36 1
     3    1   37 1
     4    1   38 1
     5    2    7 ar
     6    2    3 ar
     7    3    4 ar
     8    3   39 1
     9    4    5 ar
    10    4   13 1
    11    5    6 ar
    12    5   40 1
    13    6    7 ar
    14    6   41 1
    15    7    8 1
    16    8    9 1
    17    9   10 1
    18    9   42 1
    19    9   43 1
    20   10   11 2
    21   10   12 1
    22   13   14 1
    23   14   15 1
    24   14   44 1
    25   14   45 1
    26   15   16 1
    27   15   28 1
    28   15   46 1
    29   16   17 1
    30   16   47 1
    31   16   48 1
    32   17   18 1
    33   18   23 ar
    34   18   19 ar
    35   19   20 ar
    36   19   49 1
    37   20   21 ar
    38   20   50 1
    39   21   22 ar
    40   21   24 1
    41   22   23 ar
    42   22   51 1
    43   23   52 1
    44   24   25 1
    45   24   26 1
    46   24   27 1
    47   28   29 1
    48   29   30 1
    49   29   53 1
    50   29   54 1
    51   30   35 ar
    52   30   31 ar
    53   31   32 ar
    54   31   55 1
    55   32   33 ar
    56   32   56 1
    57   33   34 ar
    58   33   57 1
    59   34   35 ar
    60   34   58 1
    61   35   59 1
@<TRIPOS>MOLECULE
CHEMBL241472
   62    64     0     0     0
SMALL
USER_CHARGES

@<TRIPOS>ATOM
      1 C1         -0.2525    1.4949   -0.1072 C.3       1 <0>        -0.1487
      2 C2          0.0020   -0.0097    0.0042 C.3       1 <0>        -0.0803
      3 C3          0.7074   -0.4931   -1.2367 C.ar      1 <0>        -0.1178
      4 C4         -0.0302   -0.9266   -2.3244 C.ar      1 <0>        -0.0717
      5 C5          0.6076   -1.3716   -3.4666 C.ar      1 <0>        -0.2051
      6 C6          1.9920   -1.3862   -3.5278 C.ar      1 <0>         0.1438
      7 C7          2.7398   -0.9488   -2.4306 C.ar      1 <0>        -0.0769
      8 C8          2.0866   -0.4965   -1.2863 C.ar      1 <0>        -0.0641
      9 C9          4.2220   -0.9608   -2.4867 C.ar      1 <0>        -0.0871
     10 C10         4.9556    0.1734   -2.1266 C.ar      1 <0>        -0.0657
     11 C11         6.3365    0.1113   -2.1963 C.ar      1 <0>        -0.1708
     12 C12         6.9409   -1.0600   -2.6160 C.ar      1 <0>         0.0970
     13 N1          6.2221   -2.1143   -2.9495 N.ar      1 <0>        -0.4838
     14 C13         4.9059   -2.1044   -2.8937 C.ar      1 <0>         0.1263
     15 O1          2.6202   -1.8242   -4.6498 O.3       1 <0>        -0.3013
     16 C14         1.7957   -2.1421   -5.7728 C.3       1 <0>         0.0853
     17 H1          0.9482   -1.4575   -5.8067 H         1 <0>         0.0776
     18 C15         1.2859   -3.5786   -5.6408 C.3       1 <0>        -0.1786
     19 C16         2.6123   -2.0070   -7.0595 C.3       1 <0>        -0.1131
     20 C17         3.0169   -0.5445   -7.2555 C.3       1 <0>         0.0624
     21 O2          3.7796   -0.4182   -8.4574 O.3       1 <0>        -0.3182
     22 C18         4.2201    0.8261   -8.7807 C.ar      1 <0>         0.1143
     23 C19         3.9291    1.9026   -7.9551 C.ar      1 <0>        -0.2098
     24 C20         4.3783    3.1662   -8.2857 C.ar      1 <0>        -0.0791
     25 C21         5.1175    3.3589   -9.4385 C.ar      1 <0>        -0.0995
     26 C22         5.4083    2.2880  -10.2630 C.ar      1 <0>        -0.0460
     27 C23         4.9662    1.0211   -9.9337 C.ar      1 <0>        -0.1503
     28 C24         6.2137    2.5017  -11.5187 C.3       1 <0>        -0.1211
     29 C25         5.6064    4.7386   -9.7968 C.3       1 <0>        -0.0564
     30 C26         4.6151    5.3972  -10.7584 C.3       1 <0>        -0.1754
     31 C27         5.1040    6.7769  -11.1167 C.2       1 <0>         0.4892
     32 O3          6.1484    7.1948  -10.6465 O.co2     1 <0>        -0.6984
     33 O4          4.4551    7.4753  -11.8767 O.co2     1 <0>        -0.7068
     34 H2          0.6983    2.0175   -0.2115 H         1 <0>         0.0559
     35 H3         -0.8744    1.6945   -0.9798 H         1 <0>         0.0558
     36 H4         -0.7627    1.8445    0.7903 H         1 <0>         0.0574
     37 H5          0.6239   -0.2094    0.8768 H         1 <0>         0.0705
     38 H6         -0.9489   -0.5323    0.1085 H         1 <0>         0.0708
     39 H7         -1.1092   -0.9174   -2.2803 H         1 <0>         0.1252
     40 H8          0.0267   -1.7087   -4.3124 H         1 <0>         0.1331
     41 H9          2.6589   -0.1533   -0.4372 H         1 <0>         0.1287
     42 H10         4.4575    1.0752   -1.8027 H         1 <0>         0.1335
     43 H11         6.9358    0.9682   -1.9262 H         1 <0>         0.1366
     44 H12         8.0182   -1.1118   -2.6719 H         1 <0>         0.1552
     45 H13         4.3518   -2.9892   -3.1704 H         1 <0>         0.1534
     46 H14         0.6570   -3.8211   -6.4974 H         1 <0>         0.0754
     47 H15         2.1334   -4.2633   -5.6069 H         1 <0>         0.0714
     48 H16         0.7041   -3.6749   -4.7241 H         1 <0>         0.0661
     49 H17         3.5072   -2.6252   -6.9886 H         1 <0>         0.0874
     50 H18         2.0109   -2.3343   -7.9076 H         1 <0>         0.0951
     51 H19         2.1220    0.0737   -7.3265 H         1 <0>         0.0575
     52 H20         3.6184   -0.2171   -6.4075 H         1 <0>         0.0652
     53 H21         3.3516    1.7527   -7.0549 H         1 <0>         0.1193
     54 H22         4.1518    4.0045   -7.6436 H         1 <0>         0.1227
     55 H23         5.1974    0.1841  -10.5759 H         1 <0>         0.1252
     56 H24         7.2739    2.3830  -11.2950 H         1 <0>         0.0715
     57 H25         5.9167    1.7697  -12.2698 H         1 <0>         0.0633
     58 H26         6.0330    3.5068  -11.8996 H         1 <0>         0.0811
     59 H27         5.6897    5.3409   -8.8921 H         1 <0>         0.0676
     60 H28         6.5828    4.6652  -10.2756 H         1 <0>         0.0722
     61 H29         4.5318    4.7949  -11.6630 H         1 <0>         0.0579
     62 H30         3.6387    5.4706  -10.2796 H         1 <0>         0.0553
@<TRIPOS>BOND
     1    1    2 1
     2    1   34 1
     3    1   35 1
     4    1   36 1
     5    2    3 1
     6    2   37 1
     7    2   38 1
     8    3    8 ar
     9    3    4 ar
    10    4    5 ar
    11    4   39 1
    12    5    6 ar
    13    5   40 1
    14    6    7 ar
    15    6   15 1
    16    7    8 ar
    17    7    9 1
    18    8   41 1
    19    9   14 ar
    20    9   10 ar
    21   10   11 ar
    22   10   42 1
    23   11   12 ar
    24   11   43 1
    25   12   13 ar
    26   12   44 1
    27   13   14 ar
    28   14   45 1
    29   15   16 1
    30   16   17 1
    31   16   18 1
    32   16   19 1
    33   18   46 1
    34   18   47 1
    35   18   48 1
    36   19   20 1
    37   19   49 1
    38   19   50 1
    39   20   21 1
    40   20   51 1
    41   20   52 1
    42   21   22 1
    43   22   27 ar
    44   22   23 ar
    45   23   24 ar
    46   23   53 1
    47   24   25 ar
    48   24   54 1
    49   25   26 ar
    50   25   29 1
    51   26   27 ar
    52   26   28 1
    53   27   55 1
    54   28   56 1
    55   28   57 1
    56   28   58 1
    57   29   30 1
    58   29   59 1
    59   29   60 1
    60   30   31 1
    61   30   61 1
    62   30   62 1
    63   31   32 2
    64   31   33 1
@<TRIPOS>MOLECULE
CHEMBL1075895
   66    70     0     0     0
SMALL
USER_CHARGES

@<TRIPOS>ATOM
      1 C1          0.0729    1.9199   -0.6350 C.3       1 <0>        -0.1057
      2 C2          0.1607    0.4209   -0.5067 C.ar      1 <0>        -0.0850
      3 C3          0.0965   -0.3738   -1.6350 C.ar      1 <0>        -0.1069
      4 C4          0.1778   -1.7532   -1.5170 C.ar      1 <0>         0.0748
      5 C5          0.3236   -2.3350   -0.2662 C.ar      1 <0>        -0.1689
      6 C6          0.3878   -1.5405    0.8617 C.ar      1 <0>        -0.1754
      7 C7          0.3118   -0.1604    0.7432 C.ar      1 <0>         0.1116
      8 O1          0.3807    0.6221    1.8532 O.3       1 <0>        -0.2771
      9 C8          0.5364   -0.0439    3.1078 C.3       1 <0>        -0.0072
     10 C9          0.5930    0.9770    4.2149 C.2       1 <0>         0.5012
     11 O2          0.5079    2.1649    3.9536 O.co2     1 <0>        -0.6704
     12 O3          0.7240    0.6152    5.3718 O.co2     1 <0>        -0.6882
     13 O4          0.1141   -2.5355   -2.6275 O.3       1 <0>        -0.3118
     14 C10         0.2044   -3.9481   -2.4319 C.3       1 <0>         0.1589
     15 C11         0.1157   -4.6464   -3.7644 C.2       1 <0>         0.2076
     16 N1          1.1295   -4.9451   -4.5238 N.2       1 <0>        -0.4432
     17 C12         0.6767   -5.5636   -5.6348 C.2       1 <0>         0.0692
     18 C13        -0.6969   -5.6356   -5.5255 C.2       1 <0>         0.0115
     19 O5         -1.0185   -5.0598   -4.3459 O.3       1 <0>        -0.1770
     20 C14        -1.6304   -6.2292   -6.5019 C.ar      1 <0>        -0.0373
     21 C15        -1.3698   -7.4908   -7.0430 C.ar      1 <0>        -0.0491
     22 C16        -2.2446   -8.0413   -7.9547 C.ar      1 <0>        -0.1178
     23 C17        -3.3836   -7.3442   -8.3357 C.ar      1 <0>         0.1221
     24 C18        -3.6465   -6.0898   -7.8009 C.ar      1 <0>        -0.1878
     25 C19        -2.7806   -5.5340   -6.8838 C.ar      1 <0>        -0.0463
     26 O6         -4.2433   -7.8909   -9.2349 O.3       1 <0>        -0.3083
     27 C20        -5.3952   -7.1200   -9.5827 C.3       1 <0>         0.6039
     28 F1         -4.9906   -5.9029  -10.1414 F         1 <0>        -0.1624
     29 F2         -6.1659   -7.8266  -10.5122 F         1 <0>        -0.1291
     30 F3         -6.1569   -6.8759   -8.4349 F         1 <0>        -0.1625
     31 C21         1.4989   -6.0687   -6.7592 C.ar      1 <0>        -0.1860
     32 C22         1.0967   -5.8765   -8.0845 C.ar      1 <0>         0.2225
     33 N2          1.8574   -6.3420   -9.0594 N.ar      1 <0>        -0.5632
     34 C23         2.9866   -6.9828   -8.7940 C.ar      1 <0>         0.5712
     35 N3          3.4015   -7.1848   -7.5517 N.ar      1 <0>        -0.5662
     36 C24         2.6997   -6.7447   -6.5224 C.ar      1 <0>         0.2313
     37 N4          3.7545   -7.4552   -9.8445 N.pl3     1 <0>        -0.5844
     38 C25         3.3368   -7.2496  -11.2405 C.3       1 <0>         0.0916
     39 C26         4.5182   -6.6556  -12.0161 C.3       1 <0>         0.0464
     40 O7          5.6733   -7.4730  -11.8129 O.3       1 <0>        -0.3801
     41 C27         6.1125   -7.5382  -10.4539 C.3       1 <0>         0.0464
     42 C28         5.0156   -8.1724   -9.5984 C.3       1 <0>         0.0913
     43 H1          1.0732    2.3326   -0.7655 H         1 <0>         0.0698
     44 H2         -0.5411    2.1753   -1.4986 H         1 <0>         0.0614
     45 H3         -0.3771    2.3359    0.2665 H         1 <0>         0.0811
     46 H4         -0.0174    0.0791   -2.6088 H         1 <0>         0.1330
     47 H5          0.3866   -3.4092   -0.1743 H         1 <0>         0.1259
     48 H6          0.5006   -1.9935    1.8356 H         1 <0>         0.1330
     49 H7         -0.3093   -0.7116    3.2722 H         1 <0>         0.0581
     50 H8          1.4600   -0.6227    3.0998 H         1 <0>         0.0584
     51 H9          1.1558   -4.1893   -1.9580 H         1 <0>         0.1093
     52 H10        -0.6142   -4.2795   -1.7929 H         1 <0>         0.0940
     53 H11        -0.4840   -8.0335   -6.7476 H         1 <0>         0.1407
     54 H12        -2.0438   -9.0162   -8.3738 H         1 <0>         0.1469
     55 H13        -4.5332   -5.5510   -8.1006 H         1 <0>         0.1420
     56 H14        -2.9883   -4.5605   -6.4648 H         1 <0>         0.1428
     57 H15         0.1775   -5.3554   -8.3081 H         1 <0>         0.1660
     58 H16         3.0463   -6.9085   -5.5127 H         1 <0>         0.1737
     59 H17         3.0502   -8.2039  -11.6823 H         1 <0>         0.0757
     60 H18         2.4926   -6.5609  -11.2734 H         1 <0>         0.1087
     61 H19         4.2770   -6.6238  -13.0786 H         1 <0>         0.1087
     62 H20         4.7187   -5.6461  -11.6571 H         1 <0>         0.0561
     63 H21         7.0183   -8.1413  -10.3925 H         1 <0>         0.1094
     64 H22         6.3188   -6.5319  -10.0893 H         1 <0>         0.0560
     65 H23         5.2826   -8.0946   -8.5445 H         1 <0>         0.1094
     66 H24         4.9009   -9.2212   -9.8721 H         1 <0>         0.0754
@<TRIPOS>BOND
     1    1    2 1
     2    1   43 1
     3    1   44 1
     4    1   45 1
     5    2    7 ar
     6    2    3 ar
     7    3    4 ar
     8    3   46 1
     9    4    5 ar
    10    4   13 1
    11    5    6 ar
    12    5   47 1
    13    6    7 ar
    14    6   48 1
    15    7    8 1
    16    8    9 1
    17    9   10 1
    18    9   49 1
    19    9   50 1
    20   10   11 2
    21   10   12 1
    22   13   14 1
    23   14   15 1
    24   14   51 1
    25   14   52 1
    26   15   19 1
    27   15   16 2
    28   16   17 1
    29   17   18 2
    30   17   31 1
    31   18   19 1
    32   18   20 1
    33   20   25 ar
    34   20   21 ar
    35   21   22 ar
    36   21   53 1
    37   22   23 ar
    38   22   54 1
    39   23   24 ar
    40   23   26 1
    41   24   25 ar
    42   24   55 1
    43   25   56 1
    44   26   27 1
    45   27   28 1
    46   27   29 1
    47   27   30 1
    48   31   36 ar
    49   31   32 ar
    50   32   33 ar
    51   32   57 1
    52   33   34 ar
    53   34   35 ar
    54   34   37 1
    55   35   36 ar
    56   36   58 1
    57   37   42 1
    58   37   38 1
    59   38   39 1
    60   38   59 1
    61   38   60 1
    62   39   40 1
    63   39   61 1
    64   39   62 1
    65   40   41 1
    66   41   42 1
    67   41   63 1
    68   41   64 1
    69   42   65 1
    70   42   66 1
@<TRIPOS>MOLECULE
CHEMBL234659
   56    58     0     0     0
SMALL
USER_CHARGES

@<TRIPOS>ATOM
      1 C1         -0.0184    1.5028    0.0103 C.3       1 <0>        -0.1000
      2 C2          0.0021   -0.0041    0.0020 C.ar      1 <0>        -0.1413
      3 C3          0.0057   -0.6876   -1.1997 C.ar      1 <0>        -0.0588
      4 C4          0.0240   -2.0744   -1.2093 C.ar      1 <0>        -0.1703
      5 C5          0.0393   -2.7778   -0.0062 C.ar      1 <0>         0.1821
      6 C6          0.0360   -2.0900    1.1952 C.ar      1 <0>        -0.2860
      7 C7          0.0229   -0.7026    1.1996 C.ar      1 <0>         0.1773
      8 O1          0.0249   -0.0270    2.3799 O.3       1 <0>        -0.2712
      9 C8          0.0469   -0.8097    3.5753 C.3       1 <0>        -0.0088
     10 C9          0.0458    0.1038    4.7739 C.2       1 <0>         0.5020
     11 O2          0.0279    1.3129    4.6188 O.co2     1 <0>        -0.6689
     12 O3          0.0629   -0.3664    5.8987 O.co2     1 <0>        -0.6865
     13 O4          0.0568   -4.1377   -0.0124 O.3       1 <0>        -0.3079
     14 C10         0.0718   -4.7921    1.2579 C.3       1 <0>         0.0255
     15 S1          0.0275   -2.9460   -2.7407 S.3       1 <0>        -0.0938
     16 C11         0.0035   -1.6335   -3.9926 C.3       1 <0>        -0.0707
     17 C12         0.0044   -2.2507   -5.3675 C.ar      1 <0>        -0.1038
     18 C13         1.2028   -2.5226   -6.0011 C.ar      1 <0>        -0.0594
     19 C14         1.2064   -3.0879   -7.2616 C.ar      1 <0>        -0.1484
     20 C15         0.0061   -3.3831   -7.8915 C.ar      1 <0>         0.1307
     21 C16        -1.1951   -3.1097   -7.2534 C.ar      1 <0>        -0.2080
     22 C17        -1.1932   -2.5492   -5.9908 C.ar      1 <0>        -0.0588
     23 O5          0.0069   -3.9389   -9.1316 O.3       1 <0>        -0.3079
     24 C18        -1.2659   -4.2160   -9.7192 C.3       1 <0>         0.0961
     25 C19        -1.0676   -4.8250  -11.0833 C.ar      1 <0>        -0.0623
     26 C20        -0.9828   -4.0116  -12.1978 C.ar      1 <0>        -0.0952
     27 C21        -0.8008   -4.5703  -13.4490 C.ar      1 <0>        -0.0728
     28 C22        -0.7032   -5.9424  -13.5858 C.ar      1 <0>        -0.1746
     29 C23        -0.7871   -6.7558  -12.4712 C.ar      1 <0>        -0.0725
     30 C24        -0.9648   -6.1968  -11.2194 C.ar      1 <0>        -0.0949
     31 C25        -0.5059   -6.5516  -14.9499 C.3       1 <0>         0.5080
     32 F1          0.8628   -6.6625  -15.2176 F         1 <0>        -0.1749
     33 F2         -1.0919   -7.8215  -14.9828 F         1 <0>        -0.1761
     34 F3         -1.1054   -5.7363  -15.9159 F         1 <0>        -0.1763
     35 H1          1.0042    1.8801    0.0026 H         1 <0>         0.0653
     36 H2         -0.5455    1.8639   -0.8728 H         1 <0>         0.0575
     37 H3         -0.5286    1.8543    0.9071 H         1 <0>         0.0782
     38 H4         -0.0061   -0.1415   -2.1314 H         1 <0>         0.1307
     39 H5          0.0478   -2.6330    2.1287 H         1 <0>         0.1394
     40 H6         -0.8342   -1.4507    3.6062 H         1 <0>         0.0590
     41 H7          0.9455   -1.4264    3.5893 H         1 <0>         0.0591
     42 H8          0.0850   -5.8720    1.1101 H         1 <0>         0.1001
     43 H9          0.9607   -4.4903    1.8117 H         1 <0>         0.0569
     44 H10        -0.8190   -4.5133    1.8208 H         1 <0>         0.0567
     45 H11        -0.8940   -1.0278   -3.8669 H         1 <0>         0.0933
     46 H12         0.8858   -1.0042   -3.8763 H         1 <0>         0.0941
     47 H13         2.1370   -2.2926   -5.5103 H         1 <0>         0.1338
     48 H14         2.1427   -3.2995   -7.7564 H         1 <0>         0.1327
     49 H15        -2.1308   -3.3386   -7.7417 H         1 <0>         0.1291
     50 H16        -2.1279   -2.3402   -5.4918 H         1 <0>         0.1293
     51 H17        -1.8143   -4.9135   -9.0861 H         1 <0>         0.0779
     52 H18        -1.8319   -3.2892   -9.8139 H         1 <0>         0.0774
     53 H19        -1.0590   -2.9396  -12.0910 H         1 <0>         0.1387
     54 H20        -0.7353   -3.9349  -14.3198 H         1 <0>         0.1398
     55 H21        -0.7112   -7.8278  -12.5780 H         1 <0>         0.1400
     56 H22        -1.0266   -6.8321  -10.3482 H         1 <0>         0.1392
@<TRIPOS>BOND
     1    1    2 1
     2    1   35 1
     3    1   36 1
     4    1   37 1
     5    2    7 ar
     6    2    3 ar
     7    3    4 ar
     8    3   38 1
     9    4    5 ar
    10    4   15 1
    11    5    6 ar
    12    5   13 1
    13    6    7 ar
    14    6   39 1
    15    7    8 1
    16    8    9 1
    17    9   10 1
    18    9   40 1
    19    9   41 1
    20   10   11 2
    21   10   12 1
    22   13   14 1
    23   14   42 1
    24   14   43 1
    25   14   44 1
    26   15   16 1
    27   16   17 1
    28   16   45 1
    29   16   46 1
    30   17   22 ar
    31   17   18 ar
    32   18   19 ar
    33   18   47 1
    34   19   20 ar
    35   19   48 1
    36   20   21 ar
    37   20   23 1
    38   21   22 ar
    39   21   49 1
    40   22   50 1
    41   23   24 1
    42   24   25 1
    43   24   51 1
    44   24   52 1
    45   25   30 ar
    46   25   26 ar
    47   26   27 ar
    48   26   53 1
    49   27   28 ar
    50   27   54 1
    51   28   29 ar
    52   28   31 1
    53   29   30 ar
    54   29   55 1
    55   30   56 1
    56   31   32 1
    57   31   33 1
    58   31   34 1
@<TRIPOS>MOLECULE
CHEMBL241286
   59    61     0     0     0
SMALL
USER_CHARGES

@<TRIPOS>ATOM
      1 C1         -0.2532    1.4935   -0.1066 C.3       1 <0>        -0.1491
      2 C2          0.0020   -0.0110    0.0047 C.3       1 <0>        -0.0783
      3 C3          0.7074   -0.4940   -1.2363 C.ar      1 <0>        -0.1234
      4 C4         -0.0300   -0.9278   -2.3238 C.ar      1 <0>        -0.0671
      5 C5          0.6081   -1.3730   -3.4663 C.ar      1 <0>        -0.2144
      6 C6          1.9920   -1.3869   -3.5276 C.ar      1 <0>         0.1608
      7 C7          2.7399   -0.9488   -2.4307 C.ar      1 <0>        -0.0582
      8 C8          2.0869   -0.4968   -1.2864 C.ar      1 <0>        -0.0613
      9 C9          4.2221   -0.9601   -2.4873 C.2       1 <0>         0.1135
     10 C10         4.9867   -0.5435   -1.4307 C.2       1 <0>        -0.2308
     11 S1          6.6263   -0.7900   -2.0930 S.3       1 <0>         0.0967
     12 C11         6.1829   -1.3815   -3.6046 C.2       1 <0>         0.0368
     13 N1          4.8759   -1.3792   -3.5613 N.2       1 <0>        -0.4800
     14 O1          2.6204   -1.8253   -4.6499 O.3       1 <0>        -0.2666
     15 C12         1.7958   -2.1436   -5.7727 C.3       1 <0>         0.0791
     16 H1          0.9483   -1.4590   -5.8069 H         1 <0>         0.0734
     17 C13         1.2860   -3.5800   -5.6402 C.3       1 <0>        -0.1765
     18 C14         2.6123   -2.0089   -7.0596 C.3       1 <0>        -0.1080
     19 C15         3.0170   -0.5465   -7.2562 C.3       1 <0>         0.0631
     20 O2          3.7796   -0.4207   -8.4581 O.3       1 <0>        -0.3187
     21 C16         4.2200    0.8235   -8.7819 C.ar      1 <0>         0.1160
     22 C17         3.9291    1.9003   -7.9567 C.ar      1 <0>        -0.2094
     23 C18         4.3783    3.1638   -8.2878 C.ar      1 <0>        -0.0791
     24 C19         5.1174    3.3560   -9.4407 C.ar      1 <0>        -0.1003
     25 C20         5.4082    2.2849  -10.2648 C.ar      1 <0>        -0.0464
     26 C21         4.9661    1.0181   -9.9351 C.ar      1 <0>        -0.1514
     27 C22         6.2135    2.4980  -11.5207 C.3       1 <0>        -0.1207
     28 C23         5.6063    4.7356   -9.7995 C.3       1 <0>        -0.0562
     29 C24         4.6150    5.3938  -10.7613 C.3       1 <0>        -0.1754
     30 C25         5.1038    6.7734  -11.1202 C.2       1 <0>         0.4892
     31 O3          6.1483    7.1915  -10.6502 O.co2     1 <0>        -0.6986
     32 O4          4.4549    7.4715  -11.8805 O.co2     1 <0>        -0.7069
     33 H2          0.6974    2.0165   -0.2111 H         1 <0>         0.0561
     34 H3         -0.8754    1.6929   -0.9791 H         1 <0>         0.0557
     35 H4         -0.7634    1.8429    0.7910 H         1 <0>         0.0569
     36 H5          0.6243   -0.2103    0.8772 H         1 <0>         0.0700
     37 H6         -0.9485   -0.5340    0.1092 H         1 <0>         0.0704
     38 H7         -1.1090   -0.9188   -2.2796 H         1 <0>         0.1248
     39 H8          0.0273   -1.7108   -4.3118 H         1 <0>         0.1326
     40 H9          2.6593   -0.1534   -0.4374 H         1 <0>         0.1291
     41 H10         4.6824   -0.1689   -0.4645 H         1 <0>         0.1945
     42 H11         6.8246   -1.6923   -4.4157 H         1 <0>         0.2171
     43 H12         0.6570   -3.8228   -6.4967 H         1 <0>         0.0727
     44 H13         2.1335   -4.2647   -5.6061 H         1 <0>         0.0696
     45 H14         0.7043   -3.6760   -4.7234 H         1 <0>         0.0638
     46 H15         3.5073   -2.6271   -6.9884 H         1 <0>         0.0867
     47 H16         2.0109   -2.3366   -7.9075 H         1 <0>         0.0906
     48 H17         2.1220    0.0717   -7.3273 H         1 <0>         0.0545
     49 H18         3.6184   -0.2188   -6.4083 H         1 <0>         0.0700
     50 H19         3.3516    1.7507   -7.0564 H         1 <0>         0.1193
     51 H20         4.1518    4.0023   -7.6460 H         1 <0>         0.1221
     52 H21         5.1973    0.1808  -10.5769 H         1 <0>         0.1247
     53 H22         7.2737    2.3795  -11.2970 H         1 <0>         0.0711
     54 H23         5.9165    1.7657  -12.2714 H         1 <0>         0.0631
     55 H24         6.0328    3.5030  -11.9019 H         1 <0>         0.0808
     56 H25         5.6896    5.3382   -8.8951 H         1 <0>         0.0673
     57 H26         6.5827    4.6620  -10.2783 H         1 <0>         0.0719
     58 H27         4.5316    4.7912  -11.6658 H         1 <0>         0.0579
     59 H28         3.6386    5.4675  -10.2825 H         1 <0>         0.0553
@<TRIPOS>BOND
     1    1    2 1
     2    1   33 1
     3    1   34 1
     4    1   35 1
     5    2    3 1
     6    2   36 1
     7    2   37 1
     8    3    8 ar
     9    3    4 ar
    10    4    5 ar
    11    4   38 1
    12    5    6 ar
    13    5   39 1
    14    6    7 ar
    15    6   14 1
    16    7    8 ar
    17    7    9 1
    18    8   40 1
    19    9   13 1
    20    9   10 2
    21   10   11 1
    22   10   41 1
    23   11   12 1
    24   12   13 2
    25   12   42 1
    26   14   15 1
    27   15   16 1
    28   15   17 1
    29   15   18 1
    30   17   43 1
    31   17   44 1
    32   17   45 1
    33   18   19 1
    34   18   46 1
    35   18   47 1
    36   19   20 1
    37   19   48 1
    38   19   49 1
    39   20   21 1
    40   21   26 ar
    41   21   22 ar
    42   22   23 ar
    43   22   50 1
    44   23   24 ar
    45   23   51 1
    46   24   25 ar
    47   24   28 1
    48   25   26 ar
    49   25   27 1
    50   26   52 1
    51   27   53 1
    52   27   54 1
    53   27   55 1
    54   28   29 1
    55   28   56 1
    56   28   57 1
    57   29   30 1
    58   29   58 1
    59   29   59 1
    60   30   31 2
    61   30   32 1
@<TRIPOS>MOLECULE
CHEMBL1080699
   64    67     0     0     0
SMALL
USER_CHARGES

@<TRIPOS>ATOM
      1 C1          0.2300    1.8783   -0.5686 C.3       1 <0>        -0.1056
      2 C2          0.3072    0.3775   -0.4569 C.ar      1 <0>        -0.0849
      3 C3          0.2103   -0.4055   -1.5910 C.ar      1 <0>        -0.1069
      4 C4          0.2819   -1.7866   -1.4882 C.ar      1 <0>         0.0748
      5 C5          0.4509   -2.3819   -0.2467 C.ar      1 <0>        -0.1690
      6 C6          0.5477   -1.5992    0.8870 C.ar      1 <0>        -0.1754
      7 C7          0.4814   -0.2174    0.7836 C.ar      1 <0>         0.1116
      8 O1          0.5824    0.5535    1.8992 O.3       1 <0>        -0.2771
      9 C8          0.7606   -0.1262    3.1435 C.3       1 <0>        -0.0073
     10 C9          0.8515    0.8833    4.2588 C.2       1 <0>         0.5013
     11 O2          0.7711    2.0743    4.0110 O.co2     1 <0>        -0.6703
     12 O3          1.0054    0.5089    5.4089 O.co2     1 <0>        -0.6883
     13 O4          0.1861   -2.5573   -2.6044 O.3       1 <0>        -0.3118
     14 C10         0.2681   -3.9726   -2.4246 C.3       1 <0>         0.1591
     15 C11         0.1430   -4.6569   -3.7615 C.2       1 <0>         0.2067
     16 N1          1.1365   -4.9569   -4.5465 N.2       1 <0>        -0.4418
     17 C12         0.6531   -5.5598   -5.6533 C.2       1 <0>         0.0598
     18 C13        -0.7184   -5.6203   -5.5135 C.2       1 <0>         0.0133
     19 O5         -1.0079   -5.0547   -4.3210 O.3       1 <0>        -0.1776
     20 C14        -1.6792   -6.1953   -6.4745 C.ar      1 <0>        -0.0368
     21 C15        -1.4488   -7.4587   -7.0250 C.ar      1 <0>        -0.0471
     22 C16        -2.3490   -7.9917   -7.9222 C.ar      1 <0>        -0.1190
     23 C17        -3.4838   -7.2752   -8.2793 C.ar      1 <0>         0.1212
     24 C18        -3.7170   -6.0191   -7.7347 C.ar      1 <0>        -0.1887
     25 C19        -2.8252   -5.4805   -6.8323 C.ar      1 <0>        -0.0469
     26 O6         -4.3684   -7.8045   -9.1646 O.3       1 <0>        -0.3082
     27 C20        -5.5142   -7.0141   -9.4880 C.3       1 <0>         0.6038
     28 F1         -5.1008   -5.8012  -10.0492 F         1 <0>        -0.1627
     29 F2         -6.3130   -7.7045  -10.4059 F         1 <0>        -0.1291
     30 F3         -6.2506   -6.7630   -8.3253 F         1 <0>        -0.1626
     31 C21         1.4448   -6.0609   -6.8009 C.ar      1 <0>        -0.1066
     32 C22         1.0036   -5.8526   -8.1133 C.ar      1 <0>        -0.0171
     33 C23         1.7763   -6.3381   -9.1503 C.ar      1 <0>        -0.1884
     34 C24         2.9570   -7.0120   -8.8599 C.ar      1 <0>         0.3331
     35 N2          3.3465   -7.1925   -7.6087 N.ar      1 <0>        -0.5371
     36 C25         2.6420   -6.7411   -6.5902 C.ar      1 <0>         0.1782
     37 O7          3.7202   -7.4917   -9.8739 O.3       1 <0>        -0.2999
     38 C26         4.9223   -8.1755   -9.5138 C.3       1 <0>         0.0801
     39 C27         4.6281   -9.6668   -9.3396 C.3       1 <0>        -0.1682
     40 C28         5.9661   -7.9870  -10.6164 C.3       1 <0>        -0.1516
     41 H1          1.2308    2.2836   -0.7179 H         1 <0>         0.0699
     42 H2         -0.4011    2.1476   -1.4156 H         1 <0>         0.0614
     43 H3         -0.1957    2.2894    0.3468 H         1 <0>         0.0811
     44 H4          0.0785    0.0579   -2.5575 H         1 <0>         0.1329
     45 H5          0.5063   -3.4575   -0.1667 H         1 <0>         0.1259
     46 H6          0.6785   -2.0627    1.8537 H         1 <0>         0.1330
     47 H7         -0.0871   -0.7880    3.3207 H         1 <0>         0.0581
     48 H8          1.6786   -0.7129    3.1089 H         1 <0>         0.0584
     49 H9          1.2279   -4.2267   -1.9748 H         1 <0>         0.1095
     50 H10        -0.5387   -4.3031   -1.7704 H         1 <0>         0.0940
     51 H11        -0.5664   -8.0165   -6.7481 H         1 <0>         0.1429
     52 H12        -2.1716   -8.9680   -8.3485 H         1 <0>         0.1482
     53 H13        -4.6008   -5.4654   -8.0153 H         1 <0>         0.1417
     54 H14        -3.0096   -4.5055   -6.4059 H         1 <0>         0.1420
     55 H15         0.0816   -5.3257   -8.3101 H         1 <0>         0.1411
     56 H16         1.4665   -6.1960  -10.1752 H         1 <0>         0.1460
     57 H17         2.9945   -6.9036   -5.5823 H         1 <0>         0.1653
     58 H18         5.3050   -7.7689   -8.5777 H         1 <0>         0.0914
     59 H19         4.2453  -10.0734  -10.2756 H         1 <0>         0.0612
     60 H20         5.5449  -10.1883   -9.0648 H         1 <0>         0.0715
     61 H21         3.8844   -9.8011   -8.5541 H         1 <0>         0.0612
     62 H22         6.1757   -6.9246  -10.7405 H         1 <0>         0.0635
     63 H23         6.8830   -8.5085  -10.3417 H         1 <0>         0.0777
     64 H24         5.5834   -8.3936  -11.5525 H         1 <0>         0.0650
@<TRIPOS>BOND
     1    1    2 1
     2    1   41 1
     3    1   42 1
     4    1   43 1
     5    2    7 ar
     6    2    3 ar
     7    3    4 ar
     8    3   44 1
     9    4    5 ar
    10    4   13 1
    11    5    6 ar
    12    5   45 1
    13    6    7 ar
    14    6   46 1
    15    7    8 1
    16    8    9 1
    17    9   10 1
    18    9   47 1
    19    9   48 1
    20   10   11 2
    21   10   12 1
    22   13   14 1
    23   14   15 1
    24   14   49 1
    25   14   50 1
    26   15   19 1
    27   15   16 2
    28   16   17 1
    29   17   18 2
    30   17   31 1
    31   18   19 1
    32   18   20 1
    33   20   25 ar
    34   20   21 ar
    35   21   22 ar
    36   21   51 1
    37   22   23 ar
    38   22   52 1
    39   23   24 ar
    40   23   26 1
    41   24   25 ar
    42   24   53 1
    43   25   54 1
    44   26   27 1
    45   27   28 1
    46   27   29 1
    47   27   30 1
    48   31   36 ar
    49   31   32 ar
    50   32   33 ar
    51   32   55 1
    52   33   34 ar
    53   33   56 1
    54   34   35 ar
    55   34   37 1
    56   35   36 ar
    57   36   57 1
    58   37   38 1
    59   38   39 1
    60   38   40 1
    61   38   58 1
    62   39   59 1
    63   39   60 1
    64   39   61 1
    65   40   62 1
    66   40   63 1
    67   40   64 1
@<TRIPOS>MOLECULE
CHEMBL232395
   57    60     0     0     0
SMALL
USER_CHARGES

@<TRIPOS>ATOM
      1 C1         -0.0167    1.3781    0.0096 C.ar      1 <0>        -0.0949
      2 C2          1.1709    2.0855    0.0021 C.ar      1 <0>        -0.0724
      3 C3          2.3773    1.4107   -0.0130 C.ar      1 <0>        -0.1747
      4 C4          2.3960    0.0285   -0.0201 C.ar      1 <0>        -0.0727
      5 C5          1.2085   -0.6789   -0.0117 C.ar      1 <0>        -0.0954
      6 C6          0.0021   -0.0041    0.0020 C.ar      1 <0>        -0.0622
      7 C7         -1.2926   -0.7753    0.0107 C.3       1 <0>         0.0961
      8 O1         -1.7152   -1.0118   -1.3338 O.3       1 <0>        -0.3079
      9 C8         -2.8744   -1.7003   -1.5041 C.ar      1 <0>         0.1305
     10 C9         -3.5935   -2.1342   -0.3998 C.ar      1 <0>        -0.2077
     11 C10        -4.7718   -2.8335   -0.5756 C.ar      1 <0>        -0.0589
     12 C11        -5.2345   -3.1014   -1.8507 C.ar      1 <0>        -0.1034
     13 C12        -4.5195   -2.6704   -2.9529 C.ar      1 <0>        -0.0597
     14 C13        -3.3437   -1.9654   -2.7824 C.ar      1 <0>        -0.1483
     15 C14        -6.5200   -3.8648   -2.0396 C.3       1 <0>        -0.0720
     16 S1         -7.9100   -2.7013   -2.1070 S.3       1 <0>        -0.0913
     17 C15        -9.3203   -3.7342   -2.3276 C.ar      1 <0>        -0.1704
     18 C16        -9.1649   -5.1094   -2.3999 C.ar      1 <0>        -0.0608
     19 C17       -10.2707   -5.9201   -2.5737 C.ar      1 <0>        -0.2296
     20 C18       -11.5324   -5.3571   -2.6774 C.ar      1 <0>         0.1730
     21 C19       -11.6943   -3.9779   -2.6066 C.ar      1 <0>        -0.1836
     22 C20       -10.5927   -3.1648   -2.4234 C.ar      1 <0>         0.1876
     23 O2        -10.7066   -1.8132   -2.3317 O.3       1 <0>        -0.3049
     24 C21       -11.9187   -1.2126   -2.7899 C.3       1 <0>         0.0600
     25 C22       -13.0990   -1.9739   -2.1729 C.3       1 <0>        -0.1580
     26 C23       -13.0832   -3.4040   -2.7291 C.3       1 <0>        -0.0678
     27 O3        -12.6182   -6.1577   -2.8497 O.3       1 <0>        -0.2739
     28 C24       -12.3824   -7.5656   -2.9146 C.3       1 <0>        -0.0081
     29 C25       -13.6921   -8.2859   -3.1065 C.2       1 <0>         0.5017
     30 O4        -14.7311   -7.6524   -3.1809 O.co2     1 <0>        -0.6702
     31 O5        -13.7127   -9.5023   -3.1875 O.co2     1 <0>        -0.6865
     32 C26         3.6720    2.1819   -0.0222 C.3       1 <0>         0.5080
     33 F1          4.0857    2.4144    1.2938 F         1 <0>        -0.1756
     34 F2          4.6506    1.4423   -0.6949 F         1 <0>        -0.1759
     35 F3          3.4816    3.4050   -0.6742 F         1 <0>        -0.1758
     36 H1         -0.9591    1.9053    0.0259 H         1 <0>         0.1392
     37 H2          1.1563    3.1654    0.0076 H         1 <0>         0.1400
     38 H3          3.3385   -0.4987   -0.0326 H         1 <0>         0.1398
     39 H4          1.2231   -1.7588   -0.0179 H         1 <0>         0.1387
     40 H5         -1.1443   -1.7285    0.5180 H         1 <0>         0.0774
     41 H6         -2.0551   -0.1993    0.5352 H         1 <0>         0.0779
     42 H7         -3.2321   -1.9258    0.5964 H         1 <0>         0.1292
     43 H8         -5.3320   -3.1715    0.2837 H         1 <0>         0.1292
     44 H9         -4.8827   -2.8812   -3.9478 H         1 <0>         0.1336
     45 H10        -2.7879   -1.6251   -3.6436 H         1 <0>         0.1327
     46 H11        -6.4736   -4.4298   -2.9705 H         1 <0>         0.0935
     47 H12        -6.6609   -4.5513   -1.2046 H         1 <0>         0.0929
     48 H13        -8.1807   -5.5471   -2.3208 H         1 <0>         0.1263
     49 H14       -10.1512   -6.9921   -2.6291 H         1 <0>         0.1337
     50 H15       -11.9520   -0.1687   -2.4781 H         1 <0>         0.1053
     51 H16       -11.9706   -1.2735   -3.8770 H         1 <0>         0.0646
     52 H17       -12.9977   -1.9921   -1.0878 H         1 <0>         0.0765
     53 H18       -14.0345   -1.4862   -2.4470 H         1 <0>         0.0840
     54 H19       -13.3834   -3.4015   -3.7770 H         1 <0>         0.0786
     55 H20       -13.7798   -4.0144   -2.1544 H         1 <0>         0.0909
     56 H21       -11.7209   -7.7850   -3.7526 H         1 <0>         0.0608
     57 H22       -11.9168   -7.8992   -1.9872 H         1 <0>         0.0606
@<TRIPOS>BOND
     1    1    6 ar
     2    1    2 ar
     3    1   36 1
     4    2    3 ar
     5    2   37 1
     6    3    4 ar
     7    3   32 1
     8    4    5 ar
     9    4   38 1
    10    5    6 ar
    11    5   39 1
    12    6    7 1
    13    7    8 1
    14    7   40 1
    15    7   41 1
    16    8    9 1
    17    9   14 ar
    18    9   10 ar
    19   10   11 ar
    20   10   42 1
    21   11   12 ar
    22   11   43 1
    23   12   13 ar
    24   12   15 1
    25   13   14 ar
    26   13   44 1
    27   14   45 1
    28   15   16 1
    29   15   46 1
    30   15   47 1
    31   16   17 1
    32   17   22 ar
    33   17   18 ar
    34   18   19 ar
    35   18   48 1
    36   19   20 ar
    37   19   49 1
    38   20   21 ar
    39   20   27 1
    40   21   26 1
    41   21   22 ar
    42   22   23 1
    43   23   24 1
    44   24   25 1
    45   24   50 1
    46   24   51 1
    47   25   26 1
    48   25   52 1
    49   25   53 1
    50   26   54 1
    51   26   55 1
    52   27   28 1
    53   28   29 1
    54   28   56 1
    55   28   57 1
    56   29   30 2
    57   29   31 1
    58   32   33 1
    59   32   34 1
    60   32   35 1
@<TRIPOS>MOLECULE
CHEMBL1075894
   68    72     0     0     0
SMALL
USER_CHARGES

@<TRIPOS>ATOM
      1 C1         -0.6088    2.0045   -0.8382 C.3       1 <0>        -0.1076
      2 C2         -0.4669    0.5144   -0.6634 C.ar      1 <0>        -0.0838
      3 C3         -0.3931   -0.3071   -1.7717 C.ar      1 <0>        -0.1043
      4 C4         -0.2620   -1.6783   -1.6109 C.ar      1 <0>         0.0668
      5 C5         -0.2049   -2.2250   -0.3372 C.ar      1 <0>        -0.1673
      6 C6         -0.2787   -1.4037    0.7707 C.ar      1 <0>        -0.1764
      7 C7         -0.4045   -0.0316    0.6098 C.ar      1 <0>         0.1175
      8 O1         -0.4714    0.7776    1.7006 O.3       1 <0>        -0.2748
      9 C8         -0.4011    0.1474    2.9812 C.3       1 <0>        -0.0080
     10 C9         -0.4905    1.1940    4.0618 C.2       1 <0>         0.5004
     11 O2         -0.6039    2.3706    3.7629 O.co2     1 <0>        -0.6688
     12 O3         -0.4493    0.8642    5.2348 O.co2     1 <0>        -0.6854
     13 O4         -0.1899   -2.4870   -2.7017 O.3       1 <0>        -0.3127
     14 C10        -0.0555   -3.8893   -2.4620 C.3       1 <0>         0.1521
     15 C11         0.0083   -4.6201   -3.7784 C.2       1 <0>         0.2304
     16 N1          1.0990   -4.8878   -4.4357 N.2       1 <0>        -0.4438
     17 C12         0.7769   -5.5504   -5.5668 C.2       1 <0>         0.0135
     18 C13        -0.5965   -5.6836   -5.5793 C.2       1 <0>         0.0566
     19 O5         -1.0490   -5.0988   -4.4481 O.3       1 <0>        -0.1670
     20 C14        -1.4104   -6.3404   -6.6201 C.ar      1 <0>        -0.0618
     21 C15        -1.0490   -7.6018   -7.1002 C.ar      1 <0>        -0.0552
     22 C16        -1.8122   -8.2115   -8.0725 C.ar      1 <0>        -0.1219
     23 C17        -2.9387   -7.5738   -8.5754 C.ar      1 <0>         0.1351
     24 C18        -3.3019   -6.3200   -8.1013 C.ar      1 <0>        -0.1859
     25 C19        -2.5482   -5.7054   -7.1246 C.ar      1 <0>        -0.0359
     26 O6         -3.6877   -8.1783   -9.5346 O.3       1 <0>        -0.3079
     27 C20        -4.8332   -7.4667  -10.0076 C.3       1 <0>         0.6046
     28 F1         -4.4290   -6.2465  -10.5596 F         1 <0>        -0.1615
     29 F2         -5.4843   -8.2277  -10.9844 F         1 <0>        -0.1239
     30 F3         -5.7077   -7.2295   -8.9417 F         1 <0>        -0.1592
     31 C21         1.7192   -6.0415   -6.5991 C.ar      1 <0>        -0.0421
     32 C22         1.4217   -5.8944   -7.9599 C.ar      1 <0>         0.0503
     33 C23         2.3302   -6.3676   -8.8853 C.ar      1 <0>        -0.1912
     34 C24         3.5033   -6.9708   -8.4396 C.ar      1 <0>         0.4462
     35 N2          3.7545   -7.0948   -7.1453 N.ar      1 <0>        -0.5001
     36 C25         2.9160   -6.6507   -6.2302 C.ar      1 <0>         0.1702
     37 N3          4.4228   -7.4497   -9.3655 N.pl3     1 <0>        -0.5910
     38 C26         5.5999   -8.2207   -8.9350 C.3       1 <0>         0.0598
     39 C27         5.6664   -9.5065   -9.7670 C.3       1 <0>         0.0477
     40 O7          5.5992   -9.1726  -11.1555 O.3       1 <0>        -0.3642
     41 C28         4.3800   -8.5365  -11.5462 C.3       1 <0>         0.0428
     42 C29         4.2446   -7.2058  -10.8057 C.3       1 <0>         0.0735
     43 H1          0.3800    2.4602   -0.8891 H         1 <0>         0.0712
     44 H2         -1.1524    2.2121   -1.7599 H         1 <0>         0.0622
     45 H3         -1.1568    2.4190    0.0080 H         1 <0>         0.0830
     46 H4         -0.4379    0.1184   -2.7633 H         1 <0>         0.1328
     47 H5         -0.1032   -3.2928   -0.2120 H         1 <0>         0.1247
     48 H6         -0.2349   -1.8293    1.7623 H         1 <0>         0.1346
     49 H7         -1.2279   -0.5550    3.0864 H         1 <0>         0.0591
     50 H8          0.5441   -0.3880    3.0712 H         1 <0>         0.0589
     51 H9          0.8587   -4.0756   -1.8984 H         1 <0>         0.1126
     52 H10        -0.9132   -4.2441   -1.8906 H         1 <0>         0.0989
     53 H11        -0.1726   -8.0982   -6.7102 H         1 <0>         0.1391
     54 H12        -1.5336   -9.1865   -8.4442 H         1 <0>         0.1507
     55 H13        -4.1788   -5.8278   -8.4952 H         1 <0>         0.1475
     56 H14        -2.8338   -4.7323   -6.7533 H         1 <0>         0.1473
     57 H15         0.5036   -5.4225   -8.2775 H         1 <0>         0.1739
     58 H16         2.1332   -6.2713   -9.9428 H         1 <0>         0.1844
     59 H17         3.1573   -6.7652   -5.1837 H         1 <0>         0.2121
     60 H18         6.5032   -7.6322   -9.0959 H         1 <0>         0.1097
     61 H19         5.5080   -8.4716   -7.8783 H         1 <0>         0.0894
     62 H20         6.6032  -10.0247   -9.5621 H         1 <0>         0.1245
     63 H21         4.8278  -10.1523   -9.5069 H         1 <0>         0.0660
     64 H22         4.3913   -8.3569  -12.6212 H         1 <0>         0.1259
     65 H23         3.5367   -9.1788  -11.2925 H         1 <0>         0.0666
     66 H24         3.2557   -6.7850  -10.9872 H         1 <0>         0.1119
     67 H25         5.0091   -6.5134  -11.1582 H         1 <0>         0.1059
     68 H26         4.5794   -7.5199   -6.8631 H         1 <0>         0.4414
@<TRIPOS>BOND
     1    1    2 1
     2    1   43 1
     3    1   44 1
     4    1   45 1
     5    2    7 ar
     6    2    3 ar
     7    3    4 ar
     8    3   46 1
     9    4    5 ar
    10    4   13 1
    11    5    6 ar
    12    5   47 1
    13    6    7 ar
    14    6   48 1
    15    7    8 1
    16    8    9 1
    17    9   10 1
    18    9   49 1
    19    9   50 1
    20   10   11 2
    21   10   12 1
    22   13   14 1
    23   14   15 1
    24   14   51 1
    25   14   52 1
    26   15   19 1
    27   15   16 2
    28   16   17 1
    29   17   18 2
    30   17   31 1
    31   18   19 1
    32   18   20 1
    33   20   25 ar
    34   20   21 ar
    35   21   22 ar
    36   21   53 1
    37   22   23 ar
    38   22   54 1
    39   23   24 ar
    40   23   26 1
    41   24   25 ar
    42   24   55 1
    43   25   56 1
    44   26   27 1
    45   27   28 1
    46   27   29 1
    47   27   30 1
    48   31   36 ar
    49   31   32 ar
    50   32   33 ar
    51   32   57 1
    52   33   34 ar
    53   33   58 1
    54   34   35 ar
    55   34   37 1
    56   35   36 ar
    57   35   68 1
    58   36   59 1
    59   37   42 1
    60   37   38 1
    61   38   39 1
    62   38   60 1
    63   38   61 1
    64   39   40 1
    65   39   62 1
    66   39   63 1
    67   40   41 1
    68   41   42 1
    69   41   64 1
    70   41   65 1
    71   42   66 1
    72   42   67 1
@<TRIPOS>MOLECULE
CHEMBL1075894__1
   67    71     0     0     0
SMALL
USER_CHARGES

@<TRIPOS>ATOM
      1 C1          0.2625    1.9106   -0.6251 C.3       1 <0>        -0.1055
      2 C2          0.3360    0.4104   -0.5017 C.ar      1 <0>        -0.0850
      3 C3          0.2334   -0.3812   -1.6293 C.ar      1 <0>        -0.1071
      4 C4          0.3015   -1.7617   -1.5158 C.ar      1 <0>         0.0752
      5 C5          0.4725   -2.3476   -0.2702 C.ar      1 <0>        -0.1690
      6 C6          0.5750   -1.5563    0.8570 C.ar      1 <0>        -0.1753
      7 C7          0.5122   -0.1752    0.7429 C.ar      1 <0>         0.1113
      8 O1          0.6188    0.6043    1.8521 O.3       1 <0>        -0.2772
      9 C8          0.7989   -0.0661    3.1012 C.3       1 <0>        -0.0071
     10 C9          0.8960    0.9519    4.2082 C.2       1 <0>         0.5011
     11 O2          0.8181    2.1412    3.9512 O.co2     1 <0>        -0.6704
     12 O3          1.0523    0.5862    5.3607 O.co2     1 <0>        -0.6882
     13 O4          0.2001   -2.5409   -2.6256 O.3       1 <0>        -0.3118
     14 C10         0.2787   -3.9549   -2.4349 C.3       1 <0>         0.1594
     15 C11         0.1476   -4.6494   -3.7659 C.2       1 <0>         0.2053
     16 N1          1.1379   -4.9584   -4.5515 N.2       1 <0>        -0.4434
     17 C12         0.6495   -5.5686   -5.6521 C.2       1 <0>         0.0683
     18 C13        -0.7217   -5.6242   -5.5078 C.2       1 <0>         0.0052
     19 O5         -1.0060   -5.0483   -4.3187 O.3       1 <0>        -0.1791
     20 C14        -1.6871   -6.2037   -6.4614 C.ar      1 <0>        -0.0323
     21 C15        -1.4573   -7.4679   -7.0101 C.ar      1 <0>        -0.0465
     22 C16        -2.3618   -8.0052   -7.9005 C.ar      1 <0>        -0.1196
     23 C17        -3.4999   -7.2918   -8.2529 C.ar      1 <0>         0.1191
     24 C18        -3.7326   -6.0349   -7.7101 C.ar      1 <0>        -0.1887
     25 C19        -2.8367   -5.4922   -6.8142 C.ar      1 <0>        -0.0485
     26 O6         -4.3885   -7.8250   -9.1319 O.3       1 <0>        -0.3087
     27 C20        -5.5377   -7.0378   -9.4507 C.3       1 <0>         0.6038
     28 F1         -5.1299   -5.8255  -10.0173 F         1 <0>        -0.1630
     29 F2         -6.3403   -7.7321  -10.3623 F         1 <0>        -0.1294
     30 F3         -6.2681   -6.7852   -8.2845 F         1 <0>        -0.1625
     31 C21         1.4364   -6.0813   -6.7978 C.ar      1 <0>        -0.1290
     32 C22         0.9946   -5.8768   -8.1112 C.ar      1 <0>        -0.0065
     33 C23         1.7613   -6.3730   -9.1464 C.ar      1 <0>        -0.2374
     34 C24         2.9393   -7.0551   -8.8538 C.ar      1 <0>         0.4143
     35 N2          3.3289   -7.2320   -7.6006 N.ar      1 <0>        -0.5393
     36 C25         2.6288   -6.7686   -6.5843 C.ar      1 <0>         0.1891
     37 N3          3.7165   -7.5575   -9.8910 N.pl3     1 <0>        -0.6111
     38 C26         4.8393   -8.4701   -9.6227 C.3       1 <0>         0.0911
     39 C27         4.6948   -9.6950  -10.5330 C.3       1 <0>         0.0460
     40 O7          4.5393   -9.2603  -11.8860 O.3       1 <0>        -0.3797
     41 C28         3.3641   -8.4802  -12.1187 C.3       1 <0>         0.0470
     42 C29         3.4369   -7.1975  -11.2901 C.3       1 <0>         0.0864
     43 H1          1.2640    2.3118   -0.7805 H         1 <0>         0.0698
     44 H2         -0.3703    2.1749   -1.4722 H         1 <0>         0.0613
     45 H3         -0.1592    2.3300    0.2884 H         1 <0>         0.0810
     46 H4          0.0999    0.0750   -2.5991 H         1 <0>         0.1328
     47 H5          0.5252   -3.4227   -0.1818 H         1 <0>         0.1259
     48 H6          0.7075   -2.0125    1.8269 H         1 <0>         0.1329
     49 H7         -0.0501   -0.7241    3.2861 H         1 <0>         0.0580
     50 H8          1.7151   -0.6556    3.0684 H         1 <0>         0.0584
     51 H9          1.2391   -4.2082   -1.9860 H         1 <0>         0.1091
     52 H10        -0.5270   -4.2780   -1.7756 H         1 <0>         0.0934
     53 H11        -0.5720   -8.0232   -6.7372 H         1 <0>         0.1430
     54 H12        -2.1849   -8.9824   -8.3252 H         1 <0>         0.1469
     55 H13        -4.6190   -5.4836   -7.9871 H         1 <0>         0.1411
     56 H14        -3.0207   -4.5166   -6.3891 H         1 <0>         0.1414
     57 H15         0.0762   -5.3441   -8.3091 H         1 <0>         0.1331
     58 H16         1.4508   -6.2339  -10.1714 H         1 <0>         0.1360
     59 H17         2.9808   -6.9279   -5.5758 H         1 <0>         0.1618
     60 H18         5.7816   -7.9647   -9.8341 H         1 <0>         0.0706
     61 H19         4.8163   -8.7836   -8.5790 H         1 <0>         0.1048
     62 H20         5.5862  -10.3170  -10.4506 H         1 <0>         0.1065
     63 H21         3.8193  -10.2706  -10.2326 H         1 <0>         0.0550
     64 H22         3.2981   -8.2282  -13.1771 H         1 <0>         0.1074
     65 H23         2.4838   -9.0514  -11.8241 H         1 <0>         0.0564
     66 H24         2.4857   -6.6686  -11.3500 H         1 <0>         0.0955
     67 H25         4.2357   -6.5618  -11.6722 H         1 <0>         0.0767
@<TRIPOS>BOND
     1    1    2 1
     2    1   43 1
     3    1   44 1
     4    1   45 1
     5    2    7 ar
     6    2    3 ar
     7    3    4 ar
     8    3   46 1
     9    4    5 ar
    10    4   13 1
    11    5    6 ar
    12    5   47 1
    13    6    7 ar
    14    6   48 1
    15    7    8 1
    16    8    9 1
    17    9   10 1
    18    9   49 1
    19    9   50 1
    20   10   11 2
    21   10   12 1
    22   13   14 1
    23   14   15 1
    24   14   51 1
    25   14   52 1
    26   15   19 1
    27   15   16 2
    28   16   17 1
    29   17   18 2
    30   17   31 1
    31   18   19 1
    32   18   20 1
    33   20   25 ar
    34   20   21 ar
    35   21   22 ar
    36   21   53 1
    37   22   23 ar
    38   22   54 1
    39   23   24 ar
    40   23   26 1
    41   24   25 ar
    42   24   55 1
    43   25   56 1
    44   26   27 1
    45   27   28 1
    46   27   29 1
    47   27   30 1
    48   31   36 ar
    49   31   32 ar
    50   32   33 ar
    51   32   57 1
    52   33   34 ar
    53   33   58 1
    54   34   35 ar
    55   34   37 1
    56   35   36 ar
    57   36   59 1
    58   37   42 1
    59   37   38 1
    60   38   39 1
    61   38   60 1
    62   38   61 1
    63   39   40 1
    64   39   62 1
    65   39   63 1
    66   40   41 1
    67   41   42 1
    68   41   64 1
    69   41   65 1
    70   42   66 1
    71   42   67 1
@<TRIPOS>MOLECULE
CHEMBL1080365
   63    66     0     0     0
SMALL
USER_CHARGES

@<TRIPOS>ATOM
      1 C1          0.0777    1.9194   -0.6342 C.3       1 <0>        -0.1058
      2 C2          0.1652    0.4204   -0.5062 C.ar      1 <0>        -0.0848
      3 C3          0.1000   -0.3742   -1.6344 C.ar      1 <0>        -0.1066
      4 C4          0.1810   -1.7536   -1.5167 C.ar      1 <0>         0.0745
      5 C5          0.3275   -2.3356   -0.2661 C.ar      1 <0>        -0.1689
      6 C6          0.3927   -1.5412    0.8619 C.ar      1 <0>        -0.1756
      7 C7          0.3170   -0.1612    0.7436 C.ar      1 <0>         0.1119
      8 O1          0.3869    0.6212    1.8536 O.3       1 <0>        -0.2771
      9 C8          0.5433   -0.0450    3.1081 C.3       1 <0>        -0.0072
     10 C9          0.6010    0.9758    4.2152 C.2       1 <0>         0.5012
     11 O2          0.5160    2.1637    3.9541 O.co2     1 <0>        -0.6703
     12 O3          0.7326    0.6138    5.3720 O.co2     1 <0>        -0.6882
     13 O4          0.1164   -2.5357   -2.6272 O.3       1 <0>        -0.3117
     14 C10         0.2063   -3.9485   -2.4319 C.3       1 <0>         0.1585
     15 C11         0.1166   -4.6466   -3.7644 C.2       1 <0>         0.2097
     16 N1          1.1297   -4.9455   -4.5245 N.2       1 <0>        -0.4412
     17 C12         0.6760   -5.5637   -5.6353 C.2       1 <0>         0.0591
     18 C13        -0.6975   -5.6353   -5.5250 C.2       1 <0>         0.0212
     19 O5         -1.0182   -5.0596   -4.3452 O.3       1 <0>        -0.1753
     20 C14        -1.6320   -6.2282   -6.5010 C.ar      1 <0>        -0.0423
     21 C15        -1.3722   -7.4896   -7.0427 C.ar      1 <0>        -0.0502
     22 C16        -2.2479   -8.0395   -7.9541 C.ar      1 <0>        -0.1173
     23 C17        -3.3867   -7.3415   -8.3344 C.ar      1 <0>         0.1244
     24 C18        -3.6489   -6.0875   -7.7986 C.ar      1 <0>        -0.1876
     25 C19        -2.7822   -5.5324   -6.8819 C.ar      1 <0>        -0.0443
     26 O6         -4.2467   -7.8872   -9.2339 O.3       1 <0>        -0.3078
     27 C20        -5.3983   -7.1156   -9.5809 C.3       1 <0>         0.6039
     28 F1         -4.9932   -5.8982  -10.1388 F         1 <0>        -0.1620
     29 F2         -6.1694   -7.8211  -10.5109 F         1 <0>        -0.1287
     30 F3         -6.1597   -6.8720   -8.4328 F         1 <0>        -0.1625
     31 C21         1.4972   -6.0692   -6.7602 C.ar      1 <0>        -0.1618
     32 C22         1.0946   -5.8773   -8.0853 C.ar      1 <0>         0.2149
     33 N2          1.8552   -6.3435   -9.0602 N.ar      1 <0>        -0.5172
     34 C23         2.9829   -6.9838   -8.7953 C.ar      1 <0>         0.5077
     35 N3          3.3985   -7.1856   -7.5551 N.ar      1 <0>        -0.5636
     36 C24         2.6980   -6.7455   -6.5246 C.ar      1 <0>         0.2234
     37 O7          3.7335   -7.4464   -9.8239 O.3       1 <0>        -0.2813
     38 C25         4.9421   -8.1310   -9.4884 C.3       1 <0>         0.0841
     39 C26         5.2526   -9.1743  -10.5636 C.3       1 <0>        -0.1508
     40 C27         6.0921   -7.1252   -9.4065 C.3       1 <0>        -0.1707
     41 H1          1.0781    2.3318   -0.7653 H         1 <0>         0.0699
     42 H2         -0.5367    2.1751   -1.4974 H         1 <0>         0.0615
     43 H3         -0.3715    2.3354    0.2676 H         1 <0>         0.0811
     44 H4         -0.0144    0.0788   -2.6081 H         1 <0>         0.1331
     45 H5          0.3903   -3.4098   -0.1743 H         1 <0>         0.1259
     46 H6          0.5061   -1.9944    1.8356 H         1 <0>         0.1330
     47 H7         -0.3025   -0.7124    3.2730 H         1 <0>         0.0582
     48 H8          1.4668   -0.6240    3.0993 H         1 <0>         0.0584
     49 H9          1.1581   -4.1899   -1.9586 H         1 <0>         0.1099
     50 H10        -0.6118   -4.2797   -1.7924 H         1 <0>         0.0947
     51 H11        -0.4865   -8.0328   -6.7481 H         1 <0>         0.1406
     52 H12        -2.0479   -9.0145   -8.3734 H         1 <0>         0.1483
     53 H13        -4.5358   -5.5483   -8.0972 H         1 <0>         0.1429
     54 H14        -2.9894   -4.5591   -6.4620 H         1 <0>         0.1437
     55 H15         0.1754   -5.3561   -8.3088 H         1 <0>         0.1750
     56 H16         3.0457   -6.9095   -5.5153 H         1 <0>         0.1786
     57 H17         4.8235   -8.6266   -8.5248 H         1 <0>         0.0946
     58 H18         5.3712   -8.6787  -11.5272 H         1 <0>         0.0679
     59 H19         6.1745   -9.6965  -10.3077 H         1 <0>         0.0818
     60 H20         4.4333   -9.8908  -10.6220 H         1 <0>         0.0648
     61 H21         6.2107   -6.6296  -10.3701 H         1 <0>         0.0643
     62 H22         5.8709   -6.3820   -8.6405 H         1 <0>         0.0621
     63 H23         7.0140   -7.6474   -9.1506 H         1 <0>         0.0761
@<TRIPOS>BOND
     1    1    2 1
     2    1   41 1
     3    1   42 1
     4    1   43 1
     5    2    7 ar
     6    2    3 ar
     7    3    4 ar
     8    3   44 1
     9    4    5 ar
    10    4   13 1
    11    5    6 ar
    12    5   45 1
    13    6    7 ar
    14    6   46 1
    15    7    8 1
    16    8    9 1
    17    9   10 1
    18    9   47 1
    19    9   48 1
    20   10   11 2
    21   10   12 1
    22   13   14 1
    23   14   15 1
    24   14   49 1
    25   14   50 1
    26   15   19 1
    27   15   16 2
    28   16   17 1
    29   17   18 2
    30   17   31 1
    31   18   19 1
    32   18   20 1
    33   20   25 ar
    34   20   21 ar
    35   21   22 ar
    36   21   51 1
    37   22   23 ar
    38   22   52 1
    39   23   24 ar
    40   23   26 1
    41   24   25 ar
    42   24   53 1
    43   25   54 1
    44   26   27 1
    45   27   28 1
    46   27   29 1
    47   27   30 1
    48   31   36 ar
    49   31   32 ar
    50   32   33 ar
    51   32   55 1
    52   33   34 ar
    53   34   35 ar
    54   34   37 1
    55   35   36 ar
    56   36   56 1
    57   37   38 1
    58   38   39 1
    59   38   40 1
    60   38   57 1
    61   39   58 1
    62   39   59 1
    63   39   60 1
    64   40   61 1
    65   40   62 1
    66   40   63 1
@<TRIPOS>MOLECULE
CHEMBL258732
   44    46     0     0     0
SMALL
USER_CHARGES

@<TRIPOS>ATOM
      1 C1         -0.0184    1.5028    0.0103 C.3       1 <0>        -0.1053
      2 C2          0.0021   -0.0041    0.0020 C.ar      1 <0>        -0.1058
      3 C3          0.0057   -0.6878   -1.1980 C.ar      1 <0>        -0.0585
      4 C4          0.0246   -2.0766   -1.2053 C.ar      1 <0>        -0.1373
      5 C5          0.0397   -2.7765   -0.0051 C.ar      1 <0>        -0.0933
      6 C6          0.0360   -2.0909    1.1933 C.ar      1 <0>        -0.1958
      7 C7          0.0229   -0.7036    1.1994 C.ar      1 <0>         0.1418
      8 O1          0.0254   -0.0293    2.3804 O.3       1 <0>        -0.2747
      9 C8          0.0474   -0.8131    3.5751 C.3       1 <0>        -0.0086
     10 C9          0.0468    0.0992    4.7746 C.2       1 <0>         0.5015
     11 O2          0.0293    1.3085    4.6207 O.co2     1 <0>        -0.6697
     12 O3          0.0640   -0.3721    5.8989 O.co2     1 <0>        -0.6870
     13 S1          0.0286   -2.9502   -2.7355 S.3       1 <0>        -0.1003
     14 C10         0.0549   -4.6962   -2.2439 C.3       1 <0>        -0.0491
     15 C11         0.0604   -5.5647   -3.4755 C.2       1 <0>         0.1165
     16 C12        -1.1289   -5.9703   -4.0304 C.2       1 <0>        -0.1692
     17 C13        -1.0127   -6.7656   -5.1600 C.2       1 <0>        -0.1059
     18 S2          0.7602   -6.8643   -5.3297 S.3       1 <0>         0.2447
     19 N1          1.1980   -5.9238   -4.0131 N.2       1 <0>        -0.4162
     20 C14        -2.0721   -7.3694   -5.9974 C.ar      1 <0>         0.0217
     21 C15        -3.4159   -7.1594   -5.6863 C.ar      1 <0>        -0.0917
     22 C16        -4.3993   -7.7254   -6.4713 C.ar      1 <0>        -0.0643
     23 C17        -4.0552   -8.5000   -7.5647 C.ar      1 <0>        -0.1755
     24 C18        -2.7246   -8.7124   -7.8783 C.ar      1 <0>        -0.0642
     25 C19        -1.7318   -8.1465   -7.1051 C.ar      1 <0>        -0.1026
     26 C20        -5.1345   -9.1156   -8.4175 C.3       1 <0>         0.5084
     27 F1         -5.4776   -8.2311   -9.4458 F         1 <0>        -0.1745
     28 F2         -4.6668  -10.3131   -8.9691 F         1 <0>        -0.1759
     29 F3         -6.2612   -9.3738   -7.6294 F         1 <0>        -0.1752
     30 H1          1.0042    1.8801    0.0026 H         1 <0>         0.0686
     31 H2         -0.5455    1.8639   -0.8728 H         1 <0>         0.0610
     32 H3         -0.5286    1.8543    0.9071 H         1 <0>         0.0801
     33 H4         -0.0064   -0.1428   -2.1303 H         1 <0>         0.1296
     34 H5          0.0540   -3.8564   -0.0097 H         1 <0>         0.1191
     35 H6          0.0478   -2.6347    2.1263 H         1 <0>         0.1325
     36 H7         -0.8339   -1.4538    3.6055 H         1 <0>         0.0595
     37 H8          0.9458   -1.4302    3.5883 H         1 <0>         0.0596
     38 H9          0.9506   -4.8945   -1.6554 H         1 <0>         0.1083
     39 H10        -0.8291   -4.9187   -1.6464 H         1 <0>         0.1100
     40 H11        -2.0861   -5.6899   -3.6162 H         1 <0>         0.1667
     41 H12        -3.6857   -6.5555   -4.8325 H         1 <0>         0.1436
     42 H13        -5.4398   -7.5636   -6.2315 H         1 <0>         0.1443
     43 H14        -2.4625   -9.3187   -8.7327 H         1 <0>         0.1435
     44 H15        -0.6935   -8.3090   -7.3537 H         1 <0>         0.1395
@<TRIPOS>BOND
     1    1    2 1
     2    1   30 1
     3    1   31 1
     4    1   32 1
     5    2    7 ar
     6    2    3 ar
     7    3    4 ar
     8    3   33 1
     9    4    5 ar
    10    4   13 1
    11    5    6 ar
    12    5   34 1
    13    6    7 ar
    14    6   35 1
    15    7    8 1
    16    8    9 1
    17    9   10 1
    18    9   36 1
    19    9   37 1
    20   10   11 2
    21   10   12 1
    22   13   14 1
    23   14   15 1
    24   14   38 1
    25   14   39 1
    26   15   19 2
    27   15   16 1
    28   16   17 2
    29   16   40 1
    30   17   18 1
    31   17   20 1
    32   18   19 1
    33   20   25 ar
    34   20   21 ar
    35   21   22 ar
    36   21   41 1
    37   22   23 ar
    38   22   42 1
    39   23   24 ar
    40   23   26 1
    41   24   25 ar
    42   24   43 1
    43   25   44 1
    44   26   27 1
    45   26   28 1
    46   26   29 1
@<TRIPOS>MOLECULE
CHEMBL1081917
   60    62     0     0     0
SMALL
USER_CHARGES

@<TRIPOS>ATOM
      1 C1          1.5815    0.8083    0.8588 C.3       1 <0>        -0.1137
      2 C2          0.8775   -0.4735    0.4951 C.ar      1 <0>        -0.1171
      3 C3          0.8379   -0.8911   -0.8213 C.ar      1 <0>        -0.0582
      4 C4          0.1918   -2.0667   -1.1557 C.ar      1 <0>        -0.2217
      5 C5         -0.4160   -2.8277   -0.1740 C.ar      1 <0>        -0.0534
      6 C6         -0.3789   -2.4148    1.1436 C.ar      1 <0>        -0.2141
      7 C7          0.2735   -1.2380    1.4825 C.ar      1 <0>         0.1787
      8 O1          0.3163   -0.8325    2.7788 O.3       1 <0>        -0.2638
      9 C8         -0.3270   -1.6695    3.7420 C.3       1 <0>        -0.0131
     10 C9         -0.1771   -1.0639    5.1138 C.2       1 <0>         0.4996
     11 O2          0.4248   -0.0129    5.2536 O.co2     1 <0>        -0.6657
     12 O3         -0.6577   -1.6249    6.0837 O.co2     1 <0>        -0.6774
     13 C10         0.1493   -2.5193   -2.5925 C.3       1 <0>         0.0500
     14 N1          1.3806   -3.2545   -2.9109 N.4       1 <0>        -0.3706
     15 C11         1.4007   -3.5788   -4.3435 C.3       1 <0>        -0.0420
     16 C12         2.8260   -3.7637   -4.7967 C.2       1 <0>         0.5083
     17 O4          3.7404   -3.5063   -4.0425 O.2       1 <0>        -0.4984
     18 N2          3.0846   -4.2151   -6.0400 N.am      1 <0>        -0.6455
     19 C13         4.4040   -4.4757   -6.4299 C.ar      1 <0>         0.1441
     20 C14         5.4552   -3.8061   -5.8180 C.ar      1 <0>        -0.1036
     21 C15         6.7557   -4.0648   -6.2044 C.ar      1 <0>        -0.0825
     22 C16         7.0122   -4.9903   -7.2009 C.ar      1 <0>        -0.0312
     23 C17         5.9672   -5.6594   -7.8129 C.ar      1 <0>        -0.0807
     24 C18         4.6640   -5.4090   -7.4259 C.ar      1 <0>        -0.0495
     25 Cl1         3.3533   -6.2538   -8.1889 Cl        1 <0>        -0.0450
     26 Cl2         8.6482   -5.3118   -7.6845 Cl        1 <0>        -0.0423
     27 C19         1.4261   -4.4961   -2.1271 C.3       1 <0>         0.0201
     28 C20         2.6814   -5.2880   -2.4984 C.3       1 <0>        -0.1348
     29 C21         2.7288   -6.5812   -1.6821 C.3       1 <0>        -0.1184
     30 C22         1.4871   -7.4218   -1.9859 C.3       1 <0>        -0.1279
     31 C23         0.2317   -6.6300   -1.6145 C.3       1 <0>        -0.1175
     32 C24         0.1843   -5.3368   -2.4308 C.3       1 <0>        -0.1420
     33 H1          2.6277    0.5980    1.0805 H         1 <0>         0.0731
     34 H2          1.5202    1.5061    0.0236 H         1 <0>         0.0646
     35 H3          1.1057    1.2481    1.7353 H         1 <0>         0.0848
     36 H4          1.3118   -0.2985   -1.5898 H         1 <0>         0.1298
     37 H5         -0.9204   -3.7456   -0.4377 H         1 <0>         0.1265
     38 H6         -0.8537   -3.0095    1.9099 H         1 <0>         0.1400
     39 H7         -1.3855   -1.7577    3.4974 H         1 <0>         0.0655
     40 H8          0.1325   -2.6579    3.7290 H         1 <0>         0.0646
     41 H9         -0.7118   -3.1703   -2.7430 H         1 <0>         0.1355
     42 H10         0.0662   -1.6501   -3.2449 H         1 <0>         0.1344
     43 H11         0.8425   -4.4991   -4.5156 H         1 <0>         0.1633
     44 H12         0.9430   -2.7655   -4.9066 H         1 <0>         0.1656
     45 H13         2.3567   -4.3594   -6.6647 H         1 <0>         0.4222
     46 H14         5.2560   -3.0833   -5.0408 H         1 <0>         0.1713
     47 H15         7.5735   -3.5441   -5.7285 H         1 <0>         0.1498
     48 H16         6.1700   -6.3808   -8.5906 H         1 <0>         0.1538
     49 H17         1.4501   -4.2544   -1.0645 H         1 <0>         0.1473
     50 H18         2.6574   -5.5298   -3.5610 H         1 <0>         0.0698
     51 H19         3.5661   -4.6891   -2.2820 H         1 <0>         0.1019
     52 H20         3.6231   -7.1453   -1.9467 H         1 <0>         0.0805
     53 H21         2.7528   -6.3394   -0.6195 H         1 <0>         0.0763
     54 H22         1.4630   -7.6636   -3.0484 H         1 <0>         0.0652
     55 H23         1.5208   -8.3431   -1.4043 H         1 <0>         0.0778
     56 H24        -0.6529   -7.2289   -1.8309 H         1 <0>         0.0837
     57 H25         0.2557   -6.3882   -0.5519 H         1 <0>         0.0782
     58 H26        -0.7100   -4.7727   -2.1663 H         1 <0>         0.0913
     59 H27         0.1603   -5.5786   -3.4934 H         1 <0>         0.0811
     60 H28         2.1812   -2.6840   -2.6839 H         1 <0>         0.4313
@<TRIPOS>BOND
     1    1    2 1
     2    1   33 1
     3    1   34 1
     4    1   35 1
     5    2    7 ar
     6    2    3 ar
     7    3    4 ar
     8    3   36 1
     9    4    5 ar
    10    4   13 1
    11    5    6 ar
    12    5   37 1
    13    6    7 ar
    14    6   38 1
    15    7    8 1
    16    8    9 1
    17    9   10 1
    18    9   39 1
    19    9   40 1
    20   10   11 2
    21   10   12 1
    22   13   14 1
    23   13   41 1
    24   13   42 1
    25   14   15 1
    26   14   27 1
    27   14   60 1
    28   15   16 1
    29   15   43 1
    30   15   44 1
    31   16   17 2
    32   16   18 am
    33   18   19 1
    34   18   45 1
    35   19   24 ar
    36   19   20 ar
    37   20   21 ar
    38   20   46 1
    39   21   22 ar
    40   21   47 1
    41   22   23 ar
    42   22   26 1
    43   23   24 ar
    44   23   48 1
    45   24   25 1
    46   27   32 1
    47   27   28 1
    48   27   49 1
    49   28   29 1
    50   28   50 1
    51   28   51 1
    52   29   30 1
    53   29   52 1
    54   29   53 1
    55   30   31 1
    56   30   54 1
    57   30   55 1
    58   31   32 1
    59   31   56 1
    60   31   57 1
    61   32   58 1
    62   32   59 1
@<TRIPOS>MOLECULE
CHEMBL87928
   62    65     0     0     0
SMALL
USER_CHARGES

@<TRIPOS>ATOM
      1 C1         -0.0187    1.5258    0.0104 C.3       1 <0>        -0.1428
      2 C2          0.0021   -0.0041    0.0020 C.3       1 <0>         0.0659
      3 O1          0.6932   -0.4774    1.1597 O.3       1 <0>        -0.3669
      4 C3          0.7699   -1.9016    1.2491 C.3       1 <0>         0.0331
      5 H1          0.7819   -2.3284    0.2462 H         1 <0>         0.0487
      6 C4          2.0499   -2.2981    1.9875 C.3       1 <0>        -0.0609
      7 C5          3.2484   -1.8847    1.1728 C.ar      1 <0>        -0.0962
      8 C6          3.7840   -2.7557    0.2422 C.ar      1 <0>        -0.0824
      9 C7          4.8829   -2.3792   -0.5056 C.ar      1 <0>        -0.1515
     10 C8          5.4488   -1.1259   -0.3223 C.ar      1 <0>         0.1122
     11 C9          4.9092   -0.2536    0.6118 C.ar      1 <0>        -0.2070
     12 C10         3.8070   -0.6328    1.3533 C.ar      1 <0>        -0.0616
     13 O2          6.5301   -0.7534   -1.0564 O.3       1 <0>        -0.3148
     14 C11         7.0601    0.5515   -0.8146 C.3       1 <0>         0.0868
     15 C12         8.2468    0.7862   -1.7134 C.2       1 <0>        -0.1150
     16 C13         8.3717    1.9479   -2.3678 C.2       1 <0>        -0.0448
     17 C14         7.3422    3.0035   -2.2080 C.ar      1 <0>        -0.0505
     18 C15         6.5550    3.3830   -3.2939 C.ar      1 <0>        -0.0998
     19 C16         5.5986    4.3659   -3.1394 C.ar      1 <0>        -0.1169
     20 C17         5.4207    4.9743   -1.9099 C.ar      1 <0>        -0.1147
     21 C18         6.1993    4.6020   -0.8288 C.ar      1 <0>        -0.1169
     22 C19         7.1542    3.6156   -0.9700 C.ar      1 <0>        -0.1102
     23 C20         9.5384    2.1787   -3.2515 C.ar      1 <0>        -0.0334
     24 C21        10.4716    3.1657   -2.9309 C.ar      1 <0>        -0.0967
     25 C22        11.5560    3.3805   -3.7510 C.ar      1 <0>        -0.1005
     26 C23        11.7223    2.6100   -4.9048 C.ar      1 <0>        -0.0177
     27 C24        10.7874    1.6220   -5.2249 C.ar      1 <0>        -0.0952
     28 C25         9.7065    1.4051   -4.4008 C.ar      1 <0>        -0.0989
     29 C26        12.8850    2.8400   -5.7854 C.2       1 <0>         0.0274
     30 C27        13.1611    2.1675   -6.9353 C.2       1 <0>        -0.1925
     31 C28        14.3567    2.7105   -7.4458 C.2       1 <0>        -0.2117
     32 C29        14.7475    3.6772   -6.5922 C.2       1 <0>        -0.0357
     33 O3         13.8536    3.7561   -5.5930 O.3       1 <0>        -0.1714
     34 C30        -0.4267   -2.4228    2.0025 C.2       1 <0>         0.4773
     35 O4         -0.6021   -3.6243    2.1120 O.co2     1 <0>        -0.7002
     36 O5         -1.2193   -1.6429    2.5025 O.co2     1 <0>        -0.6801
     37 H2          1.0039    1.9031    0.0027 H         1 <0>         0.0535
     38 H3         -0.5459    1.8868   -0.8726 H         1 <0>         0.0596
     39 H4         -0.5289    1.8773    0.9072 H         1 <0>         0.0623
     40 H5         -1.0205   -0.3814    0.0098 H         1 <0>         0.0455
     41 H6          0.5123   -0.3556   -0.8948 H         1 <0>         0.0296
     42 H7          2.0796   -1.7996    2.9564 H         1 <0>         0.0731
     43 H8          2.0651   -3.3781    2.1339 H         1 <0>         0.0872
     44 H9          3.3432   -3.7313    0.0999 H         1 <0>         0.1287
     45 H10         5.3014   -3.0602   -1.2319 H         1 <0>         0.1251
     46 H11         5.3479    0.7226    0.7563 H         1 <0>         0.1207
     47 H12         3.3839    0.0475    2.0775 H         1 <0>         0.1259
     48 H13         6.2941    1.2988   -1.0215 H         1 <0>         0.0747
     49 H14         7.3721    0.6297    0.2269 H         1 <0>         0.0725
     50 H15         8.9965    0.0176   -1.8297 H         1 <0>         0.1301
     51 H16         6.6936    2.9091   -4.2544 H         1 <0>         0.1223
     52 H17         4.9882    4.6608   -3.9800 H         1 <0>         0.1239
     53 H18         4.6713    5.7432   -1.7936 H         1 <0>         0.1231
     54 H19         6.0566    5.0809    0.1286 H         1 <0>         0.1251
     55 H20         7.7583    3.3223   -0.1241 H         1 <0>         0.1229
     56 H21        10.3427    3.7613   -2.0393 H         1 <0>         0.1286
     57 H22        12.2778    4.1445   -3.5030 H         1 <0>         0.1293
     58 H23        10.9150    1.0263   -6.1167 H         1 <0>         0.1307
     59 H24         8.9860    0.6388   -4.6459 H         1 <0>         0.1334
     60 H25        12.5769    1.3710   -7.3721 H         1 <0>         0.1512
     61 H26        14.8640    2.4091   -8.3504 H         1 <0>         0.1512
     62 H27        15.6310    4.2897   -6.6964 H         1 <0>         0.2052
@<TRIPOS>BOND
     1    1    2 1
     2    1   37 1
     3    1   38 1
     4    1   39 1
     5    2    3 1
     6    2   40 1
     7    2   41 1
     8    3    4 1
     9    4    5 1
    10    4    6 1
    11    4   34 1
    12    6    7 1
    13    6   42 1
    14    6   43 1
    15    7   12 ar
    16    7    8 ar
    17    8    9 ar
    18    8   44 1
    19    9   10 ar
    20    9   45 1
    21   10   11 ar
    22   10   13 1
    23   11   12 ar
    24   11   46 1
    25   12   47 1
    26   13   14 1
    27   14   15 1
    28   14   48 1
    29   14   49 1
    30   15   16 2
    31   15   50 1
    32   16   17 1
    33   16   23 1
    34   17   22 ar
    35   17   18 ar
    36   18   19 ar
    37   18   51 1
    38   19   20 ar
    39   19   52 1
    40   20   21 ar
    41   20   53 1
    42   21   22 ar
    43   21   54 1
    44   22   55 1
    45   23   28 ar
    46   23   24 ar
    47   24   25 ar
    48   24   56 1
    49   25   26 ar
    50   25   57 1
    51   26   27 ar
    52   26   29 1
    53   27   28 ar
    54   27   58 1
    55   28   59 1
    56   29   33 1
    57   29   30 2
    58   30   31 1
    59   30   60 1
    60   31   32 2
    61   31   61 1
    62   32   33 1
    63   32   62 1
    64   34   35 2
    65   34   36 1
@<TRIPOS>MOLECULE
CHEMBL377508
   59    61     0     0     0
SMALL
USER_CHARGES

@<TRIPOS>ATOM
      1 C1         -1.3079    0.2443   -0.9312 C.3       1 <0>        -0.1147
      2 C2          0.1719    0.4846   -0.6257 C.3       1 <0>         0.0295
      3 C3          0.5013    1.9645   -0.8310 C.3       1 <0>        -0.1738
      4 C4          0.4588    0.0995    0.8028 C.2       1 <0>         0.4808
      5 O1          1.2748   -0.7729    1.0468 O.co2     1 <0>        -0.6692
      6 O2         -0.1250    0.6604    1.7144 O.co2     1 <0>        -0.6858
      7 O3          0.9742   -0.3082   -1.5031 O.3       1 <0>        -0.3037
      8 C5          2.3234   -0.2026   -1.3701 C.ar      1 <0>         0.1369
      9 C6          2.8616    0.5568   -0.3418 C.ar      1 <0>        -0.1176
     10 C7          4.2321    0.6640   -0.2067 C.ar      1 <0>        -0.1228
     11 C8          5.0701    0.0119   -1.0991 C.ar      1 <0>         0.0732
     12 C9          4.5319   -0.7483   -2.1268 C.ar      1 <0>        -0.1807
     13 C10         3.1614   -0.8590   -2.2593 C.ar      1 <0>        -0.1356
     14 O4          6.4192    0.1182   -0.9666 O.3       1 <0>        -0.3208
     15 C11         7.2218   -0.5799   -1.9209 C.3       1 <0>         0.0631
     16 C12         8.7017   -0.3435   -1.6130 C.3       1 <0>        -0.1150
     17 C13         9.5610   -1.0908   -2.6347 C.3       1 <0>        -0.1154
     18 C14        11.0409   -0.8544   -2.3268 C.3       1 <0>         0.0590
     19 O5         11.8434   -1.5525   -3.2811 O.3       1 <0>        -0.3007
     20 C15        13.1928   -1.4462   -3.1486 C.ar      1 <0>         0.1177
     21 C16        13.7310   -0.6903   -2.1180 C.ar      1 <0>        -0.1593
     22 C17        15.1014   -0.5818   -1.9834 C.ar      1 <0>        -0.1467
     23 C18        15.9402   -1.2288   -2.8794 C.ar      1 <0>         0.0930
     24 C19        15.4027   -1.9850   -3.9105 C.ar      1 <0>        -0.0975
     25 C20        14.0313   -2.0988   -4.0416 C.ar      1 <0>        -0.0354
     26 Cl1        13.3580   -3.0513   -5.3273 Cl        1 <0>        -0.0417
     27 O6         17.2890   -1.1213   -2.7469 O.3       1 <0>        -0.2517
     28 C21        17.7729   -0.4547   -1.6656 C.ar      1 <0>         0.0728
     29 C22        17.7913   -1.0694   -0.4220 C.ar      1 <0>        -0.1022
     30 C23        18.2834   -0.3907    0.6759 C.ar      1 <0>        -0.1387
     31 C24        18.7580    0.9025    0.5357 C.ar      1 <0>         0.1027
     32 C25        18.7398    1.5174   -0.7047 C.ar      1 <0>        -0.1390
     33 C26        18.2541    0.8390   -1.8057 C.ar      1 <0>        -0.0916
     34 F1         19.2389    1.5651    1.6104 F         1 <0>        -0.1337
     35 H1         -1.5340    0.6011   -1.9360 H         1 <0>         0.0502
     36 H2         -1.5236   -0.8222   -0.8673 H         1 <0>         0.0566
     37 H3         -1.9203    0.7829   -0.2080 H         1 <0>         0.0780
     38 H4          0.0477    2.5519   -0.0326 H         1 <0>         0.0751
     39 H5          1.5825    2.1019   -0.8138 H         1 <0>         0.0666
     40 H6          0.1084    2.2942   -1.7927 H         1 <0>         0.0510
     41 H7          2.2092    1.0646    0.3530 H         1 <0>         0.1456
     42 H8          4.6512    1.2560    0.5935 H         1 <0>         0.1230
     43 H9          5.1843   -1.2558   -2.8218 H         1 <0>         0.1225
     44 H10         2.7423   -1.4540   -3.0573 H         1 <0>         0.1229
     45 H11         7.0053   -1.6468   -1.8666 H         1 <0>         0.0600
     46 H12         6.9961   -0.2139   -2.9225 H         1 <0>         0.0590
     47 H13         8.9182    0.7235   -1.6673 H         1 <0>         0.0761
     48 H14         8.9274   -0.7095   -0.6114 H         1 <0>         0.0769
     49 H15         9.3445   -2.1578   -2.5804 H         1 <0>         0.0798
     50 H16         9.3353   -0.7248   -3.6363 H         1 <0>         0.0792
     51 H17        11.2574    0.2125   -2.3811 H         1 <0>         0.0666
     52 H18        11.2666   -1.2204   -1.3252 H         1 <0>         0.0669
     53 H19        13.0785   -0.1862   -1.4205 H         1 <0>         0.1436
     54 H20        15.5201    0.0073   -1.1809 H         1 <0>         0.1365
     55 H21        16.0556   -2.4882   -4.6084 H         1 <0>         0.1505
     56 H22        17.4209   -2.0779   -0.3123 H         1 <0>         0.1428
     57 H23        18.2975   -0.8688    1.6442 H         1 <0>         0.1450
     58 H24        19.1097    2.5264   -0.8124 H         1 <0>         0.1457
     59 H25        18.2445    1.3171   -2.7740 H         1 <0>         0.1445
@<TRIPOS>BOND
     1    1    2 1
     2    1   35 1
     3    1   36 1
     4    1   37 1
     5    2    3 1
     6    2    4 1
     7    2    7 1
     8    3   38 1
     9    3   39 1
    10    3   40 1
    11    4    5 2
    12    4    6 1
    13    7    8 1
    14    8   13 ar
    15    8    9 ar
    16    9   10 ar
    17    9   41 1
    18   10   11 ar
    19   10   42 1
    20   11   12 ar
    21   11   14 1
    22   12   13 ar
    23   12   43 1
    24   13   44 1
    25   14   15 1
    26   15   16 1
    27   15   45 1
    28   15   46 1
    29   16   17 1
    30   16   47 1
    31   16   48 1
    32   17   18 1
    33   17   49 1
    34   17   50 1
    35   18   19 1
    36   18   51 1
    37   18   52 1
    38   19   20 1
    39   20   25 ar
    40   20   21 ar
    41   21   22 ar
    42   21   53 1
    43   22   23 ar
    44   22   54 1
    45   23   24 ar
    46   23   27 1
    47   24   25 ar
    48   24   55 1
    49   25   26 1
    50   27   28 1
    51   28   33 ar
    52   28   29 ar
    53   29   30 ar
    54   29   56 1
    55   30   31 ar
    56   30   57 1
    57   31   32 ar
    58   31   34 1
    59   32   33 ar
    60   32   58 1
    61   33   59 1
@<TRIPOS>MOLECULE
CHEMBL395924
   64    67     0     0     0
SMALL
USER_CHARGES

@<TRIPOS>ATOM
      1 C1         -1.4789   -0.2562   -0.3699 C.3       1 <0>        -0.1147
      2 C2         -0.0199    0.1619   -0.1767 C.3       1 <0>         0.0303
      3 C3          0.1469    1.6298   -0.5745 C.3       1 <0>        -0.1737
      4 C4          0.3656   -0.0135    1.2696 C.2       1 <0>         0.4818
      5 O1          1.2764   -0.7660    1.5707 O.co2     1 <0>        -0.6692
      6 O2         -0.2333    0.5971    2.1385 O.co2     1 <0>        -0.6868
      7 O3          0.8214   -0.6522   -0.9960 O.3       1 <0>        -0.3046
      8 C5          2.1554   -0.3953   -0.9577 C.ar      1 <0>         0.1675
      9 C6          2.6591    0.5304   -0.0551 C.ar      1 <0>        -0.1570
     10 C7          4.0153    0.7894   -0.0178 C.ar      1 <0>        -0.0967
     11 C8          4.8709    0.1270   -0.8789 C.ar      1 <0>        -0.1653
     12 C9          4.3715   -0.7954   -1.7794 C.ar      1 <0>        -0.0650
     13 C10         3.0163   -1.0623   -1.8168 C.ar      1 <0>        -0.1673
     14 C11         5.3066   -1.5151   -2.7167 C.3       1 <0>        -0.0653
     15 C12         5.7962   -2.8059   -2.0571 C.3       1 <0>        -0.1327
     16 C13         6.7457   -3.5366   -3.0087 C.3       1 <0>         0.1377
     17 N1          7.2145   -4.7725   -2.3772 N.pl3     1 <0>        -0.5645
     18 C14         6.4657   -6.0183   -2.5603 C.3       1 <0>         0.1225
     19 C15         6.9913   -6.7524   -3.7955 C.3       1 <0>         0.0363
     20 O4          8.3442   -7.1540   -3.5711 O.3       1 <0>        -0.3051
     21 C16         8.9642   -7.8233   -4.5784 C.ar      1 <0>         0.1336
     22 C17         8.2863   -8.0830   -5.7606 C.ar      1 <0>        -0.2105
     23 C18         8.9189   -8.7632   -6.7831 C.ar      1 <0>        -0.0805
     24 C19        10.2265   -9.1853   -6.6289 C.ar      1 <0>        -0.1617
     25 C20        10.9042   -8.9281   -5.4515 C.ar      1 <0>        -0.0805
     26 C21        10.2780   -8.2429   -4.4283 C.ar      1 <0>        -0.1519
     27 C22         8.3585   -4.7633   -1.6117 C.2       1 <0>         0.5200
     28 N2          9.0969   -3.7082   -1.3797 N.2       1 <0>        -0.5411
     29 C23        10.1421   -4.0727   -0.5872 C.ar      1 <0>         0.0670
     30 C24        11.2214   -3.3802   -0.0367 C.ar      1 <0>        -0.0835
     31 C25        12.1368   -4.0509    0.7444 C.ar      1 <0>        -0.1120
     32 C26        11.9919   -5.4085    0.9856 C.ar      1 <0>        -0.1191
     33 C27        10.9290   -6.1053    0.4472 C.ar      1 <0>        -0.0808
     34 C28         9.9990   -5.4462   -0.3402 C.ar      1 <0>        -0.0102
     35 O5          8.8772   -5.8359   -0.9885 O.3       1 <0>        -0.2225
     36 H1         -1.7830   -0.0506   -1.3962 H         1 <0>         0.0501
     37 H2         -1.5812   -1.3223   -0.1673 H         1 <0>         0.0562
     38 H3         -2.1120    0.3064    0.3163 H         1 <0>         0.0780
     39 H4         -0.3260    2.2652    0.1743 H         1 <0>         0.0745
     40 H5          1.2081    1.8708   -0.6377 H         1 <0>         0.0678
     41 H6         -0.3225    1.7992   -1.5436 H         1 <0>         0.0501
     42 H7          1.9912    1.0482    0.6173 H         1 <0>         0.1373
     43 H8          4.4078    1.5101    0.6843 H         1 <0>         0.1131
     44 H9          5.9310    0.3309   -0.8482 H         1 <0>         0.1112
     45 H10         2.6272   -1.7863   -2.5173 H         1 <0>         0.1169
     46 H11         4.7808   -1.7560   -3.6406 H         1 <0>         0.0687
     47 H12         6.1601   -0.8752   -2.9406 H         1 <0>         0.0718
     48 H13         6.3221   -2.5650   -1.1332 H         1 <0>         0.0735
     49 H14         4.9427   -3.4458   -1.8331 H         1 <0>         0.0679
     50 H15         6.2198   -3.7774   -3.9326 H         1 <0>         0.0843
     51 H16         7.5992   -2.8966   -3.2327 H         1 <0>         0.0921
     52 H17         6.5914   -6.6503   -1.6811 H         1 <0>         0.0931
     53 H18         5.4084   -5.7903   -2.6956 H         1 <0>         0.1167
     54 H19         6.3772   -7.6332   -3.9834 H         1 <0>         0.0774
     55 H20         6.9478   -6.0883   -4.6587 H         1 <0>         0.0695
     56 H21         7.2647   -7.7541   -5.8812 H         1 <0>         0.1270
     57 H22         8.3916   -8.9656   -7.7036 H         1 <0>         0.1238
     58 H23        10.7192   -9.7172   -7.4294 H         1 <0>         0.1225
     59 H24        11.9254   -9.2591   -5.3334 H         1 <0>         0.1278
     60 H25        10.8092   -8.0383   -3.5105 H         1 <0>         0.1276
     61 H26        11.3387   -2.3228   -0.2225 H         1 <0>         0.1318
     62 H27        12.9725   -3.5161    1.1710 H         1 <0>         0.1320
     63 H28        12.7159   -5.9244    1.5988 H         1 <0>         0.1346
     64 H29        10.8227   -7.1628    0.6391 H         1 <0>         0.1287
@<TRIPOS>BOND
     1    1    2 1
     2    1   36 1
     3    1   37 1
     4    1   38 1
     5    2    3 1
     6    2    4 1
     7    2    7 1
     8    3   39 1
     9    3   40 1
    10    3   41 1
    11    4    5 2
    12    4    6 1
    13    7    8 1
    14    8   13 ar
    15    8    9 ar
    16    9   10 ar
    17    9   42 1
    18   10   11 ar
    19   10   43 1
    20   11   12 ar
    21   11   44 1
    22   12   13 ar
    23   12   14 1
    24   13   45 1
    25   14   15 1
    26   14   46 1
    27   14   47 1
    28   15   16 1
    29   15   48 1
    30   15   49 1
    31   16   17 1
    32   16   50 1
    33   16   51 1
    34   17   18 1
    35   17   27 1
    36   18   19 1
    37   18   52 1
    38   18   53 1
    39   19   20 1
    40   19   54 1
    41   19   55 1
    42   20   21 1
    43   21   26 ar
    44   21   22 ar
    45   22   23 ar
    46   22   56 1
    47   23   24 ar
    48   23   57 1
    49   24   25 ar
    50   24   58 1
    51   25   26 ar
    52   25   59 1
    53   26   60 1
    54   27   35 1
    55   27   28 2
    56   28   29 1
    57   29   34 ar
    58   29   30 ar
    59   30   31 ar
    60   30   61 1
    61   31   32 ar
    62   31   62 1
    63   32   33 ar
    64   32   63 1
    65   33   34 ar
    66   33   64 1
    67   34   35 1
@<TRIPOS>MOLECULE
CHEMBL470322
   67    70     0     0     0
SMALL
USER_CHARGES

@<TRIPOS>ATOM
      1 C1         -2.3160    0.6463    1.1017 C.3       1 <0>        -0.0954
      2 C2         -1.9989   -0.8260    1.0483 C.ar      1 <0>        -0.1426
      3 C3         -1.8494   -1.4572   -0.1717 C.ar      1 <0>        -0.0742
      4 C4         -1.5590   -2.8079   -0.2214 C.ar      1 <0>        -0.1655
      5 C5         -1.4169   -3.5305    0.9490 C.ar      1 <0>        -0.0787
      6 C6         -1.5650   -2.9041    2.1711 C.ar      1 <0>        -0.1560
      7 C7         -1.8512   -1.5474    2.2238 C.ar      1 <0>         0.1798
      8 O1         -1.9918   -0.9276    3.4250 O.3       1 <0>        -0.2984
      9 C8         -1.6964   -1.6985    4.5913 C.3       1 <0>         0.0291
     10 C9         -0.2476   -2.1861    4.5270 C.3       1 <0>        -0.1732
     11 C10        -1.8880   -0.8319    5.8376 C.3       1 <0>        -0.1147
     12 C11        -2.6232   -2.8850    4.6573 C.2       1 <0>         0.4816
     13 O2         -3.4592   -3.0547    3.7862 O.co2     1 <0>        -0.6683
     14 O3         -2.5370   -3.6753    5.5817 O.co2     1 <0>        -0.6859
     15 C12        -1.3975   -3.4940   -1.5534 C.3       1 <0>         0.1735
     16 N1          0.0052   -3.4265   -1.9706 N.am      1 <0>        -0.7084
     17 C13         0.3880   -3.9781   -3.1392 C.2       1 <0>         0.6011
     18 O4         -0.4307   -4.5317   -3.8471 O.2       1 <0>        -0.5376
     19 C14         1.8026   -3.9101   -3.5599 C.2       1 <0>        -0.0102
     20 C15         2.3468   -4.4344   -4.7525 C.2       1 <0>        -0.1669
     21 C16         3.6798   -4.1343   -4.7071 C.2       1 <0>         0.0607
     22 N2          3.8938   -3.4657   -3.5380 N.pl3     1 <0>        -0.2803
     23 N3          2.7892   -3.3435   -2.8938 N.2       1 <0>        -0.2546
     24 C17         5.1909   -2.9561   -3.0865 C.3       1 <0>         0.0785
     25 C18         4.6952   -4.4710   -5.7294 C.ar      1 <0>        -0.0788
     26 C19         4.4578   -5.5044   -6.6366 C.ar      1 <0>        -0.0397
     27 C20         5.4051   -5.8156   -7.5881 C.ar      1 <0>        -0.1934
     28 C21         6.5964   -5.1010   -7.6445 C.ar      1 <0>         0.2262
     29 C22         6.8358   -4.0712   -6.7415 C.ar      1 <0>        -0.1946
     30 C23         5.8896   -3.7520   -5.7917 C.ar      1 <0>        -0.0708
     31 N4          7.5540   -5.4183   -8.6091 N.pl3     1 <0>        -0.6308
     32 C24         8.8619   -4.7441   -8.6285 C.3       1 <0>         0.0851
     33 C25         9.9568   -5.8149   -8.6959 C.3       1 <0>         0.0455
     34 O5          9.6827   -6.7005   -9.7843 O.3       1 <0>        -0.3796
     35 C26         8.4574   -7.4255   -9.6546 C.3       1 <0>         0.0453
     36 C27         7.2878   -6.4412   -9.6329 C.3       1 <0>         0.0839
     37 H1         -1.3878    1.2174    1.1211 H         1 <0>         0.0580
     38 H2         -2.8960    0.9252    0.2220 H         1 <0>         0.0568
     39 H3         -2.8936    0.8611    2.0008 H         1 <0>         0.0670
     40 H4         -1.9599   -0.8950   -1.0872 H         1 <0>         0.1187
     41 H5         -1.1904   -4.5857    0.9075 H         1 <0>         0.1152
     42 H6         -1.4539   -3.4689    3.0849 H         1 <0>         0.1408
     43 H7          0.4266   -1.3423    4.6739 H         1 <0>         0.0503
     44 H8         -0.0784   -2.9267    5.3086 H         1 <0>         0.0748
     45 H9         -0.0588   -2.6366    3.5526 H         1 <0>         0.0674
     46 H10        -2.8957   -0.4165    5.8399 H         1 <0>         0.0568
     47 H11        -1.7442   -1.4415    6.7297 H         1 <0>         0.0782
     48 H12        -1.1605   -0.0202    5.8310 H         1 <0>         0.0502
     49 H13        -1.7001   -4.5373   -1.4638 H         1 <0>         0.0740
     50 H14        -2.0217   -2.9972   -2.2961 H         1 <0>         0.0732
     51 H15         0.6585   -2.9848   -1.4057 H         1 <0>         0.4076
     52 H16         1.8212   -4.9615   -5.5350 H         1 <0>         0.1628
     53 H17         5.3371   -1.9456   -3.4681 H         1 <0>         0.0864
     54 H18         5.2157   -2.9401   -1.9969 H         1 <0>         0.0999
     55 H19         5.9851   -3.6034   -3.4585 H         1 <0>         0.0992
     56 H20         3.5327   -6.0601   -6.5930 H         1 <0>         0.1314
     57 H21         5.2220   -6.6155   -8.2902 H         1 <0>         0.1282
     58 H22         7.7622   -3.5180   -6.7874 H         1 <0>         0.1261
     59 H23         6.0740   -2.9488   -5.0936 H         1 <0>         0.1275
     60 H24         8.9279   -4.0961   -9.5024 H         1 <0>         0.0720
     61 H25         8.9830   -4.1518   -7.7216 H         1 <0>         0.0936
     62 H26        10.9243   -5.3371   -8.8501 H         1 <0>         0.1054
     63 H27         9.9727   -6.3786   -7.7631 H         1 <0>         0.0564
     64 H28         8.3462   -8.1064  -10.4985 H         1 <0>         0.1062
     65 H29         8.4679   -7.9950   -8.7253 H         1 <0>         0.0564
     66 H30         6.3672   -6.9721   -9.3908 H         1 <0>         0.0953
     67 H31         7.1927   -5.9669  -10.6097 H         1 <0>         0.0723
@<TRIPOS>BOND
     1    1    2 1
     2    1   37 1
     3    1   38 1
     4    1   39 1
     5    2    7 ar
     6    2    3 ar
     7    3    4 ar
     8    3   40 1
     9    4    5 ar
    10    4   15 1
    11    5    6 ar
    12    5   41 1
    13    6    7 ar
    14    6   42 1
    15    7    8 1
    16    8    9 1
    17    9   10 1
    18    9   11 1
    19    9   12 1
    20   10   43 1
    21   10   44 1
    22   10   45 1
    23   11   46 1
    24   11   47 1
    25   11   48 1
    26   12   13 2
    27   12   14 1
    28   15   16 1
    29   15   49 1
    30   15   50 1
    31   16   17 am
    32   16   51 1
    33   17   18 2
    34   17   19 1
    35   19   23 2
    36   19   20 1
    37   20   21 2
    38   20   52 1
    39   21   22 1
    40   21   25 1
    41   22   23 1
    42   22   24 1
    43   24   53 1
    44   24   54 1
    45   24   55 1
    46   25   30 ar
    47   25   26 ar
    48   26   27 ar
    49   26   56 1
    50   27   28 ar
    51   27   57 1
    52   28   29 ar
    53   28   31 1
    54   29   30 ar
    55   29   58 1
    56   30   59 1
    57   31   36 1
    58   31   32 1
    59   32   33 1
    60   32   60 1
    61   32   61 1
    62   33   34 1
    63   33   62 1
    64   33   63 1
    65   34   35 1
    66   35   36 1
    67   35   64 1
    68   35   65 1
    69   36   66 1
    70   36   67 1
@<TRIPOS>MOLECULE
CHEMBL375427
   63    67     0     0     0
SMALL
USER_CHARGES

@<TRIPOS>ATOM
      1 C1         -1.2698    1.5253    0.5472 C.3       1 <0>         0.0233
      2 O1         -1.1170    0.1049    0.5136 O.3       1 <0>        -0.3008
      3 C2         -0.3096   -0.4065   -0.4540 C.ar      1 <0>         0.0998
      4 C3          0.3238    0.4404   -1.3447 C.ar      1 <0>        -0.1222
      5 C4          1.1523   -0.0878   -2.3364 C.ar      1 <0>        -0.0232
      6 C5          1.3376   -1.4686   -2.4245 C.ar      1 <0>        -0.0777
      7 C6          0.7028   -2.3080   -1.5329 C.ar      1 <0>        -0.1736
      8 C7         -0.1162   -1.7829   -0.5441 C.ar      1 <0>         0.1324
      9 O2         -0.7356   -2.6139    0.3356 O.3       1 <0>        -0.2945
     10 C8         -0.4932   -4.0143    0.1860 C.3       1 <0>         0.0598
     11 C9         -1.2690   -4.7834    1.2572 C.3       1 <0>        -0.1187
     12 C10        -1.0095   -6.2827    1.0971 C.3       1 <0>         0.0659
     13 O3         -1.7341   -7.0011    2.0975 O.3       1 <0>        -0.3150
     14 C11        -1.6120   -8.3546    2.0953 C.ar      1 <0>         0.1144
     15 C12        -0.8070   -8.9789    1.1535 C.ar      1 <0>        -0.2083
     16 C13        -0.6862  -10.3537    1.1553 C.ar      1 <0>        -0.0704
     17 C14        -1.3658  -11.1136    2.0934 C.ar      1 <0>        -0.1082
     18 C15        -2.1688  -10.4938    3.0329 C.ar      1 <0>        -0.0611
     19 C16        -2.2869   -9.1147    3.0375 C.ar      1 <0>        -0.1402
     20 C17        -2.7961  -11.5341    3.9361 C.3       1 <0>        -0.0829
     21 C18        -2.6408  -12.8712    3.1809 C.3       1 <0>        -0.1019
     22 C19        -1.3989  -12.6128    2.3016 C.3       1 <0>        -0.0265
     23 H1         -0.4962  -12.9432    2.8156 H         1 <0>         0.0888
     24 C20        -1.5401  -13.3323    0.9588 C.3       1 <0>        -0.1740
     25 C21        -1.4305  -14.8201    1.1721 C.2       1 <0>         0.4909
     26 O4         -1.1513  -15.2589    2.2748 O.co2     1 <0>        -0.6953
     27 O5         -1.6211  -15.5850    0.2420 O.co2     1 <0>        -0.7083
     28 C22         1.8313    0.8128   -3.2913 C.2       1 <0>         0.1940
     29 N1          1.7921    2.1355   -3.3731 N.2       1 <0>        -0.5115
     30 C23         2.4647    2.8061   -4.2970 C.2       1 <0>         0.2680
     31 C24         3.2129    2.0771   -5.1789 C.2       1 <0>        -0.2724
     32 S1          2.9339    0.4114   -4.6433 S.3       1 <0>         0.0508
     33 C25         4.0480    2.5994   -6.2983 C.3       1 <0>        -0.0286
     34 C26         3.6457    4.0686   -6.5264 C.3       1 <0>        -0.1535
     35 C27         3.5255    4.7549   -5.1614 C.3       1 <0>         0.0624
     36 O6          2.4503    4.1832   -4.4124 O.3       1 <0>        -0.2918
     37 H2         -0.2968    1.9919    0.7009 H         1 <0>         0.0573
     38 H3         -1.6918    1.8678   -0.3976 H         1 <0>         0.0575
     39 H4         -1.9374    1.7997    1.3641 H         1 <0>         0.1035
     40 H5          0.1777    1.5081   -1.2736 H         1 <0>         0.1503
     41 H6          1.9778   -1.8797   -3.1911 H         1 <0>         0.1346
     42 H7          0.8471   -3.3761   -1.6021 H         1 <0>         0.1475
     43 H8         -0.8218   -4.3363   -0.8021 H         1 <0>         0.0702
     44 H9          0.5729   -4.2124    0.2969 H         1 <0>         0.0700
     45 H10        -0.9405   -4.4613    2.2454 H         1 <0>         0.0871
     46 H11        -2.3351   -4.5853    1.1463 H         1 <0>         0.0873
     47 H12        -1.3381   -6.6048    0.1089 H         1 <0>         0.0646
     48 H13         0.0566   -6.4808    1.2080 H         1 <0>         0.0643
     49 H14        -0.2761   -8.3902    0.4200 H         1 <0>         0.1236
     50 H15        -0.0594  -10.8393    0.4220 H         1 <0>         0.1223
     51 H16        -2.9102   -8.6300    3.7744 H         1 <0>         0.1240
     52 H17        -2.2690  -11.5747    4.8893 H         1 <0>         0.0793
     53 H18        -3.8508  -11.3101    4.0954 H         1 <0>         0.0708
     54 H19        -2.4592  -13.6903    3.8767 H         1 <0>         0.0853
     55 H20        -3.5170  -13.0720    2.5644 H         1 <0>         0.0643
     56 H21        -2.5109  -13.0985    0.5216 H         1 <0>         0.0567
     57 H22        -0.7493  -13.0026    0.2850 H         1 <0>         0.0557
     58 H23         5.1032    2.5413   -6.0316 H         1 <0>         0.0866
     59 H24         3.8608    2.0195   -7.2020 H         1 <0>         0.0901
     60 H25         4.4080    4.5694   -7.1231 H         1 <0>         0.0947
     61 H26         2.6874    4.1106   -7.0440 H         1 <0>         0.0818
     62 H27         4.4572    4.6277   -4.6101 H         1 <0>         0.0654
     63 H28         3.3379    5.8187   -5.3076 H         1 <0>         0.1153
@<TRIPOS>BOND
     1    1    2 1
     2    1   37 1
     3    1   38 1
     4    1   39 1
     5    2    3 1
     6    3    8 ar
     7    3    4 ar
     8    4    5 ar
     9    4   40 1
    10    5    6 ar
    11    5   28 1
    12    6    7 ar
    13    6   41 1
    14    7    8 ar
    15    7   42 1
    16    8    9 1
    17    9   10 1
    18   10   11 1
    19   10   43 1
    20   10   44 1
    21   11   12 1
    22   11   45 1
    23   11   46 1
    24   12   13 1
    25   12   47 1
    26   12   48 1
    27   13   14 1
    28   14   19 ar
    29   14   15 ar
    30   15   16 ar
    31   15   49 1
    32   16   17 ar
    33   16   50 1
    34   17   22 1
    35   17   18 ar
    36   18   19 ar
    37   18   20 1
    38   19   51 1
    39   20   21 1
    40   20   52 1
    41   20   53 1
    42   21   22 1
    43   21   54 1
    44   21   55 1
    45   22   23 1
    46   22   24 1
    47   24   25 1
    48   24   56 1
    49   24   57 1
    50   25   26 2
    51   25   27 1
    52   28   32 1
    53   28   29 2
    54   29   30 1
    55   30   36 1
    56   30   31 2
    57   31   32 1
    58   31   33 1
    59   33   34 1
    60   33   58 1
    61   33   59 1
    62   34   35 1
    63   34   60 1
    64   34   61 1
    65   35   36 1
    66   35   62 1
    67   35   63 1
@<TRIPOS>MOLECULE
CHEMBL219686
   57    59     0     0     0
SMALL
USER_CHARGES

@<TRIPOS>ATOM
      1 C1          1.0144    2.6712    0.6163 C.3       1 <0>        -0.1524
      2 C2          0.8070    1.1631    0.4633 C.3       1 <0>        -0.1179
      3 C3          1.4470    0.4374    1.6484 C.3       1 <0>        -0.0726
      4 C4          1.2427   -1.0481    1.4977 C.ar      1 <0>        -0.1142
      5 C5          0.1720   -1.6650    2.1157 C.ar      1 <0>        -0.0315
      6 C6         -0.0157   -3.0277    1.9782 C.ar      1 <0>        -0.2216
      7 C7          0.8670   -3.7768    1.2218 C.ar      1 <0>        -0.0321
      8 C8          1.9387   -3.1647    0.6016 C.ar      1 <0>        -0.2086
      9 C9          2.1263   -1.7963    0.7337 C.ar      1 <0>         0.1682
     10 O1          3.1768   -1.1909    0.1199 O.3       1 <0>        -0.2999
     11 C10         4.0457   -2.0236   -0.6506 C.3       1 <0>         0.0598
     12 C11         5.1604   -1.1712   -1.2605 C.3       1 <0>        -0.1183
     13 C12         6.0907   -2.0628   -2.0854 C.3       1 <0>         0.0657
     14 O2          7.1318   -1.2667   -2.6551 O.3       1 <0>        -0.3151
     15 C13         8.0504   -1.9099   -3.4228 C.ar      1 <0>         0.1135
     16 C14         7.9492   -3.2782   -3.6289 C.ar      1 <0>        -0.2082
     17 C15         8.8845   -3.9269   -4.4094 C.ar      1 <0>        -0.0704
     18 C16         9.9247   -3.2178   -4.9879 C.ar      1 <0>        -0.1073
     19 C17        10.0276   -1.8542   -4.7839 C.ar      1 <0>        -0.0608
     20 C18         9.0876   -1.1998   -4.0068 C.ar      1 <0>        -0.1398
     21 C19        11.2391   -1.3174   -5.5158 C.3       1 <0>        -0.0829
     22 C20        12.1064   -2.5563   -5.8244 C.3       1 <0>        -0.1019
     23 C21        11.0600   -3.6899   -5.8711 C.3       1 <0>        -0.0268
     24 H1         10.7084   -3.8383   -6.8921 H         1 <0>         0.0891
     25 C22        11.6571   -4.9865   -5.3204 C.3       1 <0>        -0.1740
     26 C23        12.6882   -5.5140   -6.2846 C.2       1 <0>         0.4909
     27 O3         12.8493   -4.9689   -7.3632 O.co2     1 <0>        -0.6952
     28 O4         13.3612   -6.4858   -5.9861 O.co2     1 <0>        -0.7080
     29 C24        -1.1839   -3.6981    2.6542 C.3       1 <0>         0.5124
     30 F1         -2.2858   -3.6955    1.7922 F         1 <0>        -0.1777
     31 F2         -0.8440   -5.0173    2.9727 F         1 <0>        -0.1779
     32 F3         -1.5062   -3.0039    3.8252 F         1 <0>        -0.1782
     33 H2          2.0818    2.8903    0.6431 H         1 <0>         0.0561
     34 H3          0.5584    3.1882   -0.2280 H         1 <0>         0.0549
     35 H4          0.5508    3.0095    1.5429 H         1 <0>         0.0536
     36 H5         -0.2604    0.9440    0.4365 H         1 <0>         0.0606
     37 H6          1.2707    0.8247   -0.4634 H         1 <0>         0.0653
     38 H7          2.5145    0.6564    1.6752 H         1 <0>         0.0808
     39 H8          0.9834    0.7757    2.5751 H         1 <0>         0.0738
     40 H9         -0.5187   -1.0822    2.7070 H         1 <0>         0.1415
     41 H10         0.7184   -4.8413    1.1162 H         1 <0>         0.1388
     42 H11         2.6277   -3.7502    0.0110 H         1 <0>         0.1413
     43 H12         4.4829   -2.7867   -0.0066 H         1 <0>         0.0708
     44 H13         3.4773   -2.5028   -1.4476 H         1 <0>         0.0707
     45 H14         4.7232   -0.4081   -1.9044 H         1 <0>         0.0871
     46 H15         5.7288   -0.6920   -0.4634 H         1 <0>         0.0872
     47 H16         6.5279   -2.8259   -1.4415 H         1 <0>         0.0646
     48 H17         5.5223   -2.5420   -2.8825 H         1 <0>         0.0643
     49 H18         7.1403   -3.8348   -3.1791 H         1 <0>         0.1231
     50 H19         8.8054   -4.9920   -4.5696 H         1 <0>         0.1225
     51 H20         9.1651   -0.1339   -3.8513 H         1 <0>         0.1241
     52 H21        10.9357   -0.8281   -6.4414 H         1 <0>         0.0795
     53 H22        11.7868   -0.6210   -4.8808 H         1 <0>         0.0709
     54 H23        12.6054   -2.4498   -6.7876 H         1 <0>         0.0856
     55 H24        12.8307   -2.7301   -5.0286 H         1 <0>         0.0644
     56 H25        12.1277   -4.7894   -4.3571 H         1 <0>         0.0567
     57 H26        10.8662   -5.7257   -5.1939 H         1 <0>         0.0557
@<TRIPOS>BOND
     1    1    2 1
     2    1   33 1
     3    1   34 1
     4    1   35 1
     5    2    3 1
     6    2   36 1
     7    2   37 1
     8    3    4 1
     9    3   38 1
    10    3   39 1
    11    4    9 ar
    12    4    5 ar
    13    5    6 ar
    14    5   40 1
    15    6    7 ar
    16    6   29 1
    17    7    8 ar
    18    7   41 1
    19    8    9 ar
    20    8   42 1
    21    9   10 1
    22   10   11 1
    23   11   12 1
    24   11   43 1
    25   11   44 1
    26   12   13 1
    27   12   45 1
    28   12   46 1
    29   13   14 1
    30   13   47 1
    31   13   48 1
    32   14   15 1
    33   15   20 ar
    34   15   16 ar
    35   16   17 ar
    36   16   49 1
    37   17   18 ar
    38   17   50 1
    39   18   23 1
    40   18   19 ar
    41   19   20 ar
    42   19   21 1
    43   20   51 1
    44   21   22 1
    45   21   52 1
    46   21   53 1
    47   22   23 1
    48   22   54 1
    49   22   55 1
    50   23   24 1
    51   23   25 1
    52   25   26 1
    53   25   56 1
    54   25   57 1
    55   26   27 2
    56   26   28 1
    57   29   30 1
    58   29   31 1
    59   29   32 1
@<TRIPOS>MOLECULE
CHEMBL424939
   61    65     0     0     0
SMALL
USER_CHARGES

@<TRIPOS>ATOM
      1 C1          1.0716    1.5554    0.8251 C.3       1 <0>         0.0236
      2 O1          1.0017    0.1324    0.7146 O.3       1 <0>        -0.3006
      3 C2         -0.2267   -0.4107    0.5010 C.ar      1 <0>         0.0983
      4 C3         -1.3354    0.4080    0.3948 C.ar      1 <0>        -0.1206
      5 C4         -2.5950   -0.1528    0.1755 C.ar      1 <0>        -0.0305
      6 C5         -2.7295   -1.5378    0.0643 C.ar      1 <0>        -0.0745
      7 C6         -1.6196   -2.3492    0.1711 C.ar      1 <0>        -0.1748
      8 C7         -0.3669   -1.7918    0.3834 C.ar      1 <0>         0.1344
      9 O2          0.7248   -2.5951    0.4823 O.3       1 <0>        -0.2942
     10 C8          0.5092   -4.0018    0.3522 C.3       1 <0>         0.0596
     11 C9          1.8436   -4.7373    0.4906 C.3       1 <0>        -0.1187
     12 C10         1.6127   -6.2433    0.3513 C.3       1 <0>         0.0658
     13 O3          2.8591   -6.9303    0.4805 O.3       1 <0>        -0.3150
     14 C11         2.8300   -8.2853    0.3806 C.ar      1 <0>         0.1143
     15 C12         1.6277   -8.9407    0.1570 C.ar      1 <0>        -0.2082
     16 C13         1.6033  -10.3168    0.0563 C.ar      1 <0>        -0.0704
     17 C14         2.7742  -11.0473    0.1780 C.ar      1 <0>        -0.1081
     18 C15         3.9735  -10.3965    0.4010 C.ar      1 <0>        -0.0611
     19 C16         4.0021   -9.0159    0.4962 C.ar      1 <0>        -0.1402
     20 C17         5.0950  -11.4088    0.4959 C.3       1 <0>        -0.0829
     21 C18         4.3971  -12.7629    0.7439 C.3       1 <0>        -0.1019
     22 C19         3.0085  -12.5413    0.1077 C.3       1 <0>        -0.0266
     23 H1          3.0102  -12.8754   -0.9299 H         1 <0>         0.0888
     24 C20         1.9348  -13.2852    0.9043 C.3       1 <0>        -0.1740
     25 C21         2.1018  -14.7700    0.7078 C.2       1 <0>         0.4909
     26 O4          2.9277  -15.1910   -0.0841 O.co2     1 <0>        -0.6953
     27 O5          1.4111  -15.5502    1.3408 O.co2     1 <0>        -0.7083
     28 C22        -3.7836    0.7181    0.0617 C.2       1 <0>         0.2143
     29 N1         -3.8555    2.0296    0.1327 N.2       1 <0>        -0.5042
     30 C23        -5.0184    2.6989    0.0094 C.ar      1 <0>         0.0806
     31 C24        -5.2330    4.0969    0.0660 C.ar      1 <0>        -0.0615
     32 C25        -6.4812    4.6166   -0.0778 C.ar      1 <0>        -0.1114
     33 C26        -7.5890    3.8062   -0.2844 C.ar      1 <0>        -0.0946
     34 C27        -7.4233    2.4351   -0.3467 C.ar      1 <0>        -0.0668
     35 C28        -6.1667    1.8998   -0.2027 C.ar      1 <0>        -0.1435
     36 S1         -5.4884    0.2580   -0.2152 S.3       1 <0>        -0.0015
     37 H2          2.1056    1.8563    0.9939 H         1 <0>         0.1036
     38 H3          0.7068    2.0097   -0.0960 H         1 <0>         0.0569
     39 H4          0.4559    1.8855    1.6618 H         1 <0>         0.0570
     40 H5         -1.2276    1.4791    0.4817 H         1 <0>         0.1498
     41 H6         -3.7029   -1.9739   -0.1050 H         1 <0>         0.1350
     42 H7         -1.7251   -3.4206    0.0850 H         1 <0>         0.1478
     43 H8         -0.1738   -4.3383    1.1322 H         1 <0>         0.0704
     44 H9          0.0770   -4.2141   -0.6257 H         1 <0>         0.0703
     45 H10         2.5266   -4.4007   -0.2894 H         1 <0>         0.0872
     46 H11         2.2758   -4.5249    1.4685 H         1 <0>         0.0873
     47 H12         0.9297   -6.5799    1.1312 H         1 <0>         0.0646
     48 H13         1.1805   -6.4557   -0.6266 H         1 <0>         0.0644
     49 H14         0.7126   -8.3750    0.0623 H         1 <0>         0.1235
     50 H15         0.6672  -10.8266   -0.1179 H         1 <0>         0.1223
     51 H16         4.9395   -8.5070    0.6655 H         1 <0>         0.1240
     52 H17         5.6576  -11.4385   -0.4373 H         1 <0>         0.0793
     53 H18         5.7549  -11.1652    1.3286 H         1 <0>         0.0708
     54 H19         4.9291  -13.5707    0.2414 H         1 <0>         0.0854
     55 H20         4.3067  -12.9623    1.8117 H         1 <0>         0.0643
     56 H21         2.0360  -13.0451    1.9627 H         1 <0>         0.0567
     57 H22         0.9478  -12.9813    0.5556 H         1 <0>         0.0557
     58 H23        -4.3949    4.7590    0.2257 H         1 <0>         0.1330
     59 H24        -6.6141    5.6873   -0.0297 H         1 <0>         0.1348
     60 H25        -8.5707    4.2425   -0.3951 H         1 <0>         0.1397
     61 H26        -8.2748    1.7904   -0.5065 H         1 <0>         0.1351
@<TRIPOS>BOND
     1    1    2 1
     2    1   37 1
     3    1   38 1
     4    1   39 1
     5    2    3 1
     6    3    8 ar
     7    3    4 ar
     8    4    5 ar
     9    4   40 1
    10    5    6 ar
    11    5   28 1
    12    6    7 ar
    13    6   41 1
    14    7    8 ar
    15    7   42 1
    16    8    9 1
    17    9   10 1
    18   10   11 1
    19   10   43 1
    20   10   44 1
    21   11   12 1
    22   11   45 1
    23   11   46 1
    24   12   13 1
    25   12   47 1
    26   12   48 1
    27   13   14 1
    28   14   19 ar
    29   14   15 ar
    30   15   16 ar
    31   15   49 1
    32   16   17 ar
    33   16   50 1
    34   17   22 1
    35   17   18 ar
    36   18   19 ar
    37   18   20 1
    38   19   51 1
    39   20   21 1
    40   20   52 1
    41   20   53 1
    42   21   22 1
    43   21   54 1
    44   21   55 1
    45   22   23 1
    46   22   24 1
    47   24   25 1
    48   24   56 1
    49   24   57 1
    50   25   26 2
    51   25   27 1
    52   28   36 1
    53   28   29 2
    54   29   30 1
    55   30   35 ar
    56   30   31 ar
    57   31   32 ar
    58   31   58 1
    59   32   33 ar
    60   32   59 1
    61   33   34 ar
    62   33   60 1
    63   34   35 ar
    64   34   61 1
    65   35   36 1
@<TRIPOS>MOLECULE
CHEMBL198529
   63    67     0     0     0
SMALL
USER_CHARGES

@<TRIPOS>ATOM
      1 C1         -0.0187    1.5258    0.0104 C.3       1 <0>        -0.1513
      2 C2          0.0021   -0.0041    0.0020 C.3       1 <0>        -0.1167
      3 C3          0.7182   -0.4975   -1.2568 C.3       1 <0>        -0.0675
      4 C4          0.7386   -2.0043   -1.2651 C.ar      1 <0>        -0.1285
      5 C5          1.7874   -2.6879   -0.6752 C.ar      1 <0>         0.1948
      6 C6          1.8132   -4.0802   -0.6789 C.ar      1 <0>        -0.2251
      7 C7          0.8034   -4.7889   -1.2649 C.ar      1 <0>        -0.0028
      8 C8         -0.2620   -4.1157   -1.8639 C.ar      1 <0>        -0.2229
      9 C9         -0.2974   -2.7119   -1.8594 C.ar      1 <0>         0.1279
     10 O1         -1.4279   -2.3376   -2.4927 O.3       1 <0>        -0.0833
     11 N1         -2.1386   -3.4862   -2.9085 N.2       1 <0>        -0.2859
     12 C10        -1.4782   -4.5594   -2.5636 C.2       1 <0>         0.1824
     13 C11        -1.8857   -5.9626   -2.8160 C.ar      1 <0>        -0.0407
     14 C12        -0.9213   -6.9362   -3.0707 C.ar      1 <0>        -0.0858
     15 C13        -1.3065   -8.2406   -3.3049 C.ar      1 <0>        -0.1191
     16 C14        -2.6468   -8.5825   -3.2873 C.ar      1 <0>        -0.0993
     17 C15        -3.6083   -7.6205   -3.0351 C.ar      1 <0>        -0.1201
     18 C16        -3.2344   -6.3141   -2.7938 C.ar      1 <0>        -0.0815
     19 O2          2.7988   -1.9961   -0.0890 O.3       1 <0>        -0.2965
     20 C17         3.8511   -2.7613    0.5018 C.3       1 <0>         0.0604
     21 C18         4.8908   -1.8162    1.1074 C.3       1 <0>        -0.1185
     22 C19         6.0176   -2.6355    1.7400 C.3       1 <0>         0.0668
     23 O3          6.9886   -1.7528    2.3057 O.3       1 <0>        -0.3170
     24 C20         8.0635   -2.3243    2.9118 C.ar      1 <0>         0.0853
     25 C21         8.1798   -3.7115    2.9537 C.ar      1 <0>        -0.1888
     26 C22         9.2616   -4.3064    3.5630 C.ar      1 <0>        -0.0761
     27 C23        10.2515   -3.5207    4.1441 C.ar      1 <0>         0.0883
     28 C24        10.1370   -2.1197    4.1035 C.ar      1 <0>        -0.0751
     29 C25         9.0377   -1.5270    3.4782 C.ar      1 <0>        -0.1114
     30 C26        11.3200   -1.5961    4.7907 C.2       1 <0>        -0.2342
     31 C27        12.0448   -2.6543    5.1871 C.2       1 <0>         0.0795
     32 N2         11.4230   -3.8131    4.8102 N.pl3     1 <0>        -0.4416
     33 C28        11.9262   -5.1632    5.0752 C.3       1 <0>         0.0318
     34 C29        12.7035   -5.6531    3.8807 C.2       1 <0>         0.4801
     35 O4         12.8258   -4.9405    2.8990 O.co2     1 <0>        -0.6712
     36 O5         13.2101   -6.7620    3.8961 O.co2     1 <0>        -0.6928
     37 H1          1.0039    1.9031    0.0027 H         1 <0>         0.0565
     38 H2         -0.5459    1.8868   -0.8726 H         1 <0>         0.0536
     39 H3         -0.5289    1.8773    0.9072 H         1 <0>         0.0541
     40 H4          0.5293   -0.3651    0.8851 H         1 <0>         0.0644
     41 H5         -1.0205   -0.3814    0.0098 H         1 <0>         0.0586
     42 H6          0.1910   -0.1364   -2.1398 H         1 <0>         0.0728
     43 H7          1.7408   -0.1202   -1.2645 H         1 <0>         0.0832
     44 H8          2.6370   -4.6028   -0.2158 H         1 <0>         0.1440
     45 H9          0.8297   -5.8686   -1.2650 H         1 <0>         0.1380
     46 H10         0.1254   -6.6703   -3.0850 H         1 <0>         0.1306
     47 H11        -0.5602   -8.9957   -3.5027 H         1 <0>         0.1325
     48 H12        -2.9437   -9.6044   -3.4715 H         1 <0>         0.1289
     49 H13        -4.6532   -7.8931   -3.0229 H         1 <0>         0.1309
     50 H14        -3.9856   -5.5648   -2.5922 H         1 <0>         0.1300
     51 H15         3.4410   -3.3997    1.2843 H         1 <0>         0.0716
     52 H16         4.3233   -3.3798   -0.2614 H         1 <0>         0.0722
     53 H17         5.3010   -1.1778    0.3249 H         1 <0>         0.0872
     54 H18         4.4187   -1.1977    1.8707 H         1 <0>         0.0865
     55 H19         5.6074   -3.2739    2.5225 H         1 <0>         0.0616
     56 H20         6.4897   -3.2540    0.9768 H         1 <0>         0.0629
     57 H21         7.4140   -4.3263    2.5044 H         1 <0>         0.1227
     58 H22         9.3416   -5.3831    3.5900 H         1 <0>         0.1179
     59 H23         8.9484   -0.4513    3.4414 H         1 <0>         0.1237
     60 H24        11.5633   -0.5557    4.9481 H         1 <0>         0.1414
     61 H25        12.9802   -2.5990    5.7241 H         1 <0>         0.1607
     62 H26        12.5774   -5.1432    5.9491 H         1 <0>         0.0877
     63 H27        11.0873   -5.8334    5.2626 H         1 <0>         0.0822
@<TRIPOS>BOND
     1    1    2 1
     2    1   37 1
     3    1   38 1
     4    1   39 1
     5    2    3 1
     6    2   40 1
     7    2   41 1
     8    3    4 1
     9    3   42 1
    10    3   43 1
    11    4    9 ar
    12    4    5 ar
    13    5    6 ar
    14    5   19 1
    15    6    7 ar
    16    6   44 1
    17    7    8 ar
    18    7   45 1
    19    8   12 1
    20    8    9 ar
    21    9   10 1
    22   10   11 1
    23   11   12 2
    24   12   13 1
    25   13   18 ar
    26   13   14 ar
    27   14   15 ar
    28   14   46 1
    29   15   16 ar
    30   15   47 1
    31   16   17 ar
    32   16   48 1
    33   17   18 ar
    34   17   49 1
    35   18   50 1
    36   19   20 1
    37   20   21 1
    38   20   51 1
    39   20   52 1
    40   21   22 1
    41   21   53 1
    42   21   54 1
    43   22   23 1
    44   22   55 1
    45   22   56 1
    46   23   24 1
    47   24   29 ar
    48   24   25 ar
    49   25   26 ar
    50   25   57 1
    51   26   27 ar
    52   26   58 1
    53   27   32 1
    54   27   28 ar
    55   28   29 ar
    56   28   30 1
    57   29   59 1
    58   30   31 2
    59   30   60 1
    60   31   32 1
    61   31   61 1
    62   32   33 1
    63   33   34 1
    64   33   62 1
    65   33   63 1
    66   34   35 2
    67   34   36 1
@<TRIPOS>MOLECULE
CHEMBL234689
   53    55     0     0     0
SMALL
USER_CHARGES

@<TRIPOS>ATOM
      1 C1         -0.2333    1.6696   -0.2556 C.3       1 <0>        -0.1051
      2 C2         -0.0844    0.1708   -0.2059 C.ar      1 <0>        -0.0855
      3 C3         -0.1169   -0.5657   -1.3743 C.ar      1 <0>        -0.1122
      4 C4          0.0206   -1.9449   -1.3286 C.ar      1 <0>         0.0759
      5 C5          0.1907   -2.5850   -0.1098 C.ar      1 <0>        -0.1713
      6 C6          0.2231   -1.8487    1.0583 C.ar      1 <0>        -0.1758
      7 C7          0.0909   -0.4686    1.0121 C.ar      1 <0>         0.1078
      8 O1          0.1285    0.2569    2.1616 O.3       1 <0>        -0.2780
      9 C8          0.3119   -0.4670    3.3799 C.3       1 <0>        -0.0067
     10 C9          0.3275    0.4960    4.5390 C.2       1 <0>         0.5014
     11 O2          0.1940    1.6914    4.3402 O.co2     1 <0>        -0.6704
     12 O3          0.4738    0.0796    5.6755 O.co2     1 <0>        -0.6885
     13 O4         -0.0118   -2.6699   -2.4786 O.3       1 <0>        -0.3117
     14 C10         0.1360   -4.0860   -2.3572 C.3       1 <0>         0.0781
     15 C11         0.0751   -4.7166   -3.7246 C.2       1 <0>        -0.1287
     16 C12         0.9292   -5.6542   -4.0521 C.2       1 <0>        -0.1385
     17 C13         1.8673   -6.2148   -3.0144 C.3       1 <0>         0.0858
     18 C14         3.2505   -5.8381   -3.3488 C.1       1 <0>        -0.1137
     19 C15         4.3536   -5.5376   -3.6154 C.1       1 <0>        -0.1233
     20 C16         5.6992   -5.1712   -3.9406 C.ar      1 <0>         0.2322
     21 C17         5.9518   -4.4015   -5.0768 C.ar      1 <0>        -0.1441
     22 C18         7.2571   -4.0552   -5.3772 C.ar      1 <0>        -0.0719
     23 C19         8.2693   -4.4893   -4.5322 C.ar      1 <0>        -0.1677
     24 C20         7.9482   -5.2495   -3.4228 C.ar      1 <0>         0.1037
     25 N1          6.6966   -5.5618   -3.1556 N.ar      1 <0>        -0.4704
     26 C21         1.7481   -7.7169   -2.9886 C.ar      1 <0>        -0.0579
     27 C22         2.0347   -8.4524   -4.1235 C.ar      1 <0>        -0.0954
     28 C23         1.9259   -9.8301   -4.1001 C.ar      1 <0>        -0.0885
     29 C24         1.5302  -10.4729   -2.9410 C.ar      1 <0>        -0.0882
     30 C25         1.2435   -9.7365   -1.8056 C.ar      1 <0>        -0.0874
     31 C26         1.3576   -8.3592   -1.8284 C.ar      1 <0>        -0.1019
     32 Br1         1.3805  -12.3577   -2.9085 Br        1 <0>        -0.0516
     33 H1          0.7494    2.1289   -0.3628 H         1 <0>         0.0688
     34 H2         -0.8576    1.9447   -1.1057 H         1 <0>         0.0611
     35 H3         -0.6993    2.0192    0.6656 H         1 <0>         0.0804
     36 H4         -0.2496   -0.0674   -2.3233 H         1 <0>         0.1321
     37 H5          0.2974   -3.6591   -0.0742 H         1 <0>         0.1226
     38 H6          0.3548   -2.3471    2.0073 H         1 <0>         0.1308
     39 H7         -0.5058   -1.1763    3.5078 H         1 <0>         0.0574
     40 H8          1.2583   -1.0065    3.3430 H         1 <0>         0.0573
     41 H9          1.0967   -4.3127   -1.8950 H         1 <0>         0.0694
     42 H10        -0.6680   -4.4834   -1.7377 H         1 <0>         0.0728
     43 H11        -0.6728   -4.3954   -4.4345 H         1 <0>         0.1308
     44 H12         0.9612   -6.0255   -5.0658 H         1 <0>         0.1284
     45 H13         1.6079   -5.8128   -2.0351 H         1 <0>         0.1158
     46 H14         5.1399   -4.0809   -5.7128 H         1 <0>         0.1412
     47 H15         7.4836   -3.4607   -6.2499 H         1 <0>         0.1418
     48 H16         9.2985   -4.2359   -4.7397 H         1 <0>         0.1396
     49 H17         8.7340   -5.5884   -2.7639 H         1 <0>         0.1616
     50 H18         2.3433   -7.9505   -5.0286 H         1 <0>         0.1315
     51 H19         2.1495  -10.4046   -4.9869 H         1 <0>         0.1340
     52 H20         0.9345  -10.2379   -0.9004 H         1 <0>         0.1361
     53 H21         1.1378   -7.7844   -0.9409 H         1 <0>         0.1358
@<TRIPOS>BOND
     1    1    2 1
     2    1   33 1
     3    1   34 1
     4    1   35 1
     5    2    7 ar
     6    2    3 ar
     7    3    4 ar
     8    3   36 1
     9    4    5 ar
    10    4   13 1
    11    5    6 ar
    12    5   37 1
    13    6    7 ar
    14    6   38 1
    15    7    8 1
    16    8    9 1
    17    9   10 1
    18    9   39 1
    19    9   40 1
    20   10   11 2
    21   10   12 1
    22   13   14 1
    23   14   15 1
    24   14   41 1
    25   14   42 1
    26   15   16 2
    27   15   43 1
    28   16   17 1
    29   16   44 1
    30   17   18 1
    31   17   26 1
    32   17   45 1
    33   18   19 3
    34   19   20 1
    35   20   25 ar
    36   20   21 ar
    37   21   22 ar
    38   21   46 1
    39   22   23 ar
    40   22   47 1
    41   23   24 ar
    42   23   48 1
    43   24   25 ar
    44   24   49 1
    45   26   31 ar
    46   26   27 ar
    47   27   28 ar
    48   27   50 1
    49   28   29 ar
    50   28   51 1
    51   29   30 ar
    52   29   32 1
    53   30   31 ar
    54   30   52 1
    55   31   53 1
@<TRIPOS>MOLECULE
CHEMBL234689__1
   53    55     0     0     0
SMALL
USER_CHARGES

@<TRIPOS>ATOM
      1 C1         -4.2486   -2.7413    1.7879 C.3       1 <0>        -0.1053
      2 C2         -2.8647   -2.8824    1.2083 C.ar      1 <0>        -0.0852
      3 C3         -2.6972   -3.3999   -0.0617 C.ar      1 <0>        -0.1123
      4 C4         -1.4237   -3.5294   -0.5952 C.ar      1 <0>         0.0757
      5 C5         -0.3181   -3.1393    0.1462 C.ar      1 <0>        -0.1720
      6 C6         -0.4856   -2.6220    1.4157 C.ar      1 <0>        -0.1759
      7 C7         -1.7597   -2.4876    1.9474 C.ar      1 <0>         0.1076
      8 O1         -1.9250   -1.9730    3.1952 O.3       1 <0>        -0.2781
      9 C8         -0.7431   -1.5871    3.8996 C.3       1 <0>        -0.0065
     10 C9         -1.1202   -1.0435    5.2536 C.2       1 <0>         0.5012
     11 O2         -2.2924   -0.9915    5.5848 O.co2     1 <0>        -0.6704
     12 O3         -0.2530   -0.6559    6.0180 O.co2     1 <0>        -0.6887
     13 O4         -1.2588   -4.0392   -1.8451 O.3       1 <0>        -0.3127
     14 C10         0.0808   -4.1441   -2.3314 C.3       1 <0>         0.0769
     15 C11         0.0664   -4.7256   -3.7216 C.2       1 <0>        -0.1293
     16 C12         0.9292   -5.6542   -4.0521 C.2       1 <0>        -0.1367
     17 C13         1.8673   -6.2148   -3.0144 C.3       1 <0>         0.0817
     18 C14         1.7509   -7.6820   -2.9892 C.1       1 <0>        -0.1081
     19 C15         1.6580   -8.8521   -2.9691 C.1       1 <0>        -0.1273
     20 C16         1.5446  -10.2794   -2.9445 C.ar      1 <0>         0.2344
     21 C17         0.6603  -10.9188   -3.8141 C.ar      1 <0>        -0.1457
     22 C18         0.5626  -12.2984   -3.7785 C.ar      1 <0>        -0.0719
     23 C19         1.3522  -12.9958   -2.8746 C.ar      1 <0>        -0.1685
     24 C20         2.2076  -12.2987   -2.0415 C.ar      1 <0>         0.1044
     25 N1          2.2860  -10.9848   -2.0981 N.ar      1 <0>        -0.4706
     26 C21         3.2834   -5.8291   -3.3567 C.ar      1 <0>        -0.0598
     27 C22         3.8352   -6.2241   -4.5611 C.ar      1 <0>        -0.0966
     28 C23         5.1338   -5.8703   -4.8756 C.ar      1 <0>        -0.0890
     29 C24         5.8812   -5.1207   -3.9851 C.ar      1 <0>        -0.0887
     30 C25         5.3286   -4.7257   -2.7801 C.ar      1 <0>        -0.0865
     31 C26         4.0282   -5.0756   -2.4687 C.ar      1 <0>        -0.1033
     32 Br1         7.6580   -4.6368   -4.4145 Br        1 <0>        -0.0508
     33 H1         -4.6529   -1.7627    1.5288 H         1 <0>         0.0691
     34 H2         -4.8938   -3.5202    1.3817 H         1 <0>         0.0610
     35 H3         -4.1999   -2.8387    2.8725 H         1 <0>         0.0803
     36 H4         -3.5580   -3.7039   -0.6388 H         1 <0>         0.1322
     37 H5          0.6737   -3.2405   -0.2692 H         1 <0>         0.1227
     38 H6          0.3753   -2.3190    1.9932 H         1 <0>         0.1308
     39 H7         -0.0947   -2.4544    4.0240 H         1 <0>         0.0571
     40 H8         -0.2172   -0.8186    3.3332 H         1 <0>         0.0575
     41 H9          0.5368   -3.1544   -2.3562 H         1 <0>         0.0761
     42 H10         0.6569   -4.7932   -1.6720 H         1 <0>         0.0700
     43 H11        -0.6553   -4.3767   -4.4454 H         1 <0>         0.1314
     44 H12         0.9683   -6.0180   -5.0682 H         1 <0>         0.1284
     45 H13         1.6079   -5.8128   -2.0351 H         1 <0>         0.1192
     46 H14         0.0603  -10.3449   -4.5048 H         1 <0>         0.1402
     47 H15        -0.1133  -12.8211   -4.4391 H         1 <0>         0.1414
     48 H16         1.2986  -14.0732   -2.8223 H         1 <0>         0.1396
     49 H17         2.8229  -12.8390   -1.3373 H         1 <0>         0.1619
     50 H18         3.2518   -6.8096   -5.2562 H         1 <0>         0.1325
     51 H19         5.5650   -6.1792   -5.8164 H         1 <0>         0.1340
     52 H20         5.9117   -4.1405   -2.0845 H         1 <0>         0.1368
     53 H21         3.5952   -4.7638   -1.5297 H         1 <0>         0.1358
@<TRIPOS>BOND
     1    1    2 1
     2    1   33 1
     3    1   34 1
     4    1   35 1
     5    2    7 ar
     6    2    3 ar
     7    3    4 ar
     8    3   36 1
     9    4    5 ar
    10    4   13 1
    11    5    6 ar
    12    5   37 1
    13    6    7 ar
    14    6   38 1
    15    7    8 1
    16    8    9 1
    17    9   10 1
    18    9   39 1
    19    9   40 1
    20   10   11 2
    21   10   12 1
    22   13   14 1
    23   14   15 1
    24   14   41 1
    25   14   42 1
    26   15   16 2
    27   15   43 1
    28   16   17 1
    29   16   44 1
    30   17   18 1
    31   17   26 1
    32   17   45 1
    33   18   19 3
    34   19   20 1
    35   20   25 ar
    36   20   21 ar
    37   21   22 ar
    38   21   46 1
    39   22   23 ar
    40   22   47 1
    41   23   24 ar
    42   23   48 1
    43   24   25 ar
    44   24   49 1
    45   26   31 ar
    46   26   27 ar
    47   27   28 ar
    48   27   50 1
    49   28   29 ar
    50   28   51 1
    51   29   30 ar
    52   29   32 1
    53   30   31 ar
    54   30   52 1
    55   31   53 1
@<TRIPOS>MOLECULE
CHEMBL220570
   57    60     0     0     0
SMALL
USER_CHARGES

@<TRIPOS>ATOM
      1 C1          0.1782    2.4469    0.3971 C.ar      1 <0>        -0.0293
      2 C2          1.4087    3.0596    0.5036 C.ar      1 <0>        -0.1590
      3 C3          2.5717    2.3115    0.3769 C.ar      1 <0>         0.1564
      4 C4          2.4993    0.9447    0.1427 C.ar      1 <0>        -0.2145
      5 C5          1.2718    0.3263    0.0352 C.ar      1 <0>        -0.0478
      6 C6          0.1023    1.0747    0.1624 C.ar      1 <0>        -0.1095
      7 C7         -1.2195    0.4126    0.0479 C.ar      1 <0>         0.2167
      8 C8         -1.2873   -0.9606   -0.1812 C.ar      1 <0>        -0.1726
      9 C9         -2.5279   -1.5642   -0.2857 C.ar      1 <0>        -0.0165
     10 C10        -3.6621   -0.7743   -0.1577 C.ar      1 <0>        -0.2538
     11 C11        -3.5218    0.5820    0.0687 C.ar      1 <0>         0.1664
     12 N1         -2.3281    1.1312    0.1696 N.ar      1 <0>        -0.4798
     13 C12        -5.0336   -1.3896   -0.2652 C.3       1 <0>         0.5172
     14 F1         -5.4625   -1.7972    1.0026 F         1 <0>        -0.1741
     15 F2         -5.9292   -0.4458   -0.7793 F         1 <0>        -0.1742
     16 F3         -4.9824   -2.4970   -1.1185 F         1 <0>        -0.1755
     17 O1          3.7826    2.9180    0.4818 O.3       1 <0>        -0.3074
     18 C13         4.9379    2.0888    0.3412 C.3       1 <0>         0.0619
     19 C14         6.1992    2.9423    0.4885 C.3       1 <0>        -0.1195
     20 C15         7.4362    2.0545    0.3379 C.3       1 <0>         0.0658
     21 O2          8.6142    2.8516    0.4754 O.3       1 <0>        -0.3151
     22 C16         9.8082    2.2116    0.3673 C.ar      1 <0>         0.1137
     23 C17         9.8462    0.8455    0.1279 C.ar      1 <0>        -0.2082
     24 C18        11.0611    0.2002    0.0188 C.ar      1 <0>        -0.0704
     25 C19        12.2437    0.9104    0.1477 C.ar      1 <0>        -0.1076
     26 C20        12.2085    2.2717    0.3864 C.ar      1 <0>        -0.0609
     27 C21        10.9915    2.9229    0.4901 C.ar      1 <0>        -0.1399
     28 C22        13.6197    2.8104    0.4863 C.3       1 <0>        -0.0829
     29 C23        14.5095    1.5710    0.7194 C.3       1 <0>        -0.1020
     30 C24        13.6812    0.4417    0.0709 C.3       1 <0>        -0.0267
     31 H1         13.9788    0.3034   -0.9685 H         1 <0>         0.0890
     32 C25        13.8571   -0.8618    0.8525 C.3       1 <0>        -0.1740
     33 C26        15.2557   -1.3847    0.6489 C.2       1 <0>         0.4908
     34 O3         16.0052   -0.8310   -0.1374 O.co2     1 <0>        -0.6952
     35 O4         15.6378   -2.3616    1.2704 O.co2     1 <0>        -0.7081
     36 H2         -0.7260    3.0286    0.4998 H         1 <0>         0.1443
     37 H3          1.4682    4.1225    0.6854 H         1 <0>         0.1382
     38 H4          3.4056    0.3655    0.0442 H         1 <0>         0.1360
     39 H5          1.2161   -0.7366   -0.1477 H         1 <0>         0.1322
     40 H6         -0.3841   -1.5451   -0.2760 H         1 <0>         0.1503
     41 H7         -2.6119   -2.6262   -0.4633 H         1 <0>         0.1503
     42 H8         -4.4023    1.1993    0.1687 H         1 <0>         0.1704
     43 H9          4.9284    1.3186    1.1124 H         1 <0>         0.0699
     44 H10         4.9302    1.6186   -0.6421 H         1 <0>         0.0697
     45 H11         6.2088    3.7125   -0.2827 H         1 <0>         0.0869
     46 H12         6.2070    3.4125    1.4718 H         1 <0>         0.0871
     47 H13         7.4266    1.2842    1.1091 H         1 <0>         0.0645
     48 H14         7.4284    1.5842   -0.6454 H         1 <0>         0.0643
     49 H15         8.9266    0.2881    0.0275 H         1 <0>         0.1232
     50 H16        11.0902   -0.8632   -0.1676 H         1 <0>         0.1224
     51 H17        10.9638    3.9871    0.6716 H         1 <0>         0.1241
     52 H18        13.9009    3.3087   -0.4414 H         1 <0>         0.0795
     53 H19        13.7029    3.4992    1.3269 H         1 <0>         0.0709
     54 H20        15.4704    1.6840    0.2175 H         1 <0>         0.0856
     55 H21        14.6470    1.3877    1.7851 H         1 <0>         0.0644
     56 H22        13.6900   -0.6747    1.9132 H         1 <0>         0.0567
     57 H23        13.1380   -1.5992    0.4959 H         1 <0>         0.0557
@<TRIPOS>BOND
     1    1    6 ar
     2    1    2 ar
     3    1   36 1
     4    2    3 ar
     5    2   37 1
     6    3    4 ar
     7    3   17 1
     8    4    5 ar
     9    4   38 1
    10    5    6 ar
    11    5   39 1
    12    6    7 1
    13    7   12 ar
    14    7    8 ar
    15    8    9 ar
    16    8   40 1
    17    9   10 ar
    18    9   41 1
    19   10   11 ar
    20   10   13 1
    21   11   12 ar
    22   11   42 1
    23   13   14 1
    24   13   15 1
    25   13   16 1
    26   17   18 1
    27   18   19 1
    28   18   43 1
    29   18   44 1
    30   19   20 1
    31   19   45 1
    32   19   46 1
    33   20   21 1
    34   20   47 1
    35   20   48 1
    36   21   22 1
    37   22   27 ar
    38   22   23 ar
    39   23   24 ar
    40   23   49 1
    41   24   25 ar
    42   24   50 1
    43   25   30 1
    44   25   26 ar
    45   26   27 ar
    46   26   28 1
    47   27   51 1
    48   28   29 1
    49   28   52 1
    50   28   53 1
    51   29   30 1
    52   29   54 1
    53   29   55 1
    54   30   31 1
    55   30   32 1
    56   32   33 1
    57   32   56 1
    58   32   57 1
    59   33   34 2
    60   33   35 1
@<TRIPOS>MOLECULE
CHEMBL1081354
   60    62     0     0     0
SMALL
USER_CHARGES

@<TRIPOS>ATOM
      1 C1          0.6896    1.5067    0.3990 C.3       1 <0>        -0.1519
      2 C2          0.6766   -0.0229    0.3672 C.3       1 <0>        -0.1219
      3 C3          1.2004   -0.5095   -0.9855 C.3       1 <0>        -0.1184
      4 C4          1.1874   -2.0391   -1.0172 C.3       1 <0>         0.0577
      5 O1          1.6765   -2.4935   -2.2807 O.3       1 <0>        -0.3111
      6 C5          1.7302   -3.8373   -2.4742 C.ar      1 <0>         0.1410
      7 C6          1.3142   -4.6994   -1.4684 C.ar      1 <0>        -0.2082
      8 C7          1.3672   -6.0636   -1.6622 C.ar      1 <0>        -0.0524
      9 C8          1.8389   -6.5769   -2.8692 C.ar      1 <0>        -0.0584
     10 C9          2.2557   -5.7093   -3.8768 C.ar      1 <0>        -0.0514
     11 C10         2.1955   -4.3455   -3.6793 C.ar      1 <0>        -0.1502
     12 C11         2.6403   -3.4064   -4.7707 C.3       1 <0>         0.1774
     13 N1          3.9981   -2.9356   -4.4866 N.am      1 <0>        -0.7093
     14 C12         4.6056   -2.0802   -5.3326 C.2       1 <0>         0.5545
     15 O2          4.0267   -1.6992   -6.3315 O.2       1 <0>        -0.5191
     16 C13         5.9745   -1.6056   -5.0462 C.ar      1 <0>        -0.1371
     17 C14         6.6450   -2.0454   -3.9027 C.ar      1 <0>        -0.0566
     18 C15         7.9228   -1.5990   -3.6414 C.ar      1 <0>        -0.0872
     19 C16         8.5433   -0.7157   -4.5085 C.ar      1 <0>        -0.1335
     20 C17         7.8881   -0.2743   -5.6425 C.ar      1 <0>        -0.1161
     21 C18         6.6081   -0.7181   -5.9215 C.ar      1 <0>         0.1610
     22 F1          5.9698   -0.2908   -7.0329 F         1 <0>        -0.1042
     23 C19         9.9402   -0.2329   -4.2141 C.3       1 <0>         0.5106
     24 F2         10.8670   -1.0993   -4.8037 F         1 <0>        -0.1701
     25 F3         10.1082    1.0545   -4.7352 F         1 <0>        -0.1730
     26 F4         10.1421   -0.2058   -2.8300 F         1 <0>        -0.1710
     27 C20         1.8976   -8.0444   -3.0806 C.ar      1 <0>        -0.0706
     28 C21         1.3567   -8.6055   -4.2375 C.ar      1 <0>        -0.1185
     29 C22         1.4096   -9.9713   -4.4375 C.ar      1 <0>        -0.1351
     30 C23         1.9970  -10.7908   -3.4948 C.ar      1 <0>        -0.0915
     31 C24         2.5422  -10.2414   -2.3312 C.ar      1 <0>        -0.1158
     32 C25         2.4968   -8.8615   -2.1284 C.ar      1 <0>        -0.0482
     33 C26         3.0886   -8.2602   -0.8797 C.3       1 <0>        -0.1027
     34 C27         3.1693  -11.1173   -1.3228 C.2       1 <0>         0.5250
     35 O3          4.0542  -11.8941   -1.6531 O.co2     1 <0>        -0.6862
     36 O4          2.8043  -11.0664   -0.1567 O.co2     1 <0>        -0.6820
     37 H1          1.7090    1.8644    0.2540 H         1 <0>         0.0553
     38 H2          0.0527    1.8920   -0.3972 H         1 <0>         0.0553
     39 H3          0.3165    1.8533    1.3627 H         1 <0>         0.0565
     40 H4          1.3136   -0.4083    1.1634 H         1 <0>         0.0652
     41 H5         -0.3427   -0.3807    0.5122 H         1 <0>         0.0649
     42 H6          0.5634   -0.1241   -1.7817 H         1 <0>         0.0729
     43 H7          2.2197   -0.1517   -1.1305 H         1 <0>         0.0723
     44 H8          1.8244   -2.4244   -0.2211 H         1 <0>         0.0630
     45 H9          0.1680   -2.3969   -0.8723 H         1 <0>         0.0624
     46 H10         0.9492   -4.3011   -0.5333 H         1 <0>         0.1296
     47 H11         1.0438   -6.7337   -0.8794 H         1 <0>         0.1325
     48 H12         2.6220   -6.1042   -4.8129 H         1 <0>         0.1327
     49 H13         2.6297   -3.9296   -5.7269 H         1 <0>         0.0787
     50 H14         1.9621   -2.5542   -4.8154 H         1 <0>         0.0820
     51 H15         4.4600   -3.2395   -3.6896 H         1 <0>         0.4013
     52 H16         6.1631   -2.7338   -3.2243 H         1 <0>         0.1502
     53 H17         8.4414   -1.9390   -2.7572 H         1 <0>         0.1521
     54 H18         8.3779    0.4153   -6.3140 H         1 <0>         0.1567
     55 H19         0.8950   -7.9703   -4.9789 H         1 <0>         0.1141
     56 H20         0.9891  -10.3999   -5.3352 H         1 <0>         0.1157
     57 H21         2.0350  -11.8579   -3.6566 H         1 <0>         0.1184
     58 H22         2.3178   -8.1833   -0.1129 H         1 <0>         0.0683
     59 H23         3.8979   -8.8951   -0.5191 H         1 <0>         0.0718
     60 H24         3.4782   -7.2672   -1.1041 H         1 <0>         0.0524
@<TRIPOS>BOND
     1    1    2 1
     2    1   37 1
     3    1   38 1
     4    1   39 1
     5    2    3 1
     6    2   40 1
     7    2   41 1
     8    3    4 1
     9    3   42 1
    10    3   43 1
    11    4    5 1
    12    4   44 1
    13    4   45 1
    14    5    6 1
    15    6   11 ar
    16    6    7 ar
    17    7    8 ar
    18    7   46 1
    19    8    9 ar
    20    8   47 1
    21    9   10 ar
    22    9   27 1
    23   10   11 ar
    24   10   48 1
    25   11   12 1
    26   12   13 1
    27   12   49 1
    28   12   50 1
    29   13   14 am
    30   13   51 1
    31   14   15 2
    32   14   16 1
    33   16   21 ar
    34   16   17 ar
    35   17   18 ar
    36   17   52 1
    37   18   19 ar
    38   18   53 1
    39   19   20 ar
    40   19   23 1
    41   20   21 ar
    42   20   54 1
    43   21   22 1
    44   23   24 1
    45   23   25 1
    46   23   26 1
    47   27   32 ar
    48   27   28 ar
    49   28   29 ar
    50   28   55 1
    51   29   30 ar
    52   29   56 1
    53   30   31 ar
    54   30   57 1
    55   31   32 ar
    56   31   34 1
    57   32   33 1
    58   33   58 1
    59   33   59 1
    60   33   60 1
    61   34   35 2
    62   34   36 1
@<TRIPOS>MOLECULE
CHEMBL205725
   65    67     0     0     0
SMALL
USER_CHARGES

@<TRIPOS>ATOM
      1 C1          0.8246    1.6234   -0.8799 C.3       1 <0>        -0.1522
      2 C2          0.7891    0.1038   -0.7056 C.3       1 <0>        -0.1170
      3 C3          1.2885   -0.5683   -1.9862 C.3       1 <0>        -0.0720
      4 C4          1.2535   -2.0651   -1.8145 C.ar      1 <0>        -0.0747
      5 C5          2.3870   -2.7399   -1.4044 C.ar      1 <0>        -0.1032
      6 C6          2.3547   -4.1176   -1.2464 C.ar      1 <0>         0.0836
      7 C7          1.1840   -4.8177   -1.5003 C.ar      1 <0>        -0.1580
      8 C8          0.0511   -4.1428   -1.9103 C.ar      1 <0>        -0.1679
      9 C9          0.0819   -2.7643   -2.0628 C.ar      1 <0>         0.1087
     10 O1         -1.0353   -2.0992   -2.4611 O.3       1 <0>        -0.3052
     11 C10        -2.2065   -2.8826   -2.6991 C.3       1 <0>         0.0639
     12 C11        -3.3522   -1.9675   -3.1359 C.3       1 <0>        -0.1180
     13 C12        -4.6061   -2.8063   -3.3906 C.3       1 <0>         0.0669
     14 O2         -5.6762   -1.9515   -3.7986 O.3       1 <0>        -0.3170
     15 C13        -6.8710   -2.5430   -4.0665 C.ar      1 <0>         0.0725
     16 C14        -7.0101   -3.9166   -3.9334 C.ar      1 <0>        -0.1809
     17 C15        -8.2237   -4.5174   -4.2056 C.ar      1 <0>        -0.1362
     18 C16        -9.3033   -3.7471   -4.6116 C.ar      1 <0>         0.1381
     19 C17        -9.1645   -2.3735   -4.7438 C.ar      1 <0>        -0.1181
     20 C18        -7.9520   -1.7721   -4.4675 C.ar      1 <0>        -0.1212
     21 O3        -10.4979   -4.3387   -4.8804 O.3       1 <0>        -0.3037
     22 C19       -11.5282   -3.5061   -5.4161 C.3       1 <0>         0.0295
     23 C20       -11.0555   -2.8956   -6.7370 C.3       1 <0>        -0.1718
     24 C21       -12.7846   -4.3438   -5.6622 C.3       1 <0>        -0.1135
     25 C22       -11.8430   -2.4040   -4.4376 C.2       1 <0>         0.4806
     26 O4        -11.2408   -2.3378   -3.3795 O.co2     1 <0>        -0.6694
     27 O5        -12.6999   -1.5786   -4.7040 O.co2     1 <0>        -0.6851
     28 O6          3.4703   -4.7819   -0.8432 O.3       1 <0>        -0.2567
     29 C23         3.3742   -6.1213   -0.6325 C.ar      1 <0>         0.0771
     30 C24         3.3927   -6.9966   -1.7087 C.ar      1 <0>        -0.1036
     31 C25         3.2954   -8.3576   -1.4930 C.ar      1 <0>        -0.1395
     32 C26         3.1796   -8.8483   -0.2035 C.ar      1 <0>         0.1004
     33 C27         3.1610   -7.9760    0.8716 C.ar      1 <0>        -0.1389
     34 C28         3.2634   -6.6148    0.6594 C.ar      1 <0>        -0.0930
     35 F1          3.0841  -10.1796    0.0059 F         1 <0>        -0.1347
     36 H1          1.8471    1.9421   -1.0824 H         1 <0>         0.0525
     37 H2          0.1832    1.9086   -1.7138 H         1 <0>         0.0562
     38 H3          0.4688    2.1021    0.0324 H         1 <0>         0.0543
     39 H4          1.4304   -0.1814    0.1283 H         1 <0>         0.0599
     40 H5         -0.2335   -0.2149   -0.5031 H         1 <0>         0.0661
     41 H6          0.6472   -0.2831   -2.8201 H         1 <0>         0.0804
     42 H7          2.3110   -0.2496   -2.1887 H         1 <0>         0.0718
     43 H8          3.2982   -2.1949   -1.2071 H         1 <0>         0.1389
     44 H9          1.1589   -5.8904   -1.3777 H         1 <0>         0.1295
     45 H10        -0.8601   -4.6878   -2.1083 H         1 <0>         0.1333
     46 H11        -2.0033   -3.6106   -3.4845 H         1 <0>         0.0650
     47 H12        -2.4868   -3.4042   -1.7840 H         1 <0>         0.0656
     48 H13        -3.5554   -1.2395   -2.3504 H         1 <0>         0.0858
     49 H14        -3.0718   -1.4459   -4.0510 H         1 <0>         0.0850
     50 H15        -4.4029   -3.5342   -4.1761 H         1 <0>         0.0600
     51 H16        -4.8865   -3.3279   -2.4755 H         1 <0>         0.0609
     52 H17        -6.1694   -4.5164   -3.6173 H         1 <0>         0.1216
     53 H18        -8.3319   -5.5870   -4.1027 H         1 <0>         0.1228
     54 H19       -10.0050   -1.7737   -5.0602 H         1 <0>         0.1481
     55 H20        -7.8449   -0.7020   -4.5668 H         1 <0>         0.1238
     56 H21       -10.7649   -3.6922   -7.4219 H         1 <0>         0.0514
     57 H22       -11.8646   -2.3139   -7.1786 H         1 <0>         0.0727
     58 H23       -10.2001   -2.2460   -6.5514 H         1 <0>         0.0667
     59 H24       -13.1713   -4.7072   -4.7100 H         1 <0>         0.0560
     60 H25       -13.5409   -3.7296   -6.1509 H         1 <0>         0.0763
     61 H26       -12.5367   -5.1916   -6.3009 H         1 <0>         0.0510
     62 H27         3.4826   -6.6141   -2.7147 H         1 <0>         0.1420
     63 H28         3.3094   -9.0392   -2.3307 H         1 <0>         0.1440
     64 H29         3.0706   -8.3602    1.8769 H         1 <0>         0.1448
     65 H30         3.2530   -5.9349    1.4984 H         1 <0>         0.1433
@<TRIPOS>BOND
     1    1    2 1
     2    1   36 1
     3    1   37 1
     4    1   38 1
     5    2    3 1
     6    2   39 1
     7    2   40 1
     8    3    4 1
     9    3   41 1
    10    3   42 1
    11    4    9 ar
    12    4    5 ar
    13    5    6 ar
    14    5   43 1
    15    6    7 ar
    16    6   28 1
    17    7    8 ar
    18    7   44 1
    19    8    9 ar
    20    8   45 1
    21    9   10 1
    22   10   11 1
    23   11   12 1
    24   11   46 1
    25   11   47 1
    26   12   13 1
    27   12   48 1
    28   12   49 1
    29   13   14 1
    30   13   50 1
    31   13   51 1
    32   14   15 1
    33   15   20 ar
    34   15   16 ar
    35   16   17 ar
    36   16   52 1
    37   17   18 ar
    38   17   53 1
    39   18   19 ar
    40   18   21 1
    41   19   20 ar
    42   19   54 1
    43   20   55 1
    44   21   22 1
    45   22   23 1
    46   22   24 1
    47   22   25 1
    48   23   56 1
    49   23   57 1
    50   23   58 1
    51   24   59 1
    52   24   60 1
    53   24   61 1
    54   25   26 2
    55   25   27 1
    56   28   29 1
    57   29   34 ar
    58   29   30 ar
    59   30   31 ar
    60   30   62 1
    61   31   32 ar
    62   31   63 1
    63   32   33 ar
    64   32   35 1
    65   33   34 ar
    66   33   64 1
    67   34   65 1
@<TRIPOS>MOLECULE
CHEMBL259873
   44    46     0     0     0
SMALL
USER_CHARGES

@<TRIPOS>ATOM
      1 C1         -0.0184    1.5028    0.0103 C.3       1 <0>        -0.1056
      2 C2          0.0021   -0.0041    0.0020 C.ar      1 <0>        -0.1053
      3 C3          0.0057   -0.6878   -1.1980 C.ar      1 <0>        -0.0572
      4 C4          0.0246   -2.0766   -1.2053 C.ar      1 <0>        -0.1398
      5 C5          0.0397   -2.7765   -0.0051 C.ar      1 <0>        -0.0931
      6 C6          0.0360   -2.0909    1.1933 C.ar      1 <0>        -0.1955
      7 C7          0.0229   -0.7036    1.1994 C.ar      1 <0>         0.1431
      8 O1          0.0254   -0.0293    2.3804 O.3       1 <0>        -0.2742
      9 C8          0.0474   -0.8131    3.5751 C.3       1 <0>        -0.0089
     10 C9          0.0468    0.0992    4.7746 C.2       1 <0>         0.5015
     11 O2          0.0293    1.3085    4.6207 O.co2     1 <0>        -0.6696
     12 O3          0.0640   -0.3721    5.8989 O.co2     1 <0>        -0.6867
     13 S1          0.0286   -2.9502   -2.7355 S.3       1 <0>        -0.0910
     14 C10         0.0549   -4.6962   -2.2439 C.3       1 <0>        -0.0485
     15 C11         0.0604   -5.5647   -3.4755 C.2       1 <0>         0.1238
     16 C12        -1.0733   -6.0491   -4.1443 C.2       1 <0>        -0.2443
     17 C13        -0.6511   -6.7911   -5.2039 C.2       1 <0>         0.1045
     18 O4          0.6950   -6.7759   -5.2040 O.3       1 <0>        -0.0651
     19 N1          1.1199   -5.9902   -4.1053 N.2       1 <0>        -0.2888
     20 C14        -1.5154   -7.4887   -6.1796 C.ar      1 <0>        -0.0053
     21 C15        -2.9043   -7.4156   -6.0635 C.ar      1 <0>        -0.0843
     22 C16        -3.7052   -8.0689   -6.9774 C.ar      1 <0>        -0.0681
     23 C17        -3.1343   -8.7954   -8.0072 C.ar      1 <0>        -0.1679
     24 C18        -1.7582   -8.8719   -8.1280 C.ar      1 <0>        -0.0691
     25 C19        -0.9460   -8.2185   -7.2242 C.ar      1 <0>        -0.0873
     26 C20        -4.0153   -9.5069   -9.0015 C.3       1 <0>         0.5082
     27 F1         -4.2956   -8.6513  -10.0723 F         1 <0>        -0.1736
     28 F2         -3.3574  -10.6470   -9.4754 F         1 <0>        -0.1749
     29 F3         -5.2109   -9.8830   -8.3798 F         1 <0>        -0.1746
     30 H1          1.0042    1.8801    0.0026 H         1 <0>         0.0690
     31 H2         -0.5455    1.8639   -0.8728 H         1 <0>         0.0613
     32 H3         -0.5286    1.8543    0.9071 H         1 <0>         0.0804
     33 H4         -0.0064   -0.1428   -2.1303 H         1 <0>         0.1304
     34 H5          0.0540   -3.8564   -0.0097 H         1 <0>         0.1193
     35 H6          0.0478   -2.6347    2.1263 H         1 <0>         0.1332
     36 H7         -0.8339   -1.4538    3.6055 H         1 <0>         0.0598
     37 H8          0.9458   -1.4302    3.5883 H         1 <0>         0.0599
     38 H9          0.9506   -4.8945   -1.6554 H         1 <0>         0.1125
     39 H10        -0.8291   -4.9187   -1.6464 H         1 <0>         0.1181
     40 H11        -2.1008   -5.8653   -3.8671 H         1 <0>         0.1683
     41 H12        -3.3511   -6.8491   -5.2599 H         1 <0>         0.1467
     42 H13        -4.7801   -8.0135   -6.8885 H         1 <0>         0.1469
     43 H14        -1.3188   -9.4409   -8.9339 H         1 <0>         0.1453
     44 H15         0.1280   -8.2752   -7.3221 H         1 <0>         0.1470
@<TRIPOS>BOND
     1    1    2 1
     2    1   30 1
     3    1   31 1
     4    1   32 1
     5    2    7 ar
     6    2    3 ar
     7    3    4 ar
     8    3   33 1
     9    4    5 ar
    10    4   13 1
    11    5    6 ar
    12    5   34 1
    13    6    7 ar
    14    6   35 1
    15    7    8 1
    16    8    9 1
    17    9   10 1
    18    9   36 1
    19    9   37 1
    20   10   11 2
    21   10   12 1
    22   13   14 1
    23   14   15 1
    24   14   38 1
    25   14   39 1
    26   15   19 2
    27   15   16 1
    28   16   17 2
    29   16   40 1
    30   17   18 1
    31   17   20 1
    32   18   19 1
    33   20   25 ar
    34   20   21 ar
    35   21   22 ar
    36   21   41 1
    37   22   23 ar
    38   22   42 1
    39   23   24 ar
    40   23   26 1
    41   24   25 ar
    42   24   43 1
    43   25   44 1
    44   26   27 1
    45   26   28 1
    46   26   29 1
@<TRIPOS>MOLECULE
CHEMBL425116
   61    64     0     0     0
SMALL
USER_CHARGES

@<TRIPOS>ATOM
      1 C1          0.7663    1.6337   -0.3374 C.3       1 <0>         0.0327
      2 O1          0.8269    0.2083   -0.4174 O.3       1 <0>        -0.2849
      3 C2         -0.3381   -0.4452   -0.6428 C.ar      1 <0>         0.4099
      4 C3         -0.3653   -1.8473   -0.7292 C.ar      1 <0>        -0.1965
      5 C4         -1.5902   -2.4696   -0.9619 C.ar      1 <0>         0.2202
      6 N1         -2.6761   -1.7244   -1.0924 N.ar      1 <0>        -0.5830
      7 C5         -2.6128   -0.4057   -1.0051 C.ar      1 <0>         0.5348
      8 N2         -1.4727    0.2276   -0.7801 N.ar      1 <0>        -0.5784
      9 O2         -3.7496    0.3174   -1.1450 O.3       1 <0>        -0.2893
     10 C6         -4.9565   -0.4104   -1.3810 C.3       1 <0>         0.0445
     11 C7          0.8767   -2.6437   -0.5772 C.ar      1 <0>        -0.0708
     12 C8          2.0147   -2.3093   -1.3093 C.ar      1 <0>        -0.0510
     13 C9          3.1683   -3.0516   -1.1654 C.ar      1 <0>        -0.1491
     14 C10         3.1965   -4.1310   -0.2931 C.ar      1 <0>         0.1387
     15 C11         2.0648   -4.4665    0.4374 C.ar      1 <0>        -0.2068
     16 C12         0.9099   -3.7247    0.3022 C.ar      1 <0>        -0.0633
     17 O3          4.3344   -4.8610   -0.1541 O.3       1 <0>        -0.3108
     18 C13         4.2937   -5.9581    0.7605 C.3       1 <0>         0.0636
     19 C14         5.6556   -6.6550    0.7820 C.3       1 <0>        -0.1191
     20 C15         5.6120   -7.8297    1.7614 C.3       1 <0>         0.0658
     21 O4          6.8840   -8.4806    1.7814 O.3       1 <0>        -0.3153
     22 C16         7.0155   -9.5527    2.6061 C.ar      1 <0>         0.1141
     23 C17         5.9410   -9.9738    3.3764 C.ar      1 <0>        -0.2082
     24 C18         6.0795  -11.0631    4.2123 C.ar      1 <0>        -0.0704
     25 C19         7.2871  -11.7380    4.2865 C.ar      1 <0>        -0.1080
     26 C20         8.3593  -11.3202    3.5200 C.ar      1 <0>        -0.0611
     27 C21         8.2216  -10.2319    2.6759 C.ar      1 <0>        -0.1402
     28 C22         9.5529  -12.2144    3.7794 C.3       1 <0>        -0.0828
     29 C23         9.2309  -12.9451    5.1001 C.3       1 <0>        -0.1019
     30 C24         7.6875  -12.9417    5.1129 C.3       1 <0>        -0.0266
     31 H1          7.3035  -13.8559    4.6602 H         1 <0>         0.0889
     32 C25         7.1687  -12.7986    6.5451 C.3       1 <0>        -0.1740
     33 C26         7.4546  -14.0642    7.3117 C.2       1 <0>         0.4909
     34 O5          7.9247  -15.0316    6.7376 O.co2     1 <0>        -0.6953
     35 O6          7.2158  -14.1206    8.5060 O.co2     1 <0>        -0.7082
     36 H2          1.7650    2.0302   -0.1544 H         1 <0>         0.1041
     37 H3          0.3826    2.0343   -1.2757 H         1 <0>         0.0647
     38 H4          0.1049    1.9240    0.4790 H         1 <0>         0.0645
     39 H5         -1.6524   -3.5453   -1.0352 H         1 <0>         0.1817
     40 H6         -4.8599   -0.9853   -2.3020 H         1 <0>         0.0654
     41 H7         -5.1411   -1.0880   -0.5474 H         1 <0>         0.0655
     42 H8         -5.7891    0.2869   -1.4736 H         1 <0>         0.1050
     43 H9          1.9932   -1.4700   -1.9887 H         1 <0>         0.1287
     44 H10         4.0504   -2.7929   -1.7323 H         1 <0>         0.1338
     45 H11         2.0899   -5.3069    1.1153 H         1 <0>         0.1318
     46 H12         0.0310   -3.9837    0.8738 H         1 <0>         0.1267
     47 H13         4.0581   -5.5901    1.7591 H         1 <0>         0.0679
     48 H14         3.5280   -6.6665    0.4444 H         1 <0>         0.0680
     49 H15         5.8912   -7.0230   -0.2166 H         1 <0>         0.0862
     50 H16         6.4213   -5.9466    1.0982 H         1 <0>         0.0863
     51 H17         5.3764   -7.4617    2.7599 H         1 <0>         0.0643
     52 H18         4.8463   -8.5381    1.4452 H         1 <0>         0.0642
     53 H19         4.9982   -9.4499    3.3221 H         1 <0>         0.1234
     54 H20         5.2429  -11.3906    4.8117 H         1 <0>         0.1224
     55 H21         9.0576   -9.9084    2.0735 H         1 <0>         0.1240
     56 H22         9.6704  -12.9332    2.9684 H         1 <0>         0.0794
     57 H23        10.4572  -11.6158    3.8891 H         1 <0>         0.0708
     58 H24         9.6159  -13.9647    5.0827 H         1 <0>         0.0854
     59 H25         9.6266  -12.3949    5.9538 H         1 <0>         0.0643
     60 H26         7.6675  -11.9595    7.0301 H         1 <0>         0.0566
     61 H27         6.0936  -12.6204    6.5260 H         1 <0>         0.0557
@<TRIPOS>BOND
     1    1    2 1
     2    1   36 1
     3    1   37 1
     4    1   38 1
     5    2    3 1
     6    3    8 ar
     7    3    4 ar
     8    4    5 ar
     9    4   11 1
    10    5    6 ar
    11    5   39 1
    12    6    7 ar
    13    7    8 ar
    14    7    9 1
    15    9   10 1
    16   10   40 1
    17   10   41 1
    18   10   42 1
    19   11   16 ar
    20   11   12 ar
    21   12   13 ar
    22   12   43 1
    23   13   14 ar
    24   13   44 1
    25   14   15 ar
    26   14   17 1
    27   15   16 ar
    28   15   45 1
    29   16   46 1
    30   17   18 1
    31   18   19 1
    32   18   47 1
    33   18   48 1
    34   19   20 1
    35   19   49 1
    36   19   50 1
    37   20   21 1
    38   20   51 1
    39   20   52 1
    40   21   22 1
    41   22   27 ar
    42   22   23 ar
    43   23   24 ar
    44   23   53 1
    45   24   25 ar
    46   24   54 1
    47   25   30 1
    48   25   26 ar
    49   26   27 ar
    50   26   28 1
    51   27   55 1
    52   28   29 1
    53   28   56 1
    54   28   57 1
    55   29   30 1
    56   29   58 1
    57   29   59 1
    58   30   31 1
    59   30   32 1
    60   32   33 1
    61   32   60 1
    62   32   61 1
    63   33   34 2
    64   33   35 1
@<TRIPOS>MOLECULE
CHEMBL501980
   67    70     0     0     0
SMALL
USER_CHARGES

@<TRIPOS>ATOM
      1 C1          3.8097    0.3140   -4.2922 C.3       1 <0>        -0.1049
      2 C2          3.4089   -1.0607   -3.8226 C.ar      1 <0>        -0.1111
      3 C3          2.0859   -1.3335   -3.5353 C.ar      1 <0>        -0.0281
      4 C4          1.7167   -2.6009   -3.1029 C.ar      1 <0>        -0.1403
      5 C5          2.6792   -3.5929   -2.9599 C.ar      1 <0>        -0.0740
      6 C6          4.0011   -3.3179   -3.2477 C.ar      1 <0>        -0.2025
      7 C7          4.3680   -2.0532   -3.6846 C.ar      1 <0>         0.1440
      8 O1          5.6697   -1.7849   -3.9728 O.3       1 <0>        -0.2764
      9 C8          6.6041   -2.8535   -3.8084 C.3       1 <0>        -0.0060
     10 C9          7.9855   -2.3731   -4.1717 C.2       1 <0>         0.5019
     11 O2          8.1542   -1.2224   -4.5376 O.co2     1 <0>        -0.6699
     12 O3          8.9345   -3.1353   -4.0999 O.co2     1 <0>        -0.6891
     13 S1          0.0293   -2.9503   -2.7354 S.3       1 <0>         0.0025
     14 C10         0.0157   -4.6796   -2.3978 C.ar      1 <0>        -0.1576
     15 C11        -0.0729   -5.1325   -1.0887 C.ar      1 <0>        -0.0304
     16 C12        -0.0833   -6.4893   -0.8268 C.ar      1 <0>        -0.1420
     17 C13        -0.0052   -7.3982   -1.8659 C.ar      1 <0>        -0.0371
     18 C14         0.0838   -6.9546   -3.1728 C.ar      1 <0>        -0.1953
     19 C15         0.0881   -5.5966   -3.4448 C.ar      1 <0>         0.1759
     20 O4          0.1694   -5.1591   -4.7299 O.3       1 <0>        -0.2789
     21 C16         0.2406   -6.1558   -5.7514 C.3       1 <0>         0.0457
     22 C17         0.3261   -5.4780   -7.1204 C.3       1 <0>         0.0840
     23 C18         0.2874   -6.5443   -8.2361 C.3       1 <0>        -0.1474
     24 C19         1.3150   -5.9883   -9.2592 C.3       1 <0>        -0.1544
     25 C20         2.3464   -5.3272   -8.3106 C.3       1 <0>         0.0445
     26 O5          1.5681   -4.7741   -7.2373 O.3       1 <0>        -0.3592
     27 C21        -0.0165   -8.8765   -1.5735 C.3       1 <0>         0.0971
     28 O6         -1.3640   -9.3521   -1.5749 O.3       1 <0>        -0.2993
     29 C22        -1.5518  -10.6748   -1.3258 C.ar      1 <0>         0.1657
     30 C23        -0.4618  -11.4970   -1.0794 C.ar      1 <0>        -0.2125
     31 C24        -0.6554  -12.8411   -0.8260 C.ar      1 <0>        -0.0266
     32 C25        -1.9340  -13.3673   -0.8183 C.ar      1 <0>        -0.2263
     33 C26        -3.0218  -12.5501   -1.0641 C.ar      1 <0>        -0.0297
     34 C27        -2.8341  -11.2041   -1.3119 C.ar      1 <0>        -0.1529
     35 C28        -2.1421  -14.8341   -0.5421 C.3       1 <0>         0.5123
     36 F1         -2.3045  -15.0311    0.8334 F         1 <0>        -0.1776
     37 F2         -3.2857  -15.2776   -1.2149 F         1 <0>        -0.1781
     38 F3         -1.0294  -15.5552   -0.9884 F         1 <0>        -0.1781
     39 C29         1.0433   -0.2565   -3.6904 C.3       1 <0>        -0.1140
     40 H1          3.7495    0.3584   -5.3796 H         1 <0>         0.0665
     41 H2          3.1376    1.0557   -3.8605 H         1 <0>         0.0631
     42 H3          4.8318    0.5223   -3.9761 H         1 <0>         0.0770
     43 H4          2.3933   -4.5785   -2.6235 H         1 <0>         0.1115
     44 H5          4.7494   -4.0886   -3.1363 H         1 <0>         0.1261
     45 H6          6.5965   -3.1863   -2.7705 H         1 <0>         0.0572
     46 H7          6.3253   -3.6831   -4.4580 H         1 <0>         0.0569
     47 H8         -0.1333   -4.4248   -0.2752 H         1 <0>         0.1434
     48 H9         -0.1523   -6.8407    0.1921 H         1 <0>         0.1321
     49 H10         0.1454   -7.6674   -3.9818 H         1 <0>         0.1323
     50 H11         1.1254   -6.7731   -5.5957 H         1 <0>         0.0670
     51 H12        -0.6508   -6.7818   -5.7109 H         1 <0>         0.0726
     52 H13        -0.5053   -4.7836   -7.2416 H         1 <0>         0.0927
     53 H14         0.6050   -7.5152   -7.8559 H         1 <0>         0.0790
     54 H15        -0.7066   -6.6062   -8.6791 H         1 <0>         0.0878
     55 H16         1.7708   -6.7935   -9.8353 H         1 <0>         0.0854
     56 H17         0.8552   -5.2496   -9.9158 H         1 <0>         0.0813
     57 H18         3.0416   -6.0743   -7.9278 H         1 <0>         0.0607
     58 H19         2.8876   -4.5373   -8.8315 H         1 <0>         0.0901
     59 H20         0.5552   -9.4026   -2.3380 H         1 <0>         0.0776
     60 H21         0.4315   -9.0571   -0.5963 H         1 <0>         0.0815
     61 H22         0.5371  -11.0866   -1.0859 H         1 <0>         0.1413
     62 H23         0.1928  -13.4816   -0.6341 H         1 <0>         0.1393
     63 H24        -4.0196  -12.9635   -1.0579 H         1 <0>         0.1429
     64 H25        -3.6845  -10.5653   -1.4994 H         1 <0>         0.1441
     65 H26         0.6396   -0.2847   -4.7024 H         1 <0>         0.0751
     66 H27         0.2392   -0.4234   -2.9737 H         1 <0>         0.0664
     67 H28         1.4970    0.7175   -3.5071 H         1 <0>         0.0754
@<TRIPOS>BOND
     1    1    2 1
     2    1   40 1
     3    1   41 1
     4    1   42 1
     5    2    7 ar
     6    2    3 ar
     7    3    4 ar
     8    3   39 1
     9    4    5 ar
    10    4   13 1
    11    5    6 ar
    12    5   43 1
    13    6    7 ar
    14    6   44 1
    15    7    8 1
    16    8    9 1
    17    9   10 1
    18    9   45 1
    19    9   46 1
    20   10   11 2
    21   10   12 1
    22   13   14 1
    23   14   19 ar
    24   14   15 ar
    25   15   16 ar
    26   15   47 1
    27   16   17 ar
    28   16   48 1
    29   17   18 ar
    30   17   27 1
    31   18   19 ar
    32   18   49 1
    33   19   20 1
    34   20   21 1
    35   21   22 1
    36   21   50 1
    37   21   51 1
    38   22   26 1
    39   22   23 1
    40   22   52 1
    41   23   24 1
    42   23   53 1
    43   23   54 1
    44   24   25 1
    45   24   55 1
    46   24   56 1
    47   25   26 1
    48   25   57 1
    49   25   58 1
    50   27   28 1
    51   27   59 1
    52   27   60 1
    53   28   29 1
    54   29   34 ar
    55   29   30 ar
    56   30   31 ar
    57   30   61 1
    58   31   32 ar
    59   31   62 1
    60   32   33 ar
    61   32   35 1
    62   33   34 ar
    63   33   63 1
    64   34   64 1
    65   35   36 1
    66   35   37 1
    67   35   38 1
    68   39   65 1
    69   39   66 1
    70   39   67 1
@<TRIPOS>MOLECULE
CHEMBL501980__1
   67    70     0     0     0
SMALL
USER_CHARGES

@<TRIPOS>ATOM
      1 C1          3.8097    0.3140   -4.2922 C.3       1 <0>        -0.1056
      2 C2          3.4089   -1.0607   -3.8226 C.ar      1 <0>        -0.1112
      3 C3          2.0859   -1.3335   -3.5353 C.ar      1 <0>        -0.0287
      4 C4          1.7167   -2.6009   -3.1029 C.ar      1 <0>        -0.1421
      5 C5          2.6792   -3.5929   -2.9599 C.ar      1 <0>        -0.0786
      6 C6          4.0011   -3.3179   -3.2477 C.ar      1 <0>        -0.2044
      7 C7          4.3680   -2.0532   -3.6846 C.ar      1 <0>         0.1424
      8 O1          5.6697   -1.7849   -3.9728 O.3       1 <0>        -0.2761
      9 C8          6.6041   -2.8535   -3.8084 C.3       1 <0>        -0.0065
     10 C9          7.9855   -2.3731   -4.1717 C.2       1 <0>         0.5016
     11 O2          8.1542   -1.2224   -4.5376 O.co2     1 <0>        -0.6697
     12 O3          8.9345   -3.1353   -4.0999 O.co2     1 <0>        -0.6885
     13 S1          0.0293   -2.9503   -2.7354 S.3       1 <0>         0.0068
     14 C10         0.0157   -4.6796   -2.3978 C.ar      1 <0>        -0.1581
     15 C11        -0.0729   -5.1325   -1.0887 C.ar      1 <0>        -0.0302
     16 C12        -0.0833   -6.4893   -0.8268 C.ar      1 <0>        -0.1416
     17 C13        -0.0052   -7.3982   -1.8659 C.ar      1 <0>        -0.0367
     18 C14         0.0838   -6.9546   -3.1728 C.ar      1 <0>        -0.1951
     19 C15         0.0881   -5.5966   -3.4448 C.ar      1 <0>         0.1765
     20 O4          0.1694   -5.1591   -4.7299 O.3       1 <0>        -0.2799
     21 C16         0.2406   -6.1558   -5.7514 C.3       1 <0>         0.0581
     22 C17         0.3261   -5.4780   -7.1204 C.3       1 <0>         0.0843
     23 C18         0.4590   -6.5412   -8.2396 C.3       1 <0>        -0.1493
     24 C19        -0.1102   -5.7614   -9.4561 C.3       1 <0>        -0.1547
     25 C20        -1.2040   -4.8891   -8.8034 C.3       1 <0>         0.0481
     26 O5         -0.8962   -4.7807   -7.4087 O.3       1 <0>        -0.3672
     27 C21        -0.0165   -8.8765   -1.5735 C.3       1 <0>         0.0970
     28 O6         -1.3640   -9.3521   -1.5749 O.3       1 <0>        -0.2991
     29 C22        -1.5518  -10.6748   -1.3258 C.ar      1 <0>         0.1658
     30 C23        -0.4618  -11.4970   -1.0794 C.ar      1 <0>        -0.2126
     31 C24        -0.6554  -12.8411   -0.8260 C.ar      1 <0>        -0.0267
     32 C25        -1.9340  -13.3673   -0.8183 C.ar      1 <0>        -0.2264
     33 C26        -3.0218  -12.5501   -1.0641 C.ar      1 <0>        -0.0297
     34 C27        -2.8341  -11.2041   -1.3119 C.ar      1 <0>        -0.1528
     35 C28        -2.1421  -14.8341   -0.5421 C.3       1 <0>         0.5123
     36 F1         -2.3045  -15.0311    0.8334 F         1 <0>        -0.1776
     37 F2         -3.2857  -15.2776   -1.2149 F         1 <0>        -0.1781
     38 F3         -1.0294  -15.5552   -0.9884 F         1 <0>        -0.1782
     39 C29         1.0433   -0.2565   -3.6904 C.3       1 <0>        -0.1148
     40 H1          3.7495    0.3584   -5.3796 H         1 <0>         0.0667
     41 H2          3.1376    1.0557   -3.8605 H         1 <0>         0.0638
     42 H3          4.8318    0.5223   -3.9761 H         1 <0>         0.0775
     43 H4          2.3933   -4.5785   -2.6235 H         1 <0>         0.1131
     44 H5          4.7494   -4.0886   -3.1363 H         1 <0>         0.1273
     45 H6          6.5965   -3.1863   -2.7705 H         1 <0>         0.0578
     46 H7          6.3253   -3.6831   -4.4580 H         1 <0>         0.0570
     47 H8         -0.1333   -4.4248   -0.2752 H         1 <0>         0.1435
     48 H9         -0.1523   -6.8407    0.1921 H         1 <0>         0.1323
     49 H10         0.1454   -7.6674   -3.9818 H         1 <0>         0.1330
     50 H11         1.1254   -6.7731   -5.5957 H         1 <0>         0.0763
     51 H12        -0.6508   -6.7818   -5.7109 H         1 <0>         0.0709
     52 H13         1.1704   -4.7892   -7.1487 H         1 <0>         0.0862
     53 H14         1.5021   -6.8137   -8.4008 H         1 <0>         0.0900
     54 H15        -0.1454   -7.4212   -8.0193 H         1 <0>         0.0812
     55 H16         0.6599   -5.1402   -9.9134 H         1 <0>         0.0809
     56 H17        -0.5434   -6.4447  -10.1866 H         1 <0>         0.0844
     57 H18        -1.2083   -3.8990   -9.2592 H         1 <0>         0.0706
     58 H19        -2.1783   -5.3607   -8.9314 H         1 <0>         0.0689
     59 H20         0.5552   -9.4026   -2.3380 H         1 <0>         0.0778
     60 H21         0.4315   -9.0571   -0.5963 H         1 <0>         0.0815
     61 H22         0.5371  -11.0866   -1.0859 H         1 <0>         0.1413
     62 H23         0.1928  -13.4816   -0.6341 H         1 <0>         0.1393
     63 H24        -4.0196  -12.9635   -1.0579 H         1 <0>         0.1429
     64 H25        -3.6845  -10.5653   -1.4994 H         1 <0>         0.1442
     65 H26         0.6396   -0.2847   -4.7024 H         1 <0>         0.0757
     66 H27         0.2392   -0.4234   -2.9737 H         1 <0>         0.0672
     67 H28         1.4970    0.7175   -3.5071 H         1 <0>         0.0758
@<TRIPOS>BOND
     1    1    2 1
     2    1   40 1
     3    1   41 1
     4    1   42 1
     5    2    7 ar
     6    2    3 ar
     7    3    4 ar
     8    3   39 1
     9    4    5 ar
    10    4   13 1
    11    5    6 ar
    12    5   43 1
    13    6    7 ar
    14    6   44 1
    15    7    8 1
    16    8    9 1
    17    9   10 1
    18    9   45 1
    19    9   46 1
    20   10   11 2
    21   10   12 1
    22   13   14 1
    23   14   19 ar
    24   14   15 ar
    25   15   16 ar
    26   15   47 1
    27   16   17 ar
    28   16   48 1
    29   17   18 ar
    30   17   27 1
    31   18   19 ar
    32   18   49 1
    33   19   20 1
    34   20   21 1
    35   21   22 1
    36   21   50 1
    37   21   51 1
    38   22   26 1
    39   22   23 1
    40   22   52 1
    41   23   24 1
    42   23   53 1
    43   23   54 1
    44   24   25 1
    45   24   55 1
    46   24   56 1
    47   25   26 1
    48   25   57 1
    49   25   58 1
    50   27   28 1
    51   27   59 1
    52   27   60 1
    53   28   29 1
    54   29   34 ar
    55   29   30 ar
    56   30   31 ar
    57   30   61 1
    58   31   32 ar
    59   31   62 1
    60   32   33 ar
    61   32   35 1
    62   33   34 ar
    63   33   63 1
    64   34   64 1
    65   35   36 1
    66   35   37 1
    67   35   38 1
    68   39   65 1
    69   39   66 1
    70   39   67 1
@<TRIPOS>MOLECULE
CHEMBL232400
   56    59     0     0     0
SMALL
USER_CHARGES

@<TRIPOS>ATOM
      1 C1         -0.0167    1.3781    0.0096 C.ar      1 <0>        -0.0952
      2 C2          1.1709    2.0855    0.0021 C.ar      1 <0>        -0.0728
      3 C3          2.3773    1.4107   -0.0130 C.ar      1 <0>        -0.1710
      4 C4          2.3960    0.0285   -0.0201 C.ar      1 <0>        -0.0712
      5 C5          1.2085   -0.6789   -0.0117 C.ar      1 <0>        -0.0913
      6 C6          0.0021   -0.0041    0.0020 C.ar      1 <0>        -0.0657
      7 C7         -1.2926   -0.7753    0.0107 C.3       1 <0>         0.0963
      8 O1         -1.7152   -1.0118   -1.3338 O.3       1 <0>        -0.2937
      9 C8         -2.8748   -1.7005   -1.5041 C.ar      1 <0>         0.1393
     10 C9         -3.5934   -2.1342   -0.3995 C.ar      1 <0>        -0.1819
     11 C10        -4.7715   -2.8340   -0.5741 C.ar      1 <0>        -0.1069
     12 C11        -5.2353   -3.1026   -1.8509 C.ar      1 <0>         0.0634
     13 C12        -4.5191   -2.6708   -2.9540 C.ar      1 <0>        -0.0957
     14 C13        -3.3435   -1.9653   -2.7823 C.ar      1 <0>        -0.0722
     15 C14        -2.5675   -1.4894   -3.9833 C.3       1 <0>        -0.0618
     16 S1         -1.3809   -2.7678   -4.4818 S.3       1 <0>        -0.1115
     17 C15        -0.5638   -2.0697   -5.8781 C.ar      1 <0>        -0.1242
     18 C16        -0.9107   -0.8002   -6.3202 C.ar      1 <0>        -0.0888
     19 C17        -0.2699   -0.2531   -7.4139 C.ar      1 <0>        -0.2000
     20 C18         0.7184   -0.9720   -8.0683 C.ar      1 <0>         0.1533
     21 C19         1.0675   -2.2429   -7.6286 C.ar      1 <0>        -0.1185
     22 C20         0.4316   -2.7897   -6.5313 C.ar      1 <0>        -0.0401
     23 C21         0.9905   -4.1680   -6.2495 C.3       1 <0>        -0.0764
     24 C22         1.7269   -4.5772   -7.5428 C.3       1 <0>        -0.1184
     25 C23         2.0965   -3.2166   -8.1620 C.3       1 <0>        -0.0717
     26 O2          1.3484   -0.4312   -9.1455 O.3       1 <0>        -0.2769
     27 C24         0.9410    0.8789   -9.5452 C.3       1 <0>        -0.0082
     28 C25         1.7429    1.3098  -10.7461 C.2       1 <0>         0.5016
     29 O3          2.5853    0.5642  -11.2162 O.co2     1 <0>        -0.6699
     30 O4          1.5493    2.4041  -11.2477 O.co2     1 <0>        -0.6877
     31 F1         -6.3877   -3.7871   -2.0202 F         1 <0>        -0.1385
     32 C26         3.6720    2.1819   -0.0222 C.3       1 <0>         0.5071
     33 F2          4.0857    2.4144    1.2938 F         1 <0>        -0.1769
     34 F3          4.6506    1.4423   -0.6949 F         1 <0>        -0.1739
     35 F4          3.4816    3.4050   -0.6742 F         1 <0>        -0.1746
     36 H1         -0.9591    1.9053    0.0259 H         1 <0>         0.1374
     37 H2          1.1563    3.1654    0.0076 H         1 <0>         0.1398
     38 H3          3.3385   -0.4987   -0.0326 H         1 <0>         0.1405
     39 H4          1.2231   -1.7588   -0.0179 H         1 <0>         0.1392
     40 H5         -1.1443   -1.7285    0.5180 H         1 <0>         0.0790
     41 H6         -2.0551   -0.1993    0.5352 H         1 <0>         0.0776
     42 H7         -3.2317   -1.9252    0.5964 H         1 <0>         0.1405
     43 H8         -5.3309   -3.1721    0.2857 H         1 <0>         0.1399
     44 H9         -4.8818   -2.8812   -3.9492 H         1 <0>         0.1466
     45 H10        -3.2554   -1.2918   -4.8054 H         1 <0>         0.0966
     46 H11        -2.0313   -0.5748   -3.7304 H         1 <0>         0.1025
     47 H12        -1.6811   -0.2415   -5.8095 H         1 <0>         0.1210
     48 H13        -0.5386    0.7341   -7.7596 H         1 <0>         0.1330
     49 H14         1.6883   -4.1294   -5.4130 H         1 <0>         0.0811
     50 H15         0.1822   -4.8677   -6.0369 H         1 <0>         0.0756
     51 H16         2.6192   -5.1595   -7.3130 H         1 <0>         0.0762
     52 H17         1.0633   -5.1294   -8.2084 H         1 <0>         0.0709
     53 H18         2.0473   -3.2606   -9.2500 H         1 <0>         0.0816
     54 H19         3.0960   -2.9251   -7.8393 H         1 <0>         0.0780
     55 H20        -0.1186    0.8677   -9.8008 H         1 <0>         0.0588
     56 H21         1.1097    1.5777   -8.7259 H         1 <0>         0.0588
@<TRIPOS>BOND
     1    1    6 ar
     2    1    2 ar
     3    1   36 1
     4    2    3 ar
     5    2   37 1
     6    3    4 ar
     7    3   32 1
     8    4    5 ar
     9    4   38 1
    10    5    6 ar
    11    5   39 1
    12    6    7 1
    13    7    8 1
    14    7   40 1
    15    7   41 1
    16    8    9 1
    17    9   14 ar
    18    9   10 ar
    19   10   11 ar
    20   10   42 1
    21   11   12 ar
    22   11   43 1
    23   12   13 ar
    24   12   31 1
    25   13   14 ar
    26   13   44 1
    27   14   15 1
    28   15   16 1
    29   15   45 1
    30   15   46 1
    31   16   17 1
    32   17   22 ar
    33   17   18 ar
    34   18   19 ar
    35   18   47 1
    36   19   20 ar
    37   19   48 1
    38   20   21 ar
    39   20   26 1
    40   21   25 1
    41   21   22 ar
    42   22   23 1
    43   23   24 1
    44   23   49 1
    45   23   50 1
    46   24   25 1
    47   24   51 1
    48   24   52 1
    49   25   53 1
    50   25   54 1
    51   26   27 1
    52   27   28 1
    53   27   55 1
    54   27   56 1
    55   28   29 2
    56   28   30 1
    57   32   33 1
    58   32   34 1
    59   32   35 1
@<TRIPOS>MOLECULE
CHEMBL1079618
   58    62     0     0     0
SMALL
USER_CHARGES

@<TRIPOS>ATOM
      1 C1         -1.2706    1.9825   -0.9156 C.3       1 <0>        -0.1055
      2 C2         -1.0521    0.5032   -0.7288 C.ar      1 <0>        -0.0848
      3 C3         -0.8721   -0.3128   -1.8289 C.ar      1 <0>        -0.1076
      4 C4         -0.6706   -1.6741   -1.6570 C.ar      1 <0>         0.0748
      5 C5         -0.6497   -2.2164   -0.3804 C.ar      1 <0>        -0.1696
      6 C6         -0.8296   -1.4006    0.7194 C.ar      1 <0>        -0.1756
      7 C7         -1.0259   -0.0381    0.5477 C.ar      1 <0>         0.1108
      8 O1         -1.1974    0.7659    1.6309 O.3       1 <0>        -0.2773
      9 C8         -1.1588    0.1410    2.9154 C.3       1 <0>        -0.0070
     10 C9         -1.3659    1.1808    3.9863 C.2       1 <0>         0.5013
     11 O2         -1.5313    2.3488    3.6782 O.co2     1 <0>        -0.6703
     12 O3         -1.3681    0.8541    5.1610 O.co2     1 <0>        -0.6884
     13 O4         -0.4939   -2.4773   -2.7399 O.3       1 <0>        -0.3100
     14 C10        -0.2915   -3.8695   -2.4889 C.3       1 <0>         0.1512
     15 C11        -0.1157   -4.5956   -3.7977 C.2       1 <0>         0.0485
     16 N1          0.9956   -4.8316   -4.4453 N.2       1 <0>        -0.4829
     17 C12         1.0038   -5.4872   -5.5940 C.2       1 <0>         0.1465
     18 C13        -0.2431   -5.9061   -6.0635 C.2       1 <0>        -0.1662
     19 S1         -1.3027   -5.2972   -4.7615 S.3       1 <0>         0.2204
     20 C14        -0.5865   -6.6458   -7.2848 C.2       1 <0>         0.1264
     21 C15        -1.8503   -6.9074   -7.7115 C.2       1 <0>        -0.1790
     22 C16        -1.7091   -7.6611   -8.9582 C.ar      1 <0>        -0.1270
     23 C17        -2.6119   -8.2145   -9.8683 C.ar      1 <0>        -0.0682
     24 C18        -2.1441   -8.8787  -10.9679 C.ar      1 <0>        -0.1348
     25 C19        -0.7795   -9.0056  -11.1840 C.ar      1 <0>        -0.0909
     26 C20         0.1278   -8.4661  -10.2961 C.ar      1 <0>        -0.1049
     27 C21        -0.3244   -7.7868   -9.1726 C.ar      1 <0>         0.0596
     28 O5          0.3042   -7.1628   -8.1551 O.3       1 <0>        -0.1724
     29 C22         2.2560   -5.7595   -6.3357 C.ar      1 <0>        -0.0656
     30 C23         2.3093   -5.5587   -7.7155 C.ar      1 <0>        -0.0361
     31 C24         3.4773   -5.8129   -8.4028 C.ar      1 <0>        -0.1520
     32 C25         4.5992   -6.2686   -7.7237 C.ar      1 <0>         0.1396
     33 C26         4.5500   -6.4697   -6.3508 C.ar      1 <0>        -0.2122
     34 C27         3.3873   -6.2122   -5.6559 C.ar      1 <0>        -0.0386
     35 O6          5.7484   -6.5190   -8.4046 O.3       1 <0>        -0.3164
     36 C28         6.8645   -6.9858   -7.6441 C.3       1 <0>         0.0257
     37 H1         -0.3085    2.4948   -0.9154 H         1 <0>         0.0696
     38 H2         -1.7755    2.1581   -1.8654 H         1 <0>         0.0615
     39 H3         -1.8858    2.3646   -0.1009 H         1 <0>         0.0810
     40 H4         -0.8888    0.1093   -2.8229 H         1 <0>         0.1329
     41 H5         -0.4931   -3.2765   -0.2465 H         1 <0>         0.1251
     42 H6         -0.8140   -1.8229    1.7133 H         1 <0>         0.1325
     43 H7         -1.9480   -0.6082    2.9788 H         1 <0>         0.0580
     44 H8         -0.1903   -0.3387    3.0571 H         1 <0>         0.0580
     45 H9          0.6008   -4.0023   -1.8770 H         1 <0>         0.0987
     46 H10        -1.1564   -4.2733   -1.9627 H         1 <0>         0.0918
     47 H11        -2.7719   -6.6182   -7.2283 H         1 <0>         0.1626
     48 H12        -3.6750   -8.1186   -9.7041 H         1 <0>         0.1294
     49 H13        -2.8412   -9.3077  -11.6725 H         1 <0>         0.1304
     50 H14        -0.4237   -9.5329  -12.0569 H         1 <0>         0.1359
     51 H15         1.1877   -8.5714  -10.4745 H         1 <0>         0.1337
     52 H16         1.4367   -5.2048   -8.2445 H         1 <0>         0.1281
     53 H17         3.5193   -5.6576   -9.4707 H         1 <0>         0.1339
     54 H18         5.4246   -6.8247   -5.8260 H         1 <0>         0.1319
     55 H19         3.3510   -6.3646   -4.5873 H         1 <0>         0.1293
     56 H20         7.7146   -7.1459   -8.3073 H         1 <0>         0.1007
     57 H21         7.1266   -6.2433   -6.8903 H         1 <0>         0.0573
     58 H22         6.6038   -7.9241   -7.1546 H         1 <0>         0.0563
@<TRIPOS>BOND
     1    1    2 1
     2    1   37 1
     3    1   38 1
     4    1   39 1
     5    2    7 ar
     6    2    3 ar
     7    3    4 ar
     8    3   40 1
     9    4    5 ar
    10    4   13 1
    11    5    6 ar
    12    5   41 1
    13    6    7 ar
    14    6   42 1
    15    7    8 1
    16    8    9 1
    17    9   10 1
    18    9   43 1
    19    9   44 1
    20   10   11 2
    21   10   12 1
    22   13   14 1
    23   14   15 1
    24   14   45 1
    25   14   46 1
    26   15   19 1
    27   15   16 2
    28   16   17 1
    29   17   18 2
    30   17   29 1
    31   18   19 1
    32   18   20 1
    33   20   28 1
    34   20   21 2
    35   21   22 1
    36   21   47 1
    37   22   27 ar
    38   22   23 ar
    39   23   24 ar
    40   23   48 1
    41   24   25 ar
    42   24   49 1
    43   25   26 ar
    44   25   50 1
    45   26   27 ar
    46   26   51 1
    47   27   28 1
    48   29   34 ar
    49   29   30 ar
    50   30   31 ar
    51   30   52 1
    52   31   32 ar
    53   31   53 1
    54   32   33 ar
    55   32   35 1
    56   33   34 ar
    57   33   54 1
    58   34   55 1
    59   35   36 1
    60   36   56 1
    61   36   57 1
    62   36   58 1
@<TRIPOS>MOLECULE
CHEMBL1079617
   60    64     0     0     0
SMALL
USER_CHARGES

@<TRIPOS>ATOM
      1 C1         -0.4791    2.0123   -0.7921 C.3       1 <0>        -0.1055
      2 C2         -0.3762    0.5177   -0.6293 C.ar      1 <0>        -0.0849
      3 C3         -0.3136   -0.2959   -1.7441 C.ar      1 <0>        -0.1079
      4 C4         -0.2184   -1.6713   -1.5942 C.ar      1 <0>         0.0754
      5 C5         -0.1860   -2.2301   -0.3250 C.ar      1 <0>        -0.1698
      6 C6         -0.2486   -1.4168    0.7894 C.ar      1 <0>        -0.1756
      7 C7         -0.3385   -0.0406    0.6396 C.ar      1 <0>         0.1104
      8 O1         -0.3944    0.7606    1.7369 O.3       1 <0>        -0.2774
      9 C8         -0.3509    0.1178    3.0124 C.3       1 <0>        -0.0070
     10 C9         -0.4232    1.1570    4.1013 C.2       1 <0>         0.5013
     11 O2         -0.5044    2.3386    3.8119 O.co2     1 <0>        -0.6703
     12 O3         -0.4004    0.8162    5.2717 O.co2     1 <0>        -0.6885
     13 O4         -0.1573   -2.4722   -2.6915 O.3       1 <0>        -0.3101
     14 C10        -0.0603   -3.8794   -2.4630 C.3       1 <0>         0.1519
     15 C11        -0.0036   -4.6003   -3.7852 C.2       1 <0>         0.0471
     16 N1          1.0540   -4.9190   -4.4850 N.2       1 <0>        -0.4828
     17 C12         0.9553   -5.5576   -5.6396 C.2       1 <0>         0.1301
     18 C13        -0.3387   -5.8648   -6.0558 C.2       1 <0>        -0.1648
     19 S1         -1.2859   -5.1891   -4.7013 S.3       1 <0>         0.1774
     20 C14        -0.7979   -6.5602   -7.2738 C.ar      1 <0>        -0.0582
     21 C15        -0.2031   -7.7546   -7.6658 C.ar      1 <0>        -0.0198
     22 C16        -0.6786   -8.3754   -8.8328 C.ar      1 <0>        -0.0984
     23 C17        -0.1273   -9.5844   -9.2911 C.ar      1 <0>        -0.0904
     24 C18        -0.6134  -10.1580  -10.4259 C.ar      1 <0>        -0.1159
     25 C19        -1.6507   -9.5615  -11.1401 C.ar      1 <0>        -0.0962
     26 C20        -2.2075   -8.3907  -10.7252 C.ar      1 <0>        -0.0942
     27 C21        -1.7346   -7.7671   -9.5578 C.ar      1 <0>         0.1317
     28 N2         -2.2681   -6.6170   -9.1312 N.ar      1 <0>        -0.4671
     29 C22        -1.8450   -6.0234   -8.0449 C.ar      1 <0>         0.1528
     30 C23         2.1465   -5.9230   -6.4406 C.ar      1 <0>        -0.0601
     31 C24         2.1394   -5.7469   -7.8244 C.ar      1 <0>        -0.0536
     32 C25         3.2501   -6.0882   -8.5668 C.ar      1 <0>        -0.1505
     33 C26         4.3744   -6.6069   -7.9388 C.ar      1 <0>         0.1375
     34 C27         4.3849   -6.7839   -6.5618 C.ar      1 <0>        -0.2097
     35 C28         3.2802   -6.4386   -5.8122 C.ar      1 <0>        -0.0423
     36 O5          5.4671   -6.9426   -8.6737 O.3       1 <0>        -0.3162
     37 C29         6.5892   -7.4707   -7.9637 C.3       1 <0>         0.0257
     38 H1          0.5213    2.4433   -0.8307 H         1 <0>         0.0694
     39 H2         -1.0093    2.2414   -1.7164 H         1 <0>         0.0615
     40 H3         -1.0237    2.4332    0.0531 H         1 <0>         0.0809
     41 H4         -0.3392    0.1391   -2.7322 H         1 <0>         0.1328
     42 H5         -0.1122   -3.3013   -0.2083 H         1 <0>         0.1248
     43 H6         -0.2241   -1.8519    1.7776 H         1 <0>         0.1322
     44 H7         -1.1960   -0.5644    3.1045 H         1 <0>         0.0579
     45 H8          0.5797   -0.4420    3.1056 H         1 <0>         0.0579
     46 H9          0.8441   -4.0935   -1.8934 H         1 <0>         0.0960
     47 H10        -0.9315   -4.2173   -1.9020 H         1 <0>         0.0897
     48 H11         0.6001   -8.1913   -7.0908 H         1 <0>         0.1422
     49 H12         0.6774  -10.0555   -8.7462 H         1 <0>         0.1312
     50 H13        -0.1894  -11.0870  -10.7775 H         1 <0>         0.1292
     51 H14        -2.0189  -10.0359  -12.0378 H         1 <0>         0.1313
     52 H15        -3.0103   -7.9422  -11.2915 H         1 <0>         0.1373
     53 H16        -2.3073   -5.0978   -7.7352 H         1 <0>         0.1627
     54 H17         1.2649   -5.3442   -8.3137 H         1 <0>         0.1278
     55 H18         3.2453   -5.9522   -9.6382 H         1 <0>         0.1337
     56 H19         5.2609   -7.1883   -6.0767 H         1 <0>         0.1321
     57 H20         3.2909   -6.5717   -4.7405 H         1 <0>         0.1302
     58 H21         6.2942   -8.3824   -7.4444 H         1 <0>         0.0565
     59 H22         7.3908   -7.6963   -8.6671 H         1 <0>         0.1009
     60 H23         6.9386   -6.7361   -7.2382 H         1 <0>         0.0575
@<TRIPOS>BOND
     1    1    2 1
     2    1   38 1
     3    1   39 1
     4    1   40 1
     5    2    7 ar
     6    2    3 ar
     7    3    4 ar
     8    3   41 1
     9    4    5 ar
    10    4   13 1
    11    5    6 ar
    12    5   42 1
    13    6    7 ar
    14    6   43 1
    15    7    8 1
    16    8    9 1
    17    9   10 1
    18    9   44 1
    19    9   45 1
    20   10   11 2
    21   10   12 1
    22   13   14 1
    23   14   15 1
    24   14   46 1
    25   14   47 1
    26   15   19 1
    27   15   16 2
    28   16   17 1
    29   17   18 2
    30   17   30 1
    31   18   19 1
    32   18   20 1
    33   20   29 ar
    34   20   21 ar
    35   21   22 ar
    36   21   48 1
    37   22   27 ar
    38   22   23 ar
    39   23   24 ar
    40   23   49 1
    41   24   25 ar
    42   24   50 1
    43   25   26 ar
    44   25   51 1
    45   26   27 ar
    46   26   52 1
    47   27   28 ar
    48   28   29 ar
    49   29   53 1
    50   30   35 ar
    51   30   31 ar
    52   31   32 ar
    53   31   54 1
    54   32   33 ar
    55   32   55 1
    56   33   34 ar
    57   33   36 1
    58   34   35 ar
    59   34   56 1
    60   35   57 1
    61   36   37 1
    62   37   58 1
    63   37   59 1
    64   37   60 1
@<TRIPOS>MOLECULE
CHEMBL241299
   56    58     0     0     0
SMALL
USER_CHARGES

@<TRIPOS>ATOM
      1 C1          0.7775    1.9519   -1.2315 C.3       1 <0>        -0.1209
      2 C2          0.6895    0.4642   -1.0078 C.ar      1 <0>        -0.0463
      3 C3          0.5658   -0.3900   -2.0867 C.ar      1 <0>        -0.1512
      4 C4          0.4852   -1.7592   -1.8801 C.ar      1 <0>         0.1159
      5 C5          0.5290   -2.2676   -0.5898 C.ar      1 <0>        -0.2094
      6 C6          0.6527   -1.4095    0.4855 C.ar      1 <0>        -0.0792
      7 C7          0.7382   -0.0451    0.2765 C.ar      1 <0>        -0.1001
      8 C8          0.8793    0.8884    1.4511 C.3       1 <0>        -0.0563
      9 C9         -0.5018    1.4014    1.8637 C.3       1 <0>        -0.1755
     10 C10        -0.3606    2.3350    3.0383 C.2       1 <0>         0.4892
     11 O1          0.7424    2.5683    3.5024 O.co2     1 <0>        -0.6986
     12 O2         -1.3494    2.8569    3.5245 O.co2     1 <0>        -0.7069
     13 O3          0.3631   -2.6015   -2.9396 O.3       1 <0>        -0.3184
     14 C11         0.2856   -3.9990   -2.6519 C.3       1 <0>         0.0618
     15 C12         0.1523   -4.7823   -3.9594 C.3       1 <0>        -0.1083
     16 C13         0.0693   -6.2787   -3.6514 C.3       1 <0>         0.0764
     17 H1         -0.7456   -6.4607   -2.9507 H         1 <0>         0.0756
     18 C14        -0.1888   -7.0523   -4.9459 C.3       1 <0>        -0.1778
     19 O4          1.3011   -6.7150   -3.0732 O.3       1 <0>        -0.2590
     20 C15         1.2546   -7.8191   -2.2834 C.ar      1 <0>         0.1769
     21 C16         0.0744   -8.5349   -2.1577 C.ar      1 <0>        -0.2084
     22 C17         0.0280   -9.6581   -1.3547 C.ar      1 <0>        -0.0553
     23 C18         1.1579  -10.0755   -0.6708 C.ar      1 <0>        -0.0783
     24 C19         2.3401   -9.3718   -0.7871 C.ar      1 <0>        -0.0527
     25 C20         2.3988   -8.2408   -1.5991 C.ar      1 <0>        -0.0750
     26 C21         3.6670   -7.4849   -1.7325 C.ar      1 <0>         0.1714
     27 C22         4.8039   -7.9163   -1.0509 C.ar      1 <0>        -0.1670
     28 C23         5.9802   -7.2003   -1.1853 C.ar      1 <0>        -0.0735
     29 C24         5.9820   -6.0749   -1.9978 C.ar      1 <0>        -0.1747
     30 C25         4.8182   -5.7037   -2.6447 C.ar      1 <0>         0.1056
     31 N1          3.7122   -6.4063   -2.5040 N.ar      1 <0>        -0.4484
     32 Cl1         1.0872  -11.4878    0.3362 Cl        1 <0>        -0.0683
     33 H2          1.8218    2.2399   -1.3523 H         1 <0>         0.0711
     34 H3          0.2211    2.2177   -2.1303 H         1 <0>         0.0632
     35 H4          0.3535    2.4740   -0.3739 H         1 <0>         0.0807
     36 H5          0.5316    0.0081   -3.0901 H         1 <0>         0.1248
     37 H6          0.4661   -3.3333   -0.4263 H         1 <0>         0.1196
     38 H7          0.6869   -1.8046    1.4900 H         1 <0>         0.1222
     39 H8          1.3334    0.3553    2.2864 H         1 <0>         0.0673
     40 H9          1.5114    1.7313    1.1714 H         1 <0>         0.0719
     41 H10        -0.9558    1.9346    1.0284 H         1 <0>         0.0579
     42 H11        -1.1338    0.5586    2.1434 H         1 <0>         0.0554
     43 H12         1.1897   -4.3134   -2.1306 H         1 <0>         0.0705
     44 H13        -0.5828   -4.1927   -2.0222 H         1 <0>         0.0550
     45 H14        -0.7518   -4.4680   -4.4808 H         1 <0>         0.0921
     46 H15         1.0207   -4.5886   -4.5891 H         1 <0>         0.0884
     47 H16         0.6261   -6.8703   -5.6465 H         1 <0>         0.0714
     48 H17        -0.2479   -8.1184   -4.7264 H         1 <0>         0.0643
     49 H18        -1.1283   -6.7195   -5.3869 H         1 <0>         0.0747
     50 H19        -0.8101   -8.2140   -2.6879 H         1 <0>         0.1434
     51 H20        -0.8936  -10.2131   -1.2594 H         1 <0>         0.1380
     52 H21         3.2193   -9.6996   -0.2522 H         1 <0>         0.1430
     53 H22         4.7669   -8.7966   -0.4264 H         1 <0>         0.1343
     54 H23         6.8770   -7.5101   -0.6692 H         1 <0>         0.1354
     55 H24         6.8841   -5.4944   -2.1231 H         1 <0>         0.1349
     56 H25         4.8164   -4.8286   -3.2775 H         1 <0>         0.1570
@<TRIPOS>BOND
     1    1    2 1
     2    1   33 1
     3    1   34 1
     4    1   35 1
     5    2    7 ar
     6    2    3 ar
     7    3    4 ar
     8    3   36 1
     9    4    5 ar
    10    4   13 1
    11    5    6 ar
    12    5   37 1
    13    6    7 ar
    14    6   38 1
    15    7    8 1
    16    8    9 1
    17    8   39 1
    18    8   40 1
    19    9   10 1
    20    9   41 1
    21    9   42 1
    22   10   11 2
    23   10   12 1
    24   13   14 1
    25   14   15 1
    26   14   43 1
    27   14   44 1
    28   15   16 1
    29   15   45 1
    30   15   46 1
    31   16   17 1
    32   16   18 1
    33   16   19 1
    34   18   47 1
    35   18   48 1
    36   18   49 1
    37   19   20 1
    38   20   25 ar
    39   20   21 ar
    40   21   22 ar
    41   21   50 1
    42   22   23 ar
    43   22   51 1
    44   23   24 ar
    45   23   32 1
    46   24   25 ar
    47   24   52 1
    48   25   26 1
    49   26   31 ar
    50   26   27 ar
    51   27   28 ar
    52   27   53 1
    53   28   29 ar
    54   28   54 1
    55   29   30 ar
    56   29   55 1
    57   30   31 ar
    58   30   56 1
@<TRIPOS>MOLECULE
CHEMBL524063
   58    60     0     0     0
SMALL
USER_CHARGES

@<TRIPOS>ATOM
      1 C1          3.8097    0.3140   -4.2922 C.3       1 <0>        -0.1056
      2 C2          3.4089   -1.0607   -3.8226 C.ar      1 <0>        -0.1113
      3 C3          2.0859   -1.3335   -3.5353 C.ar      1 <0>        -0.0289
      4 C4          1.7167   -2.6009   -3.1029 C.ar      1 <0>        -0.1440
      5 C5          2.6792   -3.5929   -2.9599 C.ar      1 <0>        -0.0777
      6 C6          4.0011   -3.3179   -3.2477 C.ar      1 <0>        -0.2040
      7 C7          4.3680   -2.0532   -3.6846 C.ar      1 <0>         0.1437
      8 O1          5.6697   -1.7849   -3.9728 O.3       1 <0>        -0.2757
      9 C8          6.6041   -2.8535   -3.8084 C.3       1 <0>        -0.0068
     10 C9          7.9855   -2.3731   -4.1717 C.2       1 <0>         0.5017
     11 O2          8.1542   -1.2224   -4.5376 O.co2     1 <0>        -0.6697
     12 O3          8.9345   -3.1353   -4.0999 O.co2     1 <0>        -0.6881
     13 S1          0.0293   -2.9503   -2.7354 S.3       1 <0>         0.0043
     14 C10         0.0157   -4.6796   -2.3978 C.ar      1 <0>        -0.1560
     15 C11        -0.0729   -5.1325   -1.0887 C.ar      1 <0>        -0.0296
     16 C12        -0.0833   -6.4893   -0.8268 C.ar      1 <0>        -0.1386
     17 C13        -0.0052   -7.3982   -1.8659 C.ar      1 <0>        -0.0357
     18 C14         0.0838   -6.9546   -3.1728 C.ar      1 <0>        -0.1938
     19 C15         0.0881   -5.5966   -3.4448 C.ar      1 <0>         0.1744
     20 O4          0.1694   -5.1591   -4.7299 O.3       1 <0>        -0.2857
     21 C16         0.2406   -6.1558   -5.7514 C.3       1 <0>         0.1719
     22 C17         0.3229   -5.5037   -7.0685 C.1       1 <0>        -0.2063
     23 C18         0.3885   -4.9836   -8.1189 C.1       1 <0>        -0.1453
     24 C19        -0.0165   -8.8765   -1.5735 C.3       1 <0>         0.0962
     25 O5         -1.3640   -9.3521   -1.5749 O.3       1 <0>        -0.2993
     26 C20        -1.5518  -10.6748   -1.3258 C.ar      1 <0>         0.1655
     27 C21        -0.4618  -11.4970   -1.0794 C.ar      1 <0>        -0.2123
     28 C22        -0.6554  -12.8411   -0.8260 C.ar      1 <0>        -0.0267
     29 C23        -1.9340  -13.3673   -0.8183 C.ar      1 <0>        -0.2260
     30 C24        -3.0218  -12.5501   -1.0641 C.ar      1 <0>        -0.0298
     31 C25        -2.8341  -11.2041   -1.3119 C.ar      1 <0>        -0.1526
     32 C26        -2.1421  -14.8341   -0.5421 C.3       1 <0>         0.5122
     33 F1         -2.3045  -15.0311    0.8334 F         1 <0>        -0.1776
     34 F2         -3.2857  -15.2776   -1.2149 F         1 <0>        -0.1781
     35 F3         -1.0294  -15.5552   -0.9884 F         1 <0>        -0.1780
     36 C27         1.0433   -0.2565   -3.6904 C.3       1 <0>        -0.1147
     37 H1          3.7495    0.3584   -5.3796 H         1 <0>         0.0668
     38 H2          3.1376    1.0557   -3.8605 H         1 <0>         0.0639
     39 H3          4.8318    0.5223   -3.9761 H         1 <0>         0.0779
     40 H4          2.3933   -4.5785   -2.6235 H         1 <0>         0.1135
     41 H5          4.7494   -4.0886   -3.1363 H         1 <0>         0.1279
     42 H6          6.5965   -3.1863   -2.7705 H         1 <0>         0.0581
     43 H7          6.3253   -3.6831   -4.4580 H         1 <0>         0.0574
     44 H8         -0.1333   -4.4248   -0.2752 H         1 <0>         0.1447
     45 H9         -0.1523   -6.8407    0.1921 H         1 <0>         0.1335
     46 H10         0.1454   -7.6674   -3.9818 H         1 <0>         0.1358
     47 H11         1.1254   -6.7731   -5.5957 H         1 <0>         0.0873
     48 H12        -0.6508   -6.7818   -5.7109 H         1 <0>         0.0879
     49 H13         0.4472   -4.5184   -9.0584 H         1 <0>         0.2256
     50 H14         0.5552   -9.4026   -2.3380 H         1 <0>         0.0790
     51 H15         0.4315   -9.0571   -0.5963 H         1 <0>         0.0820
     52 H16         0.5371  -11.0866   -1.0859 H         1 <0>         0.1415
     53 H17         0.1928  -13.4816   -0.6341 H         1 <0>         0.1394
     54 H18        -4.0196  -12.9635   -1.0579 H         1 <0>         0.1429
     55 H19        -3.6845  -10.5653   -1.4994 H         1 <0>         0.1442
     56 H20         0.6396   -0.2847   -4.7024 H         1 <0>         0.0751
     57 H21         0.2392   -0.4234   -2.9737 H         1 <0>         0.0672
     58 H22         1.4970    0.7175   -3.5071 H         1 <0>         0.0764
@<TRIPOS>BOND
     1    1    2 1
     2    1   37 1
     3    1   38 1
     4    1   39 1
     5    2    7 ar
     6    2    3 ar
     7    3    4 ar
     8    3   36 1
     9    4    5 ar
    10    4   13 1
    11    5    6 ar
    12    5   40 1
    13    6    7 ar
    14    6   41 1
    15    7    8 1
    16    8    9 1
    17    9   10 1
    18    9   42 1
    19    9   43 1
    20   10   11 2
    21   10   12 1
    22   13   14 1
    23   14   19 ar
    24   14   15 ar
    25   15   16 ar
    26   15   44 1
    27   16   17 ar
    28   16   45 1
    29   17   18 ar
    30   17   24 1
    31   18   19 ar
    32   18   46 1
    33   19   20 1
    34   20   21 1
    35   21   22 1
    36   21   47 1
    37   21   48 1
    38   22   23 3
    39   23   49 1
    40   24   25 1
    41   24   50 1
    42   24   51 1
    43   25   26 1
    44   26   31 ar
    45   26   27 ar
    46   27   28 ar
    47   27   52 1
    48   28   29 ar
    49   28   53 1
    50   29   30 ar
    51   29   32 1
    52   30   31 ar
    53   30   54 1
    54   31   55 1
    55   32   33 1
    56   32   34 1
    57   32   35 1
    58   36   56 1
    59   36   57 1
    60   36   58 1
@<TRIPOS>MOLECULE
CHEMBL472050
   46    47     0     0     0
SMALL
USER_CHARGES

@<TRIPOS>ATOM
      1 C1         -0.0184    1.5028    0.0103 C.3       1 <0>        -0.1054
      2 C2          0.0021   -0.0041    0.0020 C.ar      1 <0>        -0.1064
      3 C3          0.0057   -0.6878   -1.1980 C.ar      1 <0>        -0.0597
      4 C4          0.0246   -2.0766   -1.2053 C.ar      1 <0>        -0.1369
      5 C5          0.0397   -2.7765   -0.0051 C.ar      1 <0>        -0.0938
      6 C6          0.0360   -2.0909    1.1933 C.ar      1 <0>        -0.1965
      7 C7          0.0229   -0.7036    1.1994 C.ar      1 <0>         0.1412
      8 O1          0.0254   -0.0293    2.3804 O.3       1 <0>        -0.2748
      9 C8          0.0474   -0.8131    3.5751 C.3       1 <0>        -0.0084
     10 C9          0.0468    0.0992    4.7746 C.2       1 <0>         0.5015
     11 O2          0.0293    1.3085    4.6207 O.co2     1 <0>        -0.6696
     12 O3          0.0640   -0.3721    5.8989 O.co2     1 <0>        -0.6869
     13 S1          0.0286   -2.9502   -2.7355 S.3       1 <0>        -0.1241
     14 C10         0.0549   -4.6962   -2.2439 C.3       1 <0>        -0.0650
     15 C11         0.0604   -5.5647   -3.4755 C.2       1 <0>        -0.1301
     16 C12         1.1626   -6.1673   -3.8471 C.2       1 <0>        -0.1338
     17 C13        -1.2021   -5.7401   -4.2795 C.3       1 <0>         0.0952
     18 O4         -0.9438   -6.6017   -5.3899 O.3       1 <0>        -0.3046
     19 C14        -1.9856   -6.8650   -6.2219 C.ar      1 <0>         0.1677
     20 C15        -3.2294   -6.3011   -5.9778 C.ar      1 <0>        -0.2103
     21 C16        -4.2867   -6.5700   -6.8253 C.ar      1 <0>        -0.0265
     22 C17        -4.1062   -7.4007   -7.9158 C.ar      1 <0>        -0.2263
     23 C18        -2.8676   -7.9642   -8.1610 C.ar      1 <0>        -0.0305
     24 C19        -1.8056   -7.6936   -7.3200 C.ar      1 <0>        -0.1536
     25 C20        -5.2614   -7.6927   -8.8384 C.3       1 <0>         0.5123
     26 F1         -5.2917   -6.7411   -9.8634 F         1 <0>        -0.1775
     27 F2         -5.1060   -8.9685   -9.3910 F         1 <0>        -0.1784
     28 F3         -6.4591   -7.6395   -8.1173 F         1 <0>        -0.1781
     29 H1          1.0042    1.8801    0.0026 H         1 <0>         0.0686
     30 H2         -0.5455    1.8639   -0.8728 H         1 <0>         0.0608
     31 H3         -0.5286    1.8543    0.9071 H         1 <0>         0.0800
     32 H4         -0.0064   -0.1428   -2.1303 H         1 <0>         0.1292
     33 H5          0.0540   -3.8564   -0.0097 H         1 <0>         0.1189
     34 H6          0.0478   -2.6347    2.1263 H         1 <0>         0.1320
     35 H7         -0.8339   -1.4538    3.6055 H         1 <0>         0.0593
     36 H8          0.9458   -1.4302    3.5883 H         1 <0>         0.0594
     37 H9          0.9506   -4.8945   -1.6554 H         1 <0>         0.0998
     38 H10        -0.8291   -4.9187   -1.6464 H         1 <0>         0.0953
     39 H11         1.1666   -6.7897   -4.7297 H         1 <0>         0.1169
     40 H12         2.0674   -6.0416   -3.2709 H         1 <0>         0.1072
     41 H13        -1.9754   -6.1805   -3.6501 H         1 <0>         0.0791
     42 H14        -1.5389   -4.7694   -4.6434 H         1 <0>         0.0845
     43 H15        -3.3711   -5.6528   -5.1258 H         1 <0>         0.1423
     44 H16        -5.2552   -6.1313   -6.6357 H         1 <0>         0.1395
     45 H17        -2.7292   -8.6130   -9.0132 H         1 <0>         0.1426
     46 H18        -0.8372   -8.1305   -7.5144 H         1 <0>         0.1438
@<TRIPOS>BOND
     1    1    2 1
     2    1   29 1
     3    1   30 1
     4    1   31 1
     5    2    7 ar
     6    2    3 ar
     7    3    4 ar
     8    3   32 1
     9    4    5 ar
    10    4   13 1
    11    5    6 ar
    12    5   33 1
    13    6    7 ar
    14    6   34 1
    15    7    8 1
    16    8    9 1
    17    9   10 1
    18    9   35 1
    19    9   36 1
    20   10   11 2
    21   10   12 1
    22   13   14 1
    23   14   15 1
    24   14   37 1
    25   14   38 1
    26   15   16 2
    27   15   17 1
    28   16   39 1
    29   16   40 1
    30   17   18 1
    31   17   41 1
    32   17   42 1
    33   18   19 1
    34   19   24 ar
    35   19   20 ar
    36   20   21 ar
    37   20   43 1
    38   21   22 ar
    39   21   44 1
    40   22   23 ar
    41   22   25 1
    42   23   24 ar
    43   23   45 1
    44   24   46 1
    45   25   26 1
    46   25   27 1
    47   25   28 1
@<TRIPOS>MOLECULE
CHEMBL234907
   60    63     0     0     0
SMALL
USER_CHARGES

@<TRIPOS>ATOM
      1 C1          2.0053    1.6369    0.7618 C.3       1 <0>        -0.0717
      2 C2          1.6729    0.1711    0.6534 C.2       1 <0>        -0.1389
      3 C3          0.4595   -0.4360    0.7166 C.2       1 <0>        -0.1639
      4 C4          0.3864   -1.8051    0.5910 C.2       1 <0>        -0.1241
      5 C5          1.5473   -2.5121    0.4054 C.2       1 <0>        -0.0508
      6 S1          2.7719   -1.2129    0.4009 S.3       1 <0>         0.0696
      7 C6          1.7290   -3.9240    0.2500 C.1       1 <0>        -0.1034
      8 C7          1.8779   -5.0815    0.1226 C.1       1 <0>        -0.1071
      9 C8          2.0647   -6.5329   -0.0371 C.3       1 <0>         0.0921
     10 C9          1.5500   -7.2434    1.1882 C.2       1 <0>        -0.1356
     11 C10         0.6823   -8.2170    1.0647 C.2       1 <0>        -0.1316
     12 C11         0.3224   -8.7367   -0.3033 C.3       1 <0>         0.0795
     13 O1          0.2957  -10.1652   -0.2784 O.3       1 <0>        -0.3108
     14 C12        -0.0147  -10.7973   -1.4417 C.ar      1 <0>         0.0773
     15 C13        -0.2820  -10.0564   -2.5836 C.ar      1 <0>        -0.1720
     16 C14        -0.5977  -10.6984   -3.7650 C.ar      1 <0>        -0.1757
     17 C15        -0.6470  -12.0840   -3.8098 C.ar      1 <0>         0.1073
     18 C16        -0.3793  -12.8246   -2.6683 C.ar      1 <0>        -0.0852
     19 C17        -0.0584  -12.1826   -1.4878 C.ar      1 <0>        -0.1123
     20 C18        -0.4329  -14.3298   -2.7170 C.3       1 <0>        -0.1051
     21 O2         -0.9583  -12.7160   -4.9729 O.3       1 <0>        -0.2782
     22 C19        -1.2228  -11.8907   -6.1091 C.3       1 <0>        -0.0064
     23 C20        -1.5468  -12.7598   -7.2968 C.2       1 <0>         0.5013
     24 O3         -1.5509  -13.9735   -7.1810 O.co2     1 <0>        -0.6705
     25 O4         -1.8049  -12.2493   -8.3735 O.co2     1 <0>        -0.6887
     26 C21         3.5306   -6.8343   -0.2141 C.ar      1 <0>        -0.0920
     27 C22         4.4304   -6.4905    0.7845 C.ar      1 <0>        -0.0792
     28 C23         5.7753   -6.7571    0.6418 C.ar      1 <0>        -0.1033
     29 C24         6.2381   -7.3769   -0.5125 C.ar      1 <0>         0.0532
     30 C25         5.3218   -7.7229   -1.5197 C.ar      1 <0>        -0.1228
     31 C26         3.9647   -7.4498   -1.3552 C.ar      1 <0>        -0.0568
     32 C27         6.1221   -8.3475   -2.5799 C.2       1 <0>        -0.2061
     33 C28         7.3910   -8.3293   -2.1499 C.2       1 <0>         0.0323
     34 O5          7.4602   -7.7588   -0.9344 O.3       1 <0>        -0.1942
     35 C29         8.5699   -8.8700   -2.9175 C.3       1 <0>        -0.0807
     36 H1          3.0820    1.7737    0.6613 H         1 <0>         0.0733
     37 H2          1.4940    2.1850   -0.0296 H         1 <0>         0.0829
     38 H3          1.6804    2.0124    1.7321 H         1 <0>         0.0829
     39 H4         -0.4369    0.1480    0.8640 H         1 <0>         0.1382
     40 H5         -0.5658   -2.3124    0.6380 H         1 <0>         0.1386
     41 H6          1.5149   -6.8756   -0.9137 H         1 <0>         0.1142
     42 H7          1.8966   -6.9500    2.1681 H         1 <0>         0.1277
     43 H8          0.2248   -8.6473    1.9433 H         1 <0>         0.1300
     44 H9         -0.6598   -8.3598   -0.5883 H         1 <0>         0.0713
     45 H10         1.0648   -8.3997   -1.0268 H         1 <0>         0.0691
     46 H11        -0.2436   -8.9777   -2.5488 H         1 <0>         0.1224
     47 H12        -0.8065  -10.1216   -4.6539 H         1 <0>         0.1305
     48 H13         0.1540  -12.7594   -0.5999 H         1 <0>         0.1320
     49 H14         0.5502  -14.7201   -2.9800 H         1 <0>         0.0688
     50 H15        -0.7273  -14.7147   -1.7406 H         1 <0>         0.0610
     51 H16        -1.1605  -14.6435   -3.4655 H         1 <0>         0.0803
     52 H17        -2.0690  -11.2379   -5.8949 H         1 <0>         0.0572
     53 H18        -0.3439  -11.2852   -6.3308 H         1 <0>         0.0571
     54 H19         4.0735   -6.0087    1.6827 H         1 <0>         0.1337
     55 H20         6.4674   -6.4847    1.4248 H         1 <0>         0.1333
     56 H21         3.2598   -7.7194   -2.1278 H         1 <0>         0.1300
     57 H22         5.7607   -8.7423   -3.5179 H         1 <0>         0.1600
     58 H23         8.9897   -8.0812   -3.5417 H         1 <0>         0.0859
     59 H24         9.3281   -9.2222   -2.2181 H         1 <0>         0.0797
     60 H25         8.2444   -9.6976   -3.5477 H         1 <0>         0.0943
@<TRIPOS>BOND
     1    1    2 1
     2    1   36 1
     3    1   37 1
     4    1   38 1
     5    2    6 1
     6    2    3 2
     7    3    4 1
     8    3   39 1
     9    4    5 2
    10    4   40 1
    11    5    6 1
    12    5    7 1
    13    7    8 3
    14    8    9 1
    15    9   10 1
    16    9   26 1
    17    9   41 1
    18   10   11 2
    19   10   42 1
    20   11   12 1
    21   11   43 1
    22   12   13 1
    23   12   44 1
    24   12   45 1
    25   13   14 1
    26   14   19 ar
    27   14   15 ar
    28   15   16 ar
    29   15   46 1
    30   16   17 ar
    31   16   47 1
    32   17   18 ar
    33   17   21 1
    34   18   19 ar
    35   18   20 1
    36   19   48 1
    37   20   49 1
    38   20   50 1
    39   20   51 1
    40   21   22 1
    41   22   23 1
    42   22   52 1
    43   22   53 1
    44   23   24 2
    45   23   25 1
    46   26   31 ar
    47   26   27 ar
    48   27   28 ar
    49   27   54 1
    50   28   29 ar
    51   28   55 1
    52   29   34 1
    53   29   30 ar
    54   30   31 ar
    55   30   32 1
    56   31   56 1
    57   32   33 2
    58   32   57 1
    59   33   34 1
    60   33   35 1
    61   35   58 1
    62   35   59 1
    63   35   60 1
@<TRIPOS>MOLECULE
CHEMBL234907__1
   60    63     0     0     0
SMALL
USER_CHARGES

@<TRIPOS>ATOM
      1 C1         -1.8429    0.8673    0.8530 C.3       1 <0>        -0.0713
      2 C2         -1.4845   -0.5905    0.7207 C.2       1 <0>        -0.1385
      3 C3         -2.2993   -1.6766    0.7579 C.2       1 <0>        -0.1630
      4 C4         -1.7520   -2.9316    0.6135 C.2       1 <0>        -0.1212
      5 C5         -0.3962   -3.0422    0.4362 C.2       1 <0>        -0.0530
      6 S1          0.1189   -1.3330    0.4668 S.3       1 <0>         0.0669
      7 C6          0.3983   -4.2213    0.2652 C.1       1 <0>        -0.0976
      8 C7          1.0497   -5.1879    0.1251 C.1       1 <0>        -0.1153
      9 C8          1.8664   -6.3999   -0.0506 C.3       1 <0>         0.0930
     10 C9          1.4073   -7.1411   -1.2798 C.2       1 <0>        -0.1360
     11 C10         0.8365   -8.3144   -1.1621 C.2       1 <0>        -0.1316
     12 C11         0.4894   -8.8499    0.2031 C.3       1 <0>         0.0787
     13 O1         -0.8216   -9.4178    0.1728 O.3       1 <0>        -0.3116
     14 C12        -1.2910   -9.9495    1.3329 C.ar      1 <0>         0.0767
     15 C13        -0.5070   -9.9193    2.4769 C.ar      1 <0>        -0.1713
     16 C14        -0.9836  -10.4598    3.6551 C.ar      1 <0>        -0.1758
     17 C15        -2.2464  -11.0325    3.6947 C.ar      1 <0>         0.1073
     18 C16        -3.0303  -11.0624    2.5511 C.ar      1 <0>        -0.0855
     19 C17        -2.5557  -10.5170    1.3738 C.ar      1 <0>        -0.1125
     20 C18        -4.4022  -11.6846    2.5940 C.3       1 <0>        -0.1050
     21 O2         -2.7155  -11.5651    4.8546 O.3       1 <0>        -0.2781
     22 C19        -1.8544  -11.5001    5.9932 C.3       1 <0>        -0.0066
     23 C20        -2.5380  -12.1347    7.1769 C.2       1 <0>         0.5014
     24 O3         -3.6586  -12.5996    7.0566 O.co2     1 <0>        -0.6704
     25 O4         -1.9703  -12.1832    8.2548 O.co2     1 <0>        -0.6888
     26 C21         3.3138   -6.0116   -0.2095 C.ar      1 <0>        -0.0881
     27 C22         3.6951   -5.1866   -1.2579 C.ar      1 <0>        -0.0787
     28 C23         5.0140   -4.8203   -1.4209 C.ar      1 <0>        -0.1031
     29 C24         5.9741   -5.2796   -0.5278 C.ar      1 <0>         0.0529
     30 C25         5.5816   -6.1142    0.5319 C.ar      1 <0>        -0.1249
     31 C26         4.2422   -6.4699    0.6837 C.ar      1 <0>        -0.0586
     32 C27         6.8131   -6.4129    1.2726 C.2       1 <0>        -0.2078
     33 C28         7.7988   -5.7681    0.6338 C.2       1 <0>         0.0324
     34 O5          7.3064   -5.1015   -0.4249 O.3       1 <0>        -0.1941
     35 C29         9.2492   -5.7873    1.0428 C.3       1 <0>        -0.0808
     36 H1         -0.9401    1.4724    0.7704 H         1 <0>         0.0729
     37 H2         -2.5392    1.1436    0.0612 H         1 <0>         0.0827
     38 H3         -2.3087    1.0403    1.8232 H         1 <0>         0.0833
     39 H4         -3.3633   -1.5572    0.8994 H         1 <0>         0.1389
     40 H5         -2.3776   -3.8116    0.6397 H         1 <0>         0.1397
     41 H6          1.7563   -7.0420    0.8232 H         1 <0>         0.1137
     42 H7          1.5489   -6.7051   -2.2577 H         1 <0>         0.1283
     43 H8          0.6148   -8.8978   -2.0435 H         1 <0>         0.1300
     44 H9          1.2108   -9.6161    0.4870 H         1 <0>         0.0720
     45 H10         0.5169   -8.0379    0.9297 H         1 <0>         0.0695
     46 H11         0.4761   -9.4734    2.4462 H         1 <0>         0.1225
     47 H12        -0.3730  -10.4369    4.5456 H         1 <0>         0.1306
     48 H13        -3.1678  -10.5366    0.4843 H         1 <0>         0.1321
     49 H14        -5.1377  -10.9247    2.8581 H         1 <0>         0.0687
     50 H15        -4.6438  -12.0995    1.6155 H         1 <0>         0.0610
     51 H16        -4.4174  -12.4796    3.3396 H         1 <0>         0.0803
     52 H17        -0.9283  -12.0337    5.7793 H         1 <0>         0.0573
     53 H18        -1.6293  -10.4578    6.2194 H         1 <0>         0.0572
     54 H19         2.9510   -4.8281   -1.9537 H         1 <0>         0.1352
     55 H20         5.3003   -4.1783   -2.2409 H         1 <0>         0.1338
     56 H21         3.9397   -7.1083    1.5006 H         1 <0>         0.1313
     57 H22         6.9061   -7.0285    2.1551 H         1 <0>         0.1592
     58 H23         9.7549   -6.6172    0.5492 H         1 <0>         0.0864
     59 H24         9.7213   -4.8491    0.7513 H         1 <0>         0.0797
     60 H25         9.3203   -5.9095    2.1235 H         1 <0>         0.0932
@<TRIPOS>BOND
     1    1    2 1
     2    1   36 1
     3    1   37 1
     4    1   38 1
     5    2    6 1
     6    2    3 2
     7    3    4 1
     8    3   39 1
     9    4    5 2
    10    4   40 1
    11    5    6 1
    12    5    7 1
    13    7    8 3
    14    8    9 1
    15    9   10 1
    16    9   26 1
    17    9   41 1
    18   10   11 2
    19   10   42 1
    20   11   12 1
    21   11   43 1
    22   12   13 1
    23   12   44 1
    24   12   45 1
    25   13   14 1
    26   14   19 ar
    27   14   15 ar
    28   15   16 ar
    29   15   46 1
    30   16   17 ar
    31   16   47 1
    32   17   18 ar
    33   17   21 1
    34   18   19 ar
    35   18   20 1
    36   19   48 1
    37   20   49 1
    38   20   50 1
    39   20   51 1
    40   21   22 1
    41   22   23 1
    42   22   52 1
    43   22   53 1
    44   23   24 2
    45   23   25 1
    46   26   31 ar
    47   26   27 ar
    48   27   28 ar
    49   27   54 1
    50   28   29 ar
    51   28   55 1
    52   29   34 1
    53   29   30 ar
    54   30   31 ar
    55   30   32 1
    56   31   56 1
    57   32   33 2
    58   32   57 1
    59   33   34 1
    60   33   35 1
    61   35   58 1
    62   35   59 1
    63   35   60 1
@<TRIPOS>MOLECULE
CHEMBL383728
   55    58     0     0     0
SMALL
USER_CHARGES

@<TRIPOS>ATOM
      1 C1         -0.0187    1.5258    0.0104 C.3       1 <0>        -0.1519
      2 C2          0.0021   -0.0041    0.0020 C.3       1 <0>        -0.1176
      3 C3          0.7421   -0.5109    1.2415 C.3       1 <0>        -0.0692
      4 C4          0.7625   -2.0177    1.2333 C.ar      1 <0>        -0.1229
      5 C5         -0.2618   -2.7295    1.8327 C.ar      1 <0>         0.2024
      6 C6         -0.2503   -4.1223    1.8294 C.ar      1 <0>        -0.2161
      7 C7          0.7717   -4.8044    1.2346 C.ar      1 <0>         0.0013
      8 C8          1.8143   -4.1024    0.6239 C.ar      1 <0>        -0.2137
      9 C9          1.8057   -2.6968    0.6194 C.ar      1 <0>         0.1308
     10 O1          2.9142   -2.2956   -0.0353 O.3       1 <0>        -0.0559
     11 N1          3.6416   -3.4301   -0.4619 N.2       1 <0>        -0.2261
     12 C10         3.0298   -4.5107   -0.0846 C.2       1 <0>         0.0483
     13 C11         3.4787   -5.9260   -0.3428 C.3       1 <0>         0.5556
     14 F1          2.9526   -6.3671   -1.5617 F         1 <0>        -0.1555
     15 F2          4.8760   -5.9698   -0.3949 F         1 <0>        -0.1568
     16 F3          3.0242   -6.7548    0.6885 F         1 <0>        -0.1552
     17 O2         -1.2855   -2.0651    2.4291 O.3       1 <0>        -0.2936
     18 C12        -2.3113   -2.8583    3.0296 C.3       1 <0>         0.0588
     19 C13        -3.3699   -1.9415    3.6458 C.3       1 <0>        -0.1390
     20 C14        -4.4682   -2.7907    4.2888 C.3       1 <0>         0.1213
     21 N2         -5.4818   -1.9128    4.8788 N.pl3     1 <0>        -0.4894
     22 C15        -5.5103   -1.5133    6.1872 C.2       1 <0>         0.0352
     23 C16        -6.5680   -0.7144    6.3990 C.2       1 <0>        -0.1979
     24 C17        -7.2750   -0.5923    5.1218 C.ar      1 <0>        -0.1032
     25 C18        -6.5445   -1.3622    4.1980 C.ar      1 <0>         0.0837
     26 C19        -6.9775   -1.4348    2.8783 C.ar      1 <0>        -0.1364
     27 C20        -8.1100   -0.7522    2.4912 C.ar      1 <0>        -0.0814
     28 C21        -8.8251    0.0088    3.4054 C.ar      1 <0>        -0.0442
     29 C22        -8.4224    0.0872    4.7090 C.ar      1 <0>        -0.0713
     30 C23       -10.0606    0.7473    2.9591 C.3       1 <0>        -0.1546
     31 C24       -11.2664   -0.1399    3.1327 C.2       1 <0>         0.4954
     32 O3        -11.1346   -1.2674    3.5776 O.co2     1 <0>        -0.6871
     33 O4        -12.3736    0.2698    2.8282 O.co2     1 <0>        -0.7055
     34 H1          1.0039    1.9031    0.0027 H         1 <0>         0.0539
     35 H2         -0.5459    1.8868   -0.8726 H         1 <0>         0.0562
     36 H3         -0.5289    1.8773    0.9072 H         1 <0>         0.0570
     37 H4         -1.0205   -0.3814    0.0098 H         1 <0>         0.0659
     38 H5          0.5123   -0.3556   -0.8948 H         1 <0>         0.0595
     39 H6          1.7647   -0.1336    1.2338 H         1 <0>         0.0749
     40 H7          0.2319   -0.1594    2.1383 H         1 <0>         0.0854
     41 H8         -1.0553   -4.6663    2.3009 H         1 <0>         0.1488
     42 H9          0.7747   -5.8844    1.2363 H         1 <0>         0.1447
     43 H10        -2.7742   -3.4889    2.2706 H         1 <0>         0.0732
     44 H11        -1.8767   -3.4858    3.8077 H         1 <0>         0.0718
     45 H12        -2.9070   -1.3108    4.4049 H         1 <0>         0.0827
     46 H13        -3.8045   -1.3139    2.8677 H         1 <0>         0.0856
     47 H14        -4.9311   -3.4213    3.5298 H         1 <0>         0.0865
     48 H15        -4.0336   -3.4182    5.0669 H         1 <0>         0.0886
     49 H16        -4.7887   -1.7987    6.9384 H         1 <0>         0.1605
     50 H17        -6.8455   -0.2501    7.3338 H         1 <0>         0.1412
     51 H18        -6.4277   -2.0240    2.1593 H         1 <0>         0.1092
     52 H19        -8.4445   -0.8096    1.4658 H         1 <0>         0.1180
     53 H20        -8.9830    0.6824    5.4146 H         1 <0>         0.1143
     54 H21       -10.1827    1.6481    3.5606 H         1 <0>         0.0673
     55 H22        -9.9601    1.0224    1.9091 H         1 <0>         0.0669
@<TRIPOS>BOND
     1    1    2 1
     2    1   34 1
     3    1   35 1
     4    1   36 1
     5    2    3 1
     6    2   37 1
     7    2   38 1
     8    3    4 1
     9    3   39 1
    10    3   40 1
    11    4    9 ar
    12    4    5 ar
    13    5    6 ar
    14    5   17 1
    15    6    7 ar
    16    6   41 1
    17    7    8 ar
    18    7   42 1
    19    8   12 1
    20    8    9 ar
    21    9   10 1
    22   10   11 1
    23   11   12 2
    24   12   13 1
    25   13   14 1
    26   13   15 1
    27   13   16 1
    28   17   18 1
    29   18   19 1
    30   18   43 1
    31   18   44 1
    32   19   20 1
    33   19   45 1
    34   19   46 1
    35   20   21 1
    36   20   47 1
    37   20   48 1
    38   21   25 1
    39   21   22 1
    40   22   23 2
    41   22   49 1
    42   23   24 1
    43   23   50 1
    44   24   29 ar
    45   24   25 ar
    46   25   26 ar
    47   26   27 ar
    48   26   51 1
    49   27   28 ar
    50   27   52 1
    51   28   29 ar
    52   28   30 1
    53   29   53 1
    54   30   31 1
    55   30   54 1
    56   30   55 1
    57   31   32 2
    58   31   33 1
@<TRIPOS>MOLECULE
CHEMBL219723
   51    54     0     0     0
SMALL
USER_CHARGES

@<TRIPOS>ATOM
      1 C1         -0.1555    0.3479   -0.4351 C.3       1 <0>        -0.0833
      2 C2          0.0974   -1.1346   -0.3389 C.2       1 <0>        -0.1691
      3 C3          0.2887   -1.9856   -1.3556 C.2       1 <0>        -0.0074
      4 O1          0.4844   -3.2311   -0.8871 O.3       1 <0>        -0.1918
      5 C4          0.4300   -3.2522    0.4598 C.ar      1 <0>         0.0939
      6 C5          0.1898   -1.9355    0.8884 C.ar      1 <0>        -0.1648
      7 C6          0.0890   -1.6476    2.2485 C.ar      1 <0>        -0.0273
      8 C7          0.2280   -2.6504    3.1671 C.ar      1 <0>        -0.2155
      9 C8          0.4695   -3.9565    2.7517 C.ar      1 <0>         0.1619
     10 C9          0.5640   -4.2603    1.4052 C.ar      1 <0>        -0.1513
     11 O2          0.6060   -4.9434    3.6764 O.3       1 <0>        -0.3066
     12 C10         0.4897   -4.5662    5.0498 C.3       1 <0>         0.0640
     13 C11         0.6706   -5.8010    5.9349 C.3       1 <0>        -0.1194
     14 C12         0.5460   -5.3972    7.4053 C.3       1 <0>         0.0659
     15 O3          0.7150   -6.5505    8.2320 O.3       1 <0>        -0.3152
     16 C13         0.6327   -6.3640    9.5756 C.ar      1 <0>         0.1141
     17 C14         0.3887   -5.0981   10.0885 C.ar      1 <0>        -0.2083
     18 C15         0.3061   -4.9137   11.4537 C.ar      1 <0>        -0.0704
     19 C16         0.4662   -5.9871   12.3148 C.ar      1 <0>        -0.1080
     20 C17         0.7096   -7.2495   11.8061 C.ar      1 <0>        -0.0610
     21 C18         0.7868   -7.4387   10.4371 C.ar      1 <0>        -0.1401
     22 C19         0.8454   -8.2413   12.9417 C.3       1 <0>        -0.0828
     23 C20         1.0947   -7.3830   14.2000 C.3       1 <0>        -0.1019
     24 C21         0.4218   -6.0450   13.8270 C.3       1 <0>        -0.0266
     25 H1         -0.6107   -6.0307   14.1759 H         1 <0>         0.0889
     26 C22         1.2020   -4.8732   14.4262 C.3       1 <0>        -0.1740
     27 C23         1.0298   -4.8682   15.9233 C.2       1 <0>         0.4909
     28 O4          0.2640   -5.6563   16.4515 O.co2     1 <0>        -0.6953
     29 O5          1.6563   -4.0761   16.6064 O.co2     1 <0>        -0.7082
     30 H2          0.7955    0.8804   -0.4203 H         1 <0>         0.0704
     31 H3         -0.6804    0.5674   -1.3648 H         1 <0>         0.0689
     32 H4         -0.7645    0.6682    0.4103 H         1 <0>         0.0681
     33 H5          0.2862   -1.7112   -2.4002 H         1 <0>         0.2068
     34 H6         -0.0980   -0.6355    2.5756 H         1 <0>         0.1314
     35 H7          0.1503   -2.4278    4.2211 H         1 <0>         0.1372
     36 H8          0.7533   -5.2761    1.0909 H         1 <0>         0.1412
     37 H9          1.2572   -3.8308    5.2909 H         1 <0>         0.0698
     38 H10        -0.4955   -4.1342    5.2257 H         1 <0>         0.0696
     39 H11        -0.0970   -6.5365    5.6938 H         1 <0>         0.0870
     40 H12         1.6557   -6.2330    5.7589 H         1 <0>         0.0871
     41 H13         1.3136   -4.6618    7.6464 H         1 <0>         0.0647
     42 H14        -0.4391   -4.9652    7.5813 H         1 <0>         0.0644
     43 H15         0.2640   -4.2585    9.4207 H         1 <0>         0.1234
     44 H16         0.1160   -3.9282   11.8526 H         1 <0>         0.1224
     45 H17         0.9720   -8.4255   10.0394 H         1 <0>         0.1241
     46 H18        -0.0732   -8.8173   13.0526 H         1 <0>         0.0794
     47 H19         1.6906   -8.9062   12.7639 H         1 <0>         0.0708
     48 H20         0.6163   -7.8271   15.0729 H         1 <0>         0.0855
     49 H21         2.1625   -7.2455   14.3699 H         1 <0>         0.0643
     50 H22         2.2592   -4.9781   14.1824 H         1 <0>         0.0567
     51 H23         0.8252   -3.9371   14.0140 H         1 <0>         0.0557
@<TRIPOS>BOND
     1    1    2 1
     2    1   30 1
     3    1   31 1
     4    1   32 1
     5    2    6 1
     6    2    3 2
     7    3    4 1
     8    3   33 1
     9    4    5 1
    10    5   10 ar
    11    5    6 ar
    12    6    7 ar
    13    7    8 ar
    14    7   34 1
    15    8    9 ar
    16    8   35 1
    17    9   10 ar
    18    9   11 1
    19   10   36 1
    20   11   12 1
    21   12   13 1
    22   12   37 1
    23   12   38 1
    24   13   14 1
    25   13   39 1
    26   13   40 1
    27   14   15 1
    28   14   41 1
    29   14   42 1
    30   15   16 1
    31   16   21 ar
    32   16   17 ar
    33   17   18 ar
    34   17   43 1
    35   18   19 ar
    36   18   44 1
    37   19   24 1
    38   19   20 ar
    39   20   21 ar
    40   20   22 1
    41   21   45 1
    42   22   23 1
    43   22   46 1
    44   22   47 1
    45   23   24 1
    46   23   48 1
    47   23   49 1
    48   24   25 1
    49   24   26 1
    50   26   27 1
    51   26   50 1
    52   26   51 1
    53   27   28 2
    54   27   29 1
@<TRIPOS>MOLECULE
CHEMBL210469
   61    64     0     0     0
SMALL
USER_CHARGES

@<TRIPOS>ATOM
      1 C1         -0.0184    1.5028    0.0103 C.3       1 <0>        -0.1056
      2 C2          0.0021   -0.0041    0.0020 C.ar      1 <0>        -0.0854
      3 C3          0.0058   -0.6883   -1.1982 C.ar      1 <0>        -0.1112
      4 C4          0.0251   -2.0749   -1.2058 C.ar      1 <0>         0.0743
      5 C5          0.0406   -2.7749   -0.0083 C.ar      1 <0>        -0.1708
      6 C6          0.0369   -2.0909    1.1915 C.ar      1 <0>        -0.1763
      7 C7          0.0229   -0.7038    1.1991 C.ar      1 <0>         0.1088
      8 O1          0.0250   -0.0303    2.3804 O.3       1 <0>        -0.2778
      9 C8          0.0470   -0.8150    3.5745 C.3       1 <0>        -0.0066
     10 C9          0.0459    0.0965    4.7746 C.2       1 <0>         0.5011
     11 O2          0.0280    1.3060    4.6215 O.co2     1 <0>        -0.6703
     12 O3          0.0630   -0.3755    5.8986 O.co2     1 <0>        -0.6883
     13 O4          0.0283   -2.7483   -2.3872 O.3       1 <0>        -0.3114
     14 C10         0.0485   -4.1756   -2.3202 C.3       1 <0>         0.1002
     15 C11         0.0491   -4.7440   -3.7159 C.ar      1 <0>        -0.0822
     16 C12        -1.1480   -5.0148   -4.3490 C.ar      1 <0>        -0.0690
     17 C13        -1.1534   -5.5406   -5.6400 C.ar      1 <0>        -0.0575
     18 C14         0.0503   -5.7921   -6.2910 C.ar      1 <0>        -0.0796
     19 C15         1.2534   -5.5169   -5.6486 C.ar      1 <0>        -0.0576
     20 C16         1.2468   -4.9867   -4.3593 C.ar      1 <0>        -0.0690
     21 C17         2.5412   -5.7830   -6.3364 C.ar      1 <0>        -0.0063
     22 C18         2.5492   -6.3035   -7.6288 C.ar      1 <0>        -0.1147
     23 C19         3.7498   -6.5490   -8.2638 C.ar      1 <0>        -0.0650
     24 C20         4.9437   -6.2798   -7.6193 C.ar      1 <0>        -0.1855
     25 C21         4.9416   -5.7635   -6.3360 C.ar      1 <0>        -0.0632
     26 C22         3.7468   -5.5079   -5.6942 C.ar      1 <0>        -0.1119
     27 C23         6.2514   -6.5505   -8.3175 C.3       1 <0>         0.5083
     28 F1          6.6462   -5.4108   -9.0263 F         1 <0>        -0.1758
     29 F2          7.2286   -6.8717   -7.3693 F         1 <0>        -0.1762
     30 F3          6.0935   -7.6203   -9.2051 F         1 <0>        -0.1773
     31 C24        -2.4407   -5.8320   -6.3186 C.ar      1 <0>        -0.0063
     32 C25        -2.4474   -6.3629   -7.6068 C.ar      1 <0>        -0.1147
     33 C26        -3.6475   -6.6320   -8.2333 C.ar      1 <0>        -0.0651
     34 C27        -4.8419   -6.3751   -7.5847 C.ar      1 <0>        -0.1855
     35 C28        -4.8410   -5.8477   -6.3060 C.ar      1 <0>        -0.0632
     36 C29        -3.6467   -5.5810   -5.6677 C.ar      1 <0>        -0.1119
     37 C30        -6.1491   -6.6705   -8.2741 C.3       1 <0>         0.5082
     38 F4         -6.5430   -7.9814   -7.9848 F         1 <0>        -0.1762
     39 F5         -7.1272   -5.7789   -7.8208 F         1 <0>        -0.1759
     40 F6         -5.9905   -6.5255   -9.6565 F         1 <0>        -0.1771
     41 H1          1.0042    1.8801    0.0026 H         1 <0>         0.0691
     42 H2         -0.5455    1.8639   -0.8728 H         1 <0>         0.0611
     43 H3         -0.5286    1.8543    0.9071 H         1 <0>         0.0806
     44 H4         -0.0067   -0.1432   -2.1305 H         1 <0>         0.1318
     45 H5          0.0553   -3.8548   -0.0143 H         1 <0>         0.1238
     46 H6          0.0483   -2.6360    2.1238 H         1 <0>         0.1310
     47 H7         -0.8341   -1.4560    3.6044 H         1 <0>         0.0575
     48 H8          0.9456   -1.4317    3.5875 H         1 <0>         0.0576
     49 H9          0.9459   -4.5020   -1.7946 H         1 <0>         0.0721
     50 H10        -0.8339   -4.5268   -1.7853 H         1 <0>         0.0721
     51 H11        -2.0817   -4.8191   -3.8427 H         1 <0>         0.1339
     52 H12         0.0507   -6.1998   -7.2911 H         1 <0>         0.1334
     53 H13         2.1800   -4.7689   -3.8613 H         1 <0>         0.1339
     54 H14         1.6176   -6.5147   -8.1327 H         1 <0>         0.1371
     55 H15         3.7571   -6.9525   -9.2656 H         1 <0>         0.1388
     56 H16         5.8767   -5.5558   -5.8371 H         1 <0>         0.1400
     57 H17         3.7462   -5.0999   -4.6942 H         1 <0>         0.1402
     58 H18        -1.5154   -6.5632   -8.1143 H         1 <0>         0.1371
     59 H19        -3.6539   -7.0435   -9.2318 H         1 <0>         0.1388
     60 H20        -5.7765   -5.6484   -5.8045 H         1 <0>         0.1400
     61 H21        -3.6471   -5.1741   -4.6673 H         1 <0>         0.1402
@<TRIPOS>BOND
     1    1    2 1
     2    1   41 1
     3    1   42 1
     4    1   43 1
     5    2    7 ar
     6    2    3 ar
     7    3    4 ar
     8    3   44 1
     9    4    5 ar
    10    4   13 1
    11    5    6 ar
    12    5   45 1
    13    6    7 ar
    14    6   46 1
    15    7    8 1
    16    8    9 1
    17    9   10 1
    18    9   47 1
    19    9   48 1
    20   10   11 2
    21   10   12 1
    22   13   14 1
    23   14   15 1
    24   14   49 1
    25   14   50 1
    26   15   20 ar
    27   15   16 ar
    28   16   17 ar
    29   16   51 1
    30   17   18 ar
    31   17   31 1
    32   18   19 ar
    33   18   52 1
    34   19   20 ar
    35   19   21 1
    36   20   53 1
    37   21   26 ar
    38   21   22 ar
    39   22   23 ar
    40   22   54 1
    41   23   24 ar
    42   23   55 1
    43   24   25 ar
    44   24   27 1
    45   25   26 ar
    46   25   56 1
    47   26   57 1
    48   27   28 1
    49   27   29 1
    50   27   30 1
    51   31   36 ar
    52   31   32 ar
    53   32   33 ar
    54   32   58 1
    55   33   34 ar
    56   33   59 1
    57   34   35 ar
    58   34   37 1
    59   35   36 ar
    60   35   60 1
    61   36   61 1
    62   37   38 1
    63   37   39 1
    64   37   40 1
@<TRIPOS>MOLECULE
CHEMBL192609
   49    51     0     0     0
SMALL
USER_CHARGES

@<TRIPOS>ATOM
      1 C1         -0.0167    1.3781    0.0096 C.ar      1 <0>        -0.0493
      2 C2          1.1697    2.0869    0.0021 C.ar      1 <0>        -0.1988
      3 C3          2.3802    1.4107   -0.0130 C.ar      1 <0>         0.1566
      4 C4          2.3969    0.0223   -0.0206 C.ar      1 <0>        -0.0715
      5 C5          1.2075   -0.6817   -0.0130 C.ar      1 <0>        -0.0497
      6 C6          0.0021   -0.0041    0.0020 C.ar      1 <0>        -0.1396
      7 C7         -1.2934   -0.7739    0.0107 C.3       1 <0>        -0.1159
      8 C8         -1.7461   -1.0267   -1.4288 C.3       1 <0>         0.4529
      9 F1         -0.7683   -1.7669   -2.1019 F         1 <0>        -0.1803
     10 F2         -2.9488   -1.7414   -1.4207 F         1 <0>        -0.1842
     11 F3         -1.9352    0.1970   -2.0799 F         1 <0>        -0.1806
     12 Cl1         3.9101   -0.8284   -0.0401 Cl        1 <0>        -0.0482
     13 O1          3.5482    2.1058   -0.0209 O.3       1 <0>        -0.2968
     14 C9          3.4547    3.5317   -0.0129 C.3       1 <0>         0.0613
     15 C10         4.8607    4.1350   -0.0235 C.3       1 <0>        -0.1193
     16 C11         4.7606    5.6617   -0.0149 C.3       1 <0>         0.0654
     17 O2          6.0738    6.2252   -0.0248 O.3       1 <0>        -0.3115
     18 C12         6.1634    7.5821   -0.0189 C.ar      1 <0>         0.0899
     19 C13         5.0128    8.3567    0.0019 C.ar      1 <0>        -0.1716
     20 C14         5.1009    9.7330    0.0122 C.ar      1 <0>        -0.0987
     21 C15         6.3455   10.3578    0.0006 C.ar      1 <0>         0.1026
     22 C16         7.4913    9.5739   -0.0277 C.ar      1 <0>        -0.1276
     23 C17         7.4064    8.1991   -0.0279 C.ar      1 <0>        -0.0944
     24 C18         8.6764   10.5196   -0.0592 C.3       1 <0>        -0.0862
     25 C19         8.0063   11.8602   -0.4427 C.3       1 <0>        -0.0084
     26 O3          6.6561   11.6842    0.0187 O.3       1 <0>        -0.2681
     27 C20         8.0380   12.0653   -1.9353 C.2       1 <0>         0.5024
     28 O4          6.9958   12.1855   -2.5564 O.co2     1 <0>        -0.6464
     29 O5          9.1060   12.1109   -2.5218 O.co2     1 <0>        -0.6569
     30 C21         8.6784   13.0287    0.2810 C.3       1 <0>         0.4792
     31 F4         10.0305   13.0818   -0.0746 F         1 <0>        -0.1610
     32 F5          8.0528   14.2255   -0.0844 F         1 <0>        -0.1731
     33 F6          8.5667   12.8473    1.6637 F         1 <0>        -0.1878
     34 H1         -0.9595    1.9047    0.0259 H         1 <0>         0.1368
     35 H2          1.1540    3.1668    0.0077 H         1 <0>         0.1433
     36 H3          1.2195   -1.7616   -0.0189 H         1 <0>         0.1434
     37 H4         -1.1461   -1.7273    0.5180 H         1 <0>         0.1201
     38 H5         -2.0553   -0.1972    0.5352 H         1 <0>         0.1209
     39 H6          2.9096    3.8650   -0.8959 H         1 <0>         0.0715
     40 H7          2.9269    3.8561    0.8839 H         1 <0>         0.0707
     41 H8          5.4058    3.8017    0.8596 H         1 <0>         0.0876
     42 H9          5.3885    3.8106   -0.9203 H         1 <0>         0.0886
     43 H10         4.2155    5.9951   -0.8980 H         1 <0>         0.0654
     44 H11         4.2328    5.9862    0.8819 H         1 <0>         0.0642
     45 H12         4.0438    7.8799    0.0098 H         1 <0>         0.1322
     46 H13         4.2004   10.3290    0.0290 H         1 <0>         0.1319
     47 H14         8.3062    7.6020   -0.0396 H         1 <0>         0.1333
     48 H15         9.1477   10.5863    0.9214 H         1 <0>         0.0927
     49 H16         9.3983   10.2144   -0.8167 H         1 <0>         0.1130
@<TRIPOS>BOND
     1    1    6 ar
     2    1    2 ar
     3    1   34 1
     4    2    3 ar
     5    2   35 1
     6    3    4 ar
     7    3   13 1
     8    4    5 ar
     9    4   12 1
    10    5    6 ar
    11    5   36 1
    12    6    7 1
    13    7    8 1
    14    7   37 1
    15    7   38 1
    16    8    9 1
    17    8   10 1
    18    8   11 1
    19   13   14 1
    20   14   15 1
    21   14   39 1
    22   14   40 1
    23   15   16 1
    24   15   41 1
    25   15   42 1
    26   16   17 1
    27   16   43 1
    28   16   44 1
    29   17   18 1
    30   18   23 ar
    31   18   19 ar
    32   19   20 ar
    33   19   45 1
    34   20   21 ar
    35   20   46 1
    36   21   26 1
    37   21   22 ar
    38   22   23 ar
    39   22   24 1
    40   23   47 1
    41   24   25 1
    42   24   48 1
    43   24   49 1
    44   25   26 1
    45   25   27 1
    46   25   30 1
    47   27   28 2
    48   27   29 1
    49   30   31 1
    50   30   32 1
    51   30   33 1
@<TRIPOS>MOLECULE
CHEMBL192609__1
   49    51     0     0     0
SMALL
USER_CHARGES

@<TRIPOS>ATOM
      1 C1         -0.0167    1.3781    0.0096 C.ar      1 <0>        -0.0493
      2 C2          1.1697    2.0869    0.0021 C.ar      1 <0>        -0.1988
      3 C3          2.3802    1.4107   -0.0130 C.ar      1 <0>         0.1566
      4 C4          2.3969    0.0223   -0.0206 C.ar      1 <0>        -0.0715
      5 C5          1.2075   -0.6817   -0.0130 C.ar      1 <0>        -0.0497
      6 C6          0.0021   -0.0041    0.0020 C.ar      1 <0>        -0.1396
      7 C7         -1.2934   -0.7739    0.0107 C.3       1 <0>        -0.1161
      8 C8         -1.7461   -1.0267   -1.4288 C.3       1 <0>         0.4530
      9 F1         -0.7683   -1.7669   -2.1019 F         1 <0>        -0.1804
     10 F2         -2.9488   -1.7414   -1.4207 F         1 <0>        -0.1842
     11 F3         -1.9352    0.1970   -2.0799 F         1 <0>        -0.1808
     12 Cl1         3.9101   -0.8284   -0.0401 Cl        1 <0>        -0.0482
     13 O1          3.5482    2.1058   -0.0209 O.3       1 <0>        -0.2968
     14 C9          3.4547    3.5317   -0.0129 C.3       1 <0>         0.0613
     15 C10         4.8607    4.1350   -0.0235 C.3       1 <0>        -0.1193
     16 C11         4.7606    5.6617   -0.0149 C.3       1 <0>         0.0654
     17 O2          6.0738    6.2252   -0.0248 O.3       1 <0>        -0.3115
     18 C12         6.1634    7.5821   -0.0189 C.ar      1 <0>         0.0898
     19 C13         5.0128    8.3567    0.0019 C.ar      1 <0>        -0.1715
     20 C14         5.1008    9.7330    0.0047 C.ar      1 <0>        -0.0988
     21 C15         6.3453   10.3578   -0.0132 C.ar      1 <0>         0.1027
     22 C16         7.4913    9.5739   -0.0266 C.ar      1 <0>        -0.1278
     23 C17         7.4064    8.1991   -0.0279 C.ar      1 <0>        -0.0941
     24 C18         8.6770   10.5194   -0.0194 C.3       1 <0>        -0.0862
     25 C19         8.0185   11.8557    0.3976 C.3       1 <0>        -0.0084
     26 O3          6.6554   11.6844   -0.0262 O.3       1 <0>        -0.2681
     27 C20         8.0937   12.0448    1.8908 C.2       1 <0>         0.5024
     28 O4          9.1782   12.0844    2.4465 O.co2     1 <0>        -0.6568
     29 O5          7.0699   12.1583    2.5432 O.co2     1 <0>        -0.6466
     30 C21         8.6695   13.0320   -0.3327 C.3       1 <0>         0.4792
     31 F4          8.5176   12.8653   -1.7135 F         1 <0>        -0.1878
     32 F5          8.0549   14.2247    0.0634 F         1 <0>        -0.1730
     33 F6         10.0313   13.0815   -0.0160 F         1 <0>        -0.1610
     34 H1         -0.9595    1.9047    0.0259 H         1 <0>         0.1368
     35 H2          1.1540    3.1668    0.0077 H         1 <0>         0.1433
     36 H3          1.2195   -1.7616   -0.0189 H         1 <0>         0.1434
     37 H4         -1.1461   -1.7273    0.5180 H         1 <0>         0.1202
     38 H5         -2.0553   -0.1972    0.5352 H         1 <0>         0.1211
     39 H6          2.9096    3.8650   -0.8959 H         1 <0>         0.0708
     40 H7          2.9269    3.8561    0.8839 H         1 <0>         0.0714
     41 H8          5.4058    3.8017    0.8596 H         1 <0>         0.0885
     42 H9          5.3885    3.8106   -0.9203 H         1 <0>         0.0877
     43 H10         4.2155    5.9951   -0.8980 H         1 <0>         0.0643
     44 H11         4.2328    5.9862    0.8819 H         1 <0>         0.0653
     45 H12         4.0439    7.8799    0.0164 H         1 <0>         0.1322
     46 H13         4.2003   10.3291    0.0204 H         1 <0>         0.1319
     47 H14         8.3062    7.6020   -0.0405 H         1 <0>         0.1334
     48 H15         9.4205   10.2062    0.7135 H         1 <0>         0.1129
     49 H16         9.1196   10.5966   -1.0125 H         1 <0>         0.0928
@<TRIPOS>BOND
     1    1    6 ar
     2    1    2 ar
     3    1   34 1
     4    2    3 ar
     5    2   35 1
     6    3    4 ar
     7    3   13 1
     8    4    5 ar
     9    4   12 1
    10    5    6 ar
    11    5   36 1
    12    6    7 1
    13    7    8 1
    14    7   37 1
    15    7   38 1
    16    8    9 1
    17    8   10 1
    18    8   11 1
    19   13   14 1
    20   14   15 1
    21   14   39 1
    22   14   40 1
    23   15   16 1
    24   15   41 1
    25   15   42 1
    26   16   17 1
    27   16   43 1
    28   16   44 1
    29   17   18 1
    30   18   23 ar
    31   18   19 ar
    32   19   20 ar
    33   19   45 1
    34   20   21 ar
    35   20   46 1
    36   21   26 1
    37   21   22 ar
    38   22   23 ar
    39   22   24 1
    40   23   47 1
    41   24   25 1
    42   24   48 1
    43   24   49 1
    44   25   26 1
    45   25   27 1
    46   25   30 1
    47   27   28 2
    48   27   29 1
    49   30   31 1
    50   30   32 1
    51   30   33 1
@<TRIPOS>MOLECULE
CHEMBL393186
   54    56     0     0     0
SMALL
USER_CHARGES

@<TRIPOS>ATOM
      1 C1         -2.2838   -3.3311    3.6940 C.3       1 <0>        -0.1052
      2 C2         -1.4841   -3.1819    2.4254 C.ar      1 <0>        -0.1064
      3 C3         -1.6041   -4.1204    1.4193 C.ar      1 <0>        -0.0600
      4 C4         -0.8668   -3.9826    0.2502 C.ar      1 <0>        -0.1366
      5 C5         -0.0094   -2.9005    0.0943 C.ar      1 <0>        -0.0945
      6 C6          0.1090   -1.9635    1.1014 C.ar      1 <0>        -0.1962
      7 C7         -0.6321   -2.0991    2.2664 C.ar      1 <0>         0.1406
      8 O1         -0.5193   -1.1723    3.2553 O.3       1 <0>        -0.2749
      9 C8          0.3765   -0.0831    3.0245 C.3       1 <0>        -0.0083
     10 C9          0.3699    0.8347    4.2197 C.2       1 <0>         0.5016
     11 O2         -0.3364    0.5797    5.1802 O.co2     1 <0>        -0.6697
     12 O3          1.0709    1.8322    4.2263 O.co2     1 <0>        -0.6871
     13 S1         -1.0185   -5.1796   -1.0339 S.3       1 <0>        -0.1207
     14 C10         0.1103   -4.5850   -2.3235 C.3       1 <0>        -0.0918
     15 C11         0.0764   -5.5312   -3.4960 C.2       1 <0>        -0.1209
     16 C12         1.1342   -6.2448   -3.7925 C.2       1 <0>        -0.1281
     17 C13         2.3242   -6.2483   -2.8679 C.3       1 <0>         0.0869
     18 C14         3.4628   -5.5922   -3.5312 C.1       1 <0>        -0.1444
     19 C15         4.3709   -5.0690   -4.0602 C.1       1 <0>        -0.1298
     20 C16         5.4786   -4.4307   -4.7055 C.ar      1 <0>         0.0164
     21 C17         5.3382   -3.9202   -5.9965 C.ar      1 <0>        -0.0957
     22 C18         6.4091   -3.3060   -6.6125 C.ar      1 <0>        -0.1183
     23 C19         7.6202   -3.1957   -5.9529 C.ar      1 <0>        -0.1119
     24 C20         7.7660   -3.6998   -4.6728 C.ar      1 <0>        -0.1195
     25 C21         6.7013   -4.3115   -4.0437 C.ar      1 <0>        -0.0964
     26 C22         2.6919   -7.6696   -2.5278 C.ar      1 <0>        -0.0560
     27 C23         3.0521   -8.5493   -3.5315 C.ar      1 <0>        -0.0997
     28 C24         3.3899   -9.8528   -3.2200 C.ar      1 <0>        -0.0909
     29 C25         3.3675  -10.2771   -1.9036 C.ar      1 <0>        -0.0888
     30 C26         3.0070   -9.3966   -0.8996 C.ar      1 <0>        -0.0865
     31 C27         2.6745   -8.0917   -1.2115 C.ar      1 <0>        -0.0976
     32 Br1         3.8289  -12.0606   -1.4768 Br        1 <0>        -0.0526
     33 H1         -3.2429   -2.8258    3.5804 H         1 <0>         0.0683
     34 H2         -2.4521   -4.3891    3.8950 H         1 <0>         0.0608
     35 H3         -1.7348   -2.8864    4.5240 H         1 <0>         0.0797
     36 H4         -2.2706   -4.9614    1.5417 H         1 <0>         0.1292
     37 H5          0.5646   -2.7926   -0.8142 H         1 <0>         0.1180
     38 H6          0.7754   -1.1223    0.9804 H         1 <0>         0.1313
     39 H7          1.3841   -0.4682    2.8677 H         1 <0>         0.0590
     40 H8          0.0570    0.4691    2.1406 H         1 <0>         0.0591
     41 H9         -0.2004   -3.5921   -2.6488 H         1 <0>         0.0998
     42 H10         1.1237   -4.5363   -1.9251 H         1 <0>         0.0951
     43 H11        -0.8199   -5.6209   -4.0918 H         1 <0>         0.1302
     44 H12         1.1534   -6.8306   -4.6996 H         1 <0>         0.1263
     45 H13         2.0759   -5.7086   -1.9541 H         1 <0>         0.1165
     46 H14         4.3933   -4.0060   -6.5126 H         1 <0>         0.1268
     47 H15         6.3019   -2.9107   -7.6118 H         1 <0>         0.1282
     48 H16         8.4556   -2.7143   -6.4396 H         1 <0>         0.1254
     49 H17         8.7140   -3.6105   -4.1633 H         1 <0>         0.1273
     50 H18         6.8150   -4.7006   -3.0427 H         1 <0>         0.1255
     51 H19         3.0692   -8.2180   -4.5593 H         1 <0>         0.1303
     52 H20         3.6709  -10.5401   -4.0042 H         1 <0>         0.1329
     53 H21         2.9894   -9.7274    0.1284 H         1 <0>         0.1361
     54 H22         2.3970   -7.4030   -0.4273 H         1 <0>         0.1372
@<TRIPOS>BOND
     1    1    2 1
     2    1   33 1
     3    1   34 1
     4    1   35 1
     5    2    7 ar
     6    2    3 ar
     7    3    4 ar
     8    3   36 1
     9    4    5 ar
    10    4   13 1
    11    5    6 ar
    12    5   37 1
    13    6    7 ar
    14    6   38 1
    15    7    8 1
    16    8    9 1
    17    9   10 1
    18    9   39 1
    19    9   40 1
    20   10   11 2
    21   10   12 1
    22   13   14 1
    23   14   15 1
    24   14   41 1
    25   14   42 1
    26   15   16 2
    27   15   43 1
    28   16   17 1
    29   16   44 1
    30   17   18 1
    31   17   26 1
    32   17   45 1
    33   18   19 3
    34   19   20 1
    35   20   25 ar
    36   20   21 ar
    37   21   22 ar
    38   21   46 1
    39   22   23 ar
    40   22   47 1
    41   23   24 ar
    42   23   48 1
    43   24   25 ar
    44   24   49 1
    45   25   50 1
    46   26   31 ar
    47   26   27 ar
    48   27   28 ar
    49   27   51 1
    50   28   29 ar
    51   28   52 1
    52   29   30 ar
    53   29   32 1
    54   30   31 ar
    55   30   53 1
    56   31   54 1
@<TRIPOS>MOLECULE
CHEMBL393186__1
   54    56     0     0     0
SMALL
USER_CHARGES

@<TRIPOS>ATOM
      1 C1         -0.2835    1.7536   -0.5038 C.3       1 <0>        -0.1053
      2 C2         -0.1301    0.2571   -0.4135 C.ar      1 <0>        -0.1057
      3 C3         -0.1843   -0.5127   -1.5589 C.ar      1 <0>        -0.0600
      4 C4         -0.0428   -1.8919   -1.4754 C.ar      1 <0>        -0.1357
      5 C5          0.1531   -2.4956   -0.2394 C.ar      1 <0>        -0.0952
      6 C6          0.2070   -1.7240    0.9043 C.ar      1 <0>        -0.1962
      7 C7          0.0712   -0.3459    0.8191 C.ar      1 <0>         0.1403
      8 O1          0.1304    0.4137    1.9456 O.3       1 <0>        -0.2750
      9 C8          0.3400   -0.2733    3.1810 C.3       1 <0>        -0.0081
     10 C9          0.3769    0.7239    4.3103 C.2       1 <0>         0.5015
     11 O2          0.2368    1.9127    4.0787 O.co2     1 <0>        -0.6696
     12 O3          0.5470    0.3419    5.4556 O.co2     1 <0>        -0.6872
     13 S1         -0.1123   -2.8754   -2.9357 S.3       1 <0>        -0.1135
     14 C10         0.1175   -4.5712   -2.3342 C.3       1 <0>        -0.0939
     15 C11         0.0785   -5.5270   -3.4987 C.2       1 <0>        -0.1213
     16 C12         1.1342   -6.2448   -3.7925 C.2       1 <0>        -0.1289
     17 C13         2.3242   -6.2483   -2.8679 C.3       1 <0>         0.0871
     18 C14         2.6834   -7.6366   -2.5357 C.1       1 <0>        -0.1398
     19 C15         2.9699   -8.7438   -2.2707 C.1       1 <0>        -0.1319
     20 C16         3.3193  -10.0944   -1.9475 C.ar      1 <0>         0.0176
     21 C17         2.5872  -11.1548   -2.4829 C.ar      1 <0>        -0.0961
     22 C18         2.9293  -12.4538   -2.1679 C.ar      1 <0>        -0.1183
     23 C19         3.9955  -12.7061   -1.3232 C.ar      1 <0>        -0.1123
     24 C20         4.7253  -11.6592   -0.7890 C.ar      1 <0>        -0.1198
     25 C21         4.3968  -10.3558   -1.1004 C.ar      1 <0>        -0.0968
     26 C22         3.4899   -5.5766   -3.5470 C.ar      1 <0>        -0.0584
     27 C23         3.9826   -6.0828   -4.7353 C.ar      1 <0>        -0.0986
     28 C24         5.0515   -5.4668   -5.3587 C.ar      1 <0>        -0.0903
     29 C25         5.6281   -4.3437   -4.7934 C.ar      1 <0>        -0.0879
     30 C26         5.1347   -3.8376   -3.6044 C.ar      1 <0>        -0.0842
     31 C27         4.0625   -4.4512   -2.9844 C.ar      1 <0>        -0.0977
     32 Br1         7.0908   -3.5009   -5.6455 Br        1 <0>        -0.0519
     33 H1          0.6956    2.2114   -0.6441 H         1 <0>         0.0684
     34 H2         -0.9255    2.0027   -1.3488 H         1 <0>         0.0607
     35 H3         -0.7318    2.1290    0.4161 H         1 <0>         0.0797
     36 H4         -0.3370   -0.0425   -2.5191 H         1 <0>         0.1291
     37 H5          0.2629   -3.5679   -0.1732 H         1 <0>         0.1177
     38 H6          0.3593   -2.1930    1.8652 H         1 <0>         0.1314
     39 H7         -0.4735   -0.9797    3.3465 H         1 <0>         0.0590
     40 H8          1.2867   -0.8122    3.1411 H         1 <0>         0.0591
     41 H9          1.0812   -4.6507   -1.8310 H         1 <0>         0.0951
     42 H10        -0.6797   -4.8194   -1.6336 H         1 <0>         0.0972
     43 H11        -0.8198   -5.6201   -4.0909 H         1 <0>         0.1298
     44 H12         1.1517   -6.8341   -4.6974 H         1 <0>         0.1259
     45 H13         2.0759   -5.7086   -1.9541 H         1 <0>         0.1148
     46 H14         1.7544  -10.9592   -3.1421 H         1 <0>         0.1271
     47 H15         2.3633  -13.2755   -2.5813 H         1 <0>         0.1282
     48 H16         4.2590  -13.7247   -1.0794 H         1 <0>         0.1253
     49 H17         5.5566  -11.8628   -0.1303 H         1 <0>         0.1272
     50 H18         4.9701   -9.5395   -0.6863 H         1 <0>         0.1256
     51 H19         3.5326   -6.9598   -5.1765 H         1 <0>         0.1294
     52 H20         5.4366   -5.8625   -6.2869 H         1 <0>         0.1328
     53 H21         5.5846   -2.9608   -3.1626 H         1 <0>         0.1363
     54 H22         3.6746   -4.0537   -2.0581 H         1 <0>         0.1335
@<TRIPOS>BOND
     1    1    2 1
     2    1   33 1
     3    1   34 1
     4    1   35 1
     5    2    7 ar
     6    2    3 ar
     7    3    4 ar
     8    3   36 1
     9    4    5 ar
    10    4   13 1
    11    5    6 ar
    12    5   37 1
    13    6    7 ar
    14    6   38 1
    15    7    8 1
    16    8    9 1
    17    9   10 1
    18    9   39 1
    19    9   40 1
    20   10   11 2
    21   10   12 1
    22   13   14 1
    23   14   15 1
    24   14   41 1
    25   14   42 1
    26   15   16 2
    27   15   43 1
    28   16   17 1
    29   16   44 1
    30   17   18 1
    31   17   26 1
    32   17   45 1
    33   18   19 3
    34   19   20 1
    35   20   25 ar
    36   20   21 ar
    37   21   22 ar
    38   21   46 1
    39   22   23 ar
    40   22   47 1
    41   23   24 ar
    42   23   48 1
    43   24   25 ar
    44   24   49 1
    45   25   50 1
    46   26   31 ar
    47   26   27 ar
    48   27   28 ar
    49   27   51 1
    50   28   29 ar
    51   28   52 1
    52   29   30 ar
    53   29   32 1
    54   30   31 ar
    55   30   53 1
    56   31   54 1
@<TRIPOS>MOLECULE
CHEMBL496136
   52    55     0     0     0
SMALL
USER_CHARGES

@<TRIPOS>ATOM
      1 C1         -0.0335    0.7788   -0.3856 C.ar      1 <0>        -0.1450
      2 C2          1.0458    1.6384   -0.3810 C.ar      1 <0>        -0.0221
      3 C3          2.3422    1.1254   -0.3159 C.ar      1 <0>        -0.1436
      4 C4          2.5376   -0.2557   -0.2559 C.ar      1 <0>         0.0435
      5 C5          1.4499   -1.1039   -0.2612 C.ar      1 <0>        -0.6893
      6 C6          0.1672   -0.5887   -0.3259 C.ar      1 <0>         0.0016
      7 S1          1.6943   -2.8472   -0.1861 S.o2      1 <0>         2.6992
      8 O1          0.5371   -3.4444   -0.7550 O.2       1 <0>        -0.9614
      9 O2          3.0022   -3.0958   -0.6828 O.2       1 <0>        -0.9534
     10 N1          1.7073   -3.2713    1.4146 N.pl3     1 <0>        -0.9947
     11 C7          2.9571   -3.2855    2.1930 C.3       1 <0>         0.1182
     12 C8          2.8403   -2.2257    3.2873 C.3       1 <0>        -0.0911
     13 C9          1.5199   -2.3364    4.0026 C.ar      1 <0>        -0.0366
     14 C10         0.4290   -2.9739    3.4629 C.ar      1 <0>        -0.1185
     15 C11        -0.7653   -3.0251    4.1717 C.ar      1 <0>        -0.1306
     16 C12        -0.8716   -2.4499    5.4231 C.ar      1 <0>        -0.1343
     17 C13         0.2173   -1.8148    5.9823 C.ar      1 <0>        -0.0945
     18 C14         1.4181   -1.7539    5.2759 C.ar      1 <0>        -0.1184
     19 C15         2.5857   -1.0742    5.8686 C.2       1 <0>         0.5200
     20 O3          2.8867   -1.2815    7.0357 O.co2     1 <0>        -0.6919
     21 O4          3.2527   -0.3034    5.1929 O.co2     1 <0>        -0.6710
     22 C16         0.4735   -3.6420    2.1158 C.3       1 <0>         0.1761
     23 C17         3.5031    2.0402   -0.3111 C.2       1 <0>         0.5550
     24 O5          4.6310    1.5906   -0.2544 O.2       1 <0>        -0.5257
     25 N2          3.3111    3.3729   -0.3696 N.am      1 <0>        -0.6385
     26 C18         4.4023    4.2288   -0.4786 C.ar      1 <0>         0.1875
     27 C19         5.5172    3.8479   -1.2140 C.ar      1 <0>        -0.1295
     28 C20         6.5990    4.6978   -1.3207 C.ar      1 <0>        -0.0961
     29 C21         6.5835    5.9368   -0.6970 C.ar      1 <0>        -0.0663
     30 C22         5.4862    6.3329    0.0369 C.ar      1 <0>        -0.0549
     31 C23         4.3798    5.4846    0.1498 C.ar      1 <0>        -0.1518
     32 C24         3.2023    5.9029    0.9264 C.2       1 <0>         0.5303
     33 O6          3.2215    6.9574    1.5465 O.co2     1 <0>        -0.6750
     34 O7          2.2039    5.1962    0.9522 O.co2     1 <0>        -0.6824
     35 Cl1         7.9534    6.9934   -0.8410 Cl        1 <0>        -0.0961
     36 H1         -1.0373    1.1746   -0.4314 H         1 <0>         0.1392
     37 H2          0.8878    2.7057   -0.4280 H         1 <0>         0.1435
     38 H3          3.5382   -0.6591   -0.2057 H         1 <0>         0.1526
     39 H4         -0.6811   -1.2571   -0.3299 H         1 <0>         0.1406
     40 H5          3.0995   -4.2675    2.6441 H         1 <0>         0.0795
     41 H6          3.7997   -3.0522    1.5420 H         1 <0>         0.0973
     42 H7          3.6493   -2.3612    4.0052 H         1 <0>         0.0925
     43 H8          2.9228   -1.2360    2.8381 H         1 <0>         0.0894
     44 H9         -1.6215   -3.5207    3.7384 H         1 <0>         0.1131
     45 H10        -1.8060   -2.4971    5.9625 H         1 <0>         0.1132
     46 H11         0.1405   -1.3670    6.9620 H         1 <0>         0.1179
     47 H12        -0.3874   -3.3260    1.5265 H         1 <0>         0.0900
     48 H13         0.4433   -4.7233    2.2497 H         1 <0>         0.0805
     49 H14         2.4120    3.7354   -0.3357 H         1 <0>         0.4269
     50 H15         5.5376    2.8851   -1.7028 H         1 <0>         0.1376
     51 H16         7.4637    4.3962   -1.8933 H         1 <0>         0.1274
     52 H17         5.4790    7.2985    0.5207 H         1 <0>         0.1399
@<TRIPOS>BOND
     1    1    6 ar
     2    1    2 ar
     3    1   36 1
     4    2    3 ar
     5    2   37 1
     6    3    4 ar
     7    3   23 1
     8    4    5 ar
     9    4   38 1
    10    5    6 ar
    11    5    7 1
    12    6   39 1
    13    7    8 2
    14    7    9 2
    15    7   10 1
    16   10   22 1
    17   10   11 1
    18   11   12 1
    19   11   40 1
    20   11   41 1
    21   12   13 1
    22   12   42 1
    23   12   43 1
    24   13   18 ar
    25   13   14 ar
    26   14   15 ar
    27   14   22 1
    28   15   16 ar
    29   15   44 1
    30   16   17 ar
    31   16   45 1
    32   17   18 ar
    33   17   46 1
    34   18   19 1
    35   19   20 2
    36   19   21 1
    37   22   47 1
    38   22   48 1
    39   23   24 2
    40   23   25 am
    41   25   26 1
    42   25   49 1
    43   26   31 ar
    44   26   27 ar
    45   27   28 ar
    46   27   50 1
    47   28   29 ar
    48   28   51 1
    49   29   30 ar
    50   29   35 1
    51   30   31 ar
    52   30   52 1
    53   31   32 1
    54   32   33 2
    55   32   34 1
@<TRIPOS>MOLECULE
CHEMBL470559
   48    49     0     0     0
SMALL
USER_CHARGES

@<TRIPOS>ATOM
      1 C1         -0.0184    1.5028    0.0103 C.3       1 <0>        -0.1051
      2 C2          0.0021   -0.0041    0.0020 C.ar      1 <0>        -0.1065
      3 C3          0.0057   -0.6878   -1.1980 C.ar      1 <0>        -0.0606
      4 C4          0.0246   -2.0766   -1.2053 C.ar      1 <0>        -0.1361
      5 C5          0.0397   -2.7765   -0.0051 C.ar      1 <0>        -0.0942
      6 C6          0.0360   -2.0909    1.1933 C.ar      1 <0>        -0.1966
      7 C7          0.0229   -0.7036    1.1994 C.ar      1 <0>         0.1400
      8 O1          0.0254   -0.0293    2.3804 O.3       1 <0>        -0.2752
      9 C8          0.0474   -0.8131    3.5751 C.3       1 <0>        -0.0081
     10 C9          0.0468    0.0992    4.7746 C.2       1 <0>         0.5014
     11 O2          0.0293    1.3085    4.6207 O.co2     1 <0>        -0.6696
     12 O3          0.0640   -0.3721    5.8989 O.co2     1 <0>        -0.6872
     13 S1          0.0286   -2.9502   -2.7355 S.3       1 <0>        -0.1224
     14 C10         0.0549   -4.6962   -2.2439 C.3       1 <0>        -0.0707
     15 C11         0.0604   -5.5647   -3.4755 C.2       1 <0>        -0.1101
     16 C12         1.1626   -6.1673   -3.8471 C.2       1 <0>        -0.1622
     17 C13        -1.2021   -5.7401   -4.2795 C.3       1 <0>        -0.0796
     18 C14        -2.0431   -6.8635   -3.6698 C.3       1 <0>        -0.0815
     19 C15        -3.3055   -7.0389   -4.4738 C.ar      1 <0>        -0.0461
     20 C16        -4.4392   -6.3189   -4.1463 C.ar      1 <0>        -0.1159
     21 C17        -5.5973   -6.4798   -4.8838 C.ar      1 <0>        -0.0663
     22 C18        -5.6215   -7.3603   -5.9491 C.ar      1 <0>        -0.1900
     23 C19        -4.4876   -8.0797   -6.2772 C.ar      1 <0>        -0.0686
     24 C20        -3.3283   -7.9156   -5.5424 C.ar      1 <0>        -0.1189
     25 C21        -6.8843   -7.5365   -6.7525 C.3       1 <0>         0.5082
     26 F1         -6.8950   -6.6217   -7.8110 F         1 <0>        -0.1768
     27 F2         -6.9356   -8.8387   -7.2611 F         1 <0>        -0.1783
     28 F3         -7.9945   -7.3125   -5.9313 F         1 <0>        -0.1771
     29 H1          1.0042    1.8801    0.0026 H         1 <0>         0.0682
     30 H2         -0.5455    1.8639   -0.8728 H         1 <0>         0.0607
     31 H3         -0.5286    1.8543    0.9071 H         1 <0>         0.0798
     32 H4         -0.0064   -0.1428   -2.1303 H         1 <0>         0.1289
     33 H5          0.0540   -3.8564   -0.0097 H         1 <0>         0.1184
     34 H6          0.0478   -2.6347    2.1263 H         1 <0>         0.1314
     35 H7         -0.8339   -1.4538    3.6055 H         1 <0>         0.0590
     36 H8          0.9458   -1.4302    3.5883 H         1 <0>         0.0591
     37 H9          0.9506   -4.8945   -1.6554 H         1 <0>         0.0911
     38 H10        -0.8291   -4.9187   -1.6464 H         1 <0>         0.0925
     39 H11         1.1666   -6.7897   -4.7297 H         1 <0>         0.1053
     40 H12         2.0674   -6.0416   -3.2709 H         1 <0>         0.1026
     41 H13        -1.7726   -4.8115   -4.2672 H         1 <0>         0.0809
     42 H14        -0.9455   -5.9954   -5.3077 H         1 <0>         0.0751
     43 H15        -1.4725   -7.7922   -3.6821 H         1 <0>         0.0793
     44 H16        -2.2996   -6.6083   -2.6416 H         1 <0>         0.0797
     45 H17        -4.4203   -5.6309   -3.3140 H         1 <0>         0.1368
     46 H18        -6.4832   -5.9178   -4.6275 H         1 <0>         0.1363
     47 H19        -4.5066   -8.7679   -7.1093 H         1 <0>         0.1349
     48 H20        -2.4413   -8.4748   -5.8010 H         1 <0>         0.1343
@<TRIPOS>BOND
     1    1    2 1
     2    1   29 1
     3    1   30 1
     4    1   31 1
     5    2    7 ar
     6    2    3 ar
     7    3    4 ar
     8    3   32 1
     9    4    5 ar
    10    4   13 1
    11    5    6 ar
    12    5   33 1
    13    6    7 ar
    14    6   34 1
    15    7    8 1
    16    8    9 1
    17    9   10 1
    18    9   35 1
    19    9   36 1
    20   10   11 2
    21   10   12 1
    22   13   14 1
    23   14   15 1
    24   14   37 1
    25   14   38 1
    26   15   16 2
    27   15   17 1
    28   16   39 1
    29   16   40 1
    30   17   18 1
    31   17   41 1
    32   17   42 1
    33   18   19 1
    34   18   43 1
    35   18   44 1
    36   19   24 ar
    37   19   20 ar
    38   20   21 ar
    39   20   45 1
    40   21   22 ar
    41   21   46 1
    42   22   23 ar
    43   22   25 1
    44   23   24 ar
    45   23   47 1
    46   24   48 1
    47   25   26 1
    48   25   27 1
    49   25   28 1
@<TRIPOS>MOLECULE
CHEMBL344282
   62    64     0     0     0
SMALL
USER_CHARGES

@<TRIPOS>ATOM
      1 C1          1.0550    1.6733    0.2564 C.3       1 <0>        -0.1177
      2 C2          1.0470    0.1663    0.2640 C.ar      1 <0>        -0.0776
      3 C3          0.9255   -0.5303   -0.9240 C.ar      1 <0>        -0.1216
      4 C4          0.9181   -1.9124   -0.9170 C.ar      1 <0>        -0.0898
      5 C5          1.0327   -2.5983    0.2779 C.ar      1 <0>        -0.1223
      6 C6          1.1550   -1.9019    1.4655 C.ar      1 <0>        -0.0907
      7 C7          1.1667   -0.5194    1.4581 C.ar      1 <0>        -0.0946
      8 C8          1.3054    0.2400    2.7524 C.3       1 <0>        -0.1148
      9 C9          1.0237   -4.1052    0.2857 C.3       1 <0>         0.2034
     10 N1          2.3951   -4.6025    0.1512 N.am      1 <0>        -0.4477
     11 C10         3.2498   -4.8742    1.1595 C.2       1 <0>         0.6457
     12 O1          3.0231   -4.7512    2.3500 O.2       1 <0>        -0.5608
     13 N2          4.4006   -5.3074    0.6067 N.am      1 <0>        -0.5592
     14 C11         4.2527   -5.3023   -0.7589 C.2       1 <0>         0.2785
     15 N3          3.0608   -4.8900   -1.0483 N.2       1 <0>        -0.2679
     16 C12         5.3043   -5.7150   -1.7563 C.3       1 <0>        -0.0429
     17 C13         4.7489   -5.5654   -3.1741 C.3       1 <0>        -0.1045
     18 C14         5.8166   -5.9844   -4.1868 C.3       1 <0>        -0.0663
     19 C15         5.2696   -5.8371   -5.5833 C.ar      1 <0>        -0.1404
     20 C16         4.6095   -6.8948   -6.1811 C.ar      1 <0>        -0.0897
     21 C17         4.1076   -6.7625   -7.4613 C.ar      1 <0>        -0.1710
     22 C18         4.2659   -5.5669   -8.1471 C.ar      1 <0>         0.1669
     23 C19         4.9282   -4.5070   -7.5449 C.ar      1 <0>        -0.1575
     24 C20         5.4238   -4.6427   -6.2625 C.ar      1 <0>        -0.0895
     25 O2          3.7734   -5.4344   -9.4067 O.3       1 <0>        -0.3042
     26 C21         3.8618   -4.1397  -10.0050 C.3       1 <0>         0.0304
     27 C22         3.2258   -4.1761  -11.3960 C.3       1 <0>        -0.1153
     28 C23         3.1225   -3.1232   -9.1326 C.3       1 <0>        -0.1753
     29 C24         5.3098   -3.7396  -10.1251 C.2       1 <0>         0.4822
     30 O3          6.1849   -4.4934   -9.7345 O.co2     1 <0>        -0.6697
     31 O4          5.6061   -2.6622  -10.6128 O.co2     1 <0>        -0.6871
     32 C25         5.6035   -5.7136    1.3376 C.3       1 <0>         0.0951
     33 H1          2.0791    2.0306    0.1486 H         1 <0>         0.0708
     34 H2          0.4541    2.0356   -0.5777 H         1 <0>         0.0673
     35 H3          0.6376    2.0436    1.1928 H         1 <0>         0.0681
     36 H4          0.8360    0.0055   -1.8575 H         1 <0>         0.1245
     37 H5          0.8225   -2.4566   -1.8450 H         1 <0>         0.1266
     38 H6          1.2442   -2.4376    2.3990 H         1 <0>         0.1244
     39 H7          0.3167    0.4291    3.1704 H         1 <0>         0.0696
     40 H8          1.8917   -0.3487    3.4580 H         1 <0>         0.0653
     41 H9          1.8082    1.1887    2.5649 H         1 <0>         0.0677
     42 H10         0.5984   -4.4612    1.2240 H         1 <0>         0.1008
     43 H11         0.4219   -4.4692   -0.5471 H         1 <0>         0.1035
     44 H12         6.1830   -5.0803   -1.6415 H         1 <0>         0.0965
     45 H13         5.5818   -6.7546   -1.5826 H         1 <0>         0.0965
     46 H14         3.8702   -6.2001   -3.2890 H         1 <0>         0.0741
     47 H15         4.4714   -4.5258   -3.3479 H         1 <0>         0.0740
     48 H16         6.6953   -5.3497   -4.0720 H         1 <0>         0.0673
     49 H17         6.0941   -7.0241   -4.0131 H         1 <0>         0.0668
     50 H18         4.4865   -7.8253   -5.6468 H         1 <0>         0.1157
     51 H19         3.5926   -7.5891   -7.9281 H         1 <0>         0.1181
     52 H20         5.0528   -3.5753   -8.0767 H         1 <0>         0.1381
     53 H21         5.9356   -3.8164   -5.7916 H         1 <0>         0.1120
     54 H22         2.1594   -4.3814  -11.3027 H         1 <0>         0.0500
     55 H23         3.3688   -3.2132  -11.8863 H         1 <0>         0.0779
     56 H24         3.6960   -4.9597  -11.9902 H         1 <0>         0.0565
     57 H25         3.4876   -3.1903   -8.1078 H         1 <0>         0.0700
     58 H26         3.2994   -2.1184   -9.5163 H         1 <0>         0.0738
     59 H27         2.0538   -3.3367   -9.1523 H         1 <0>         0.0500
     60 H28         5.4290   -5.6132    2.4089 H         1 <0>         0.0930
     61 H29         5.8377   -6.7520    1.1033 H         1 <0>         0.0787
     62 H30         6.4389   -5.0777    1.0444 H         1 <0>         0.0782
@<TRIPOS>BOND
     1    1    2 1
     2    1   33 1
     3    1   34 1
     4    1   35 1
     5    2    7 ar
     6    2    3 ar
     7    3    4 ar
     8    3   36 1
     9    4    5 ar
    10    4   37 1
    11    5    6 ar
    12    5    9 1
    13    6    7 ar
    14    6   38 1
    15    7    8 1
    16    8   39 1
    17    8   40 1
    18    8   41 1
    19    9   10 1
    20    9   42 1
    21    9   43 1
    22   10   15 1
    23   10   11 am
    24   11   12 2
    25   11   13 am
    26   13   14 1
    27   13   32 1
    28   14   15 2
    29   14   16 1
    30   16   17 1
    31   16   44 1
    32   16   45 1
    33   17   18 1
    34   17   46 1
    35   17   47 1
    36   18   19 1
    37   18   48 1
    38   18   49 1
    39   19   24 ar
    40   19   20 ar
    41   20   21 ar
    42   20   50 1
    43   21   22 ar
    44   21   51 1
    45   22   23 ar
    46   22   25 1
    47   23   24 ar
    48   23   52 1
    49   24   53 1
    50   25   26 1
    51   26   27 1
    52   26   28 1
    53   26   29 1
    54   27   54 1
    55   27   55 1
    56   27   56 1
    57   28   57 1
    58   28   58 1
    59   28   59 1
    60   29   30 2
    61   29   31 1
    62   32   60 1
    63   32   61 1
    64   32   62 1
@<TRIPOS>MOLECULE
CHEMBL435523
   62    65     0     0     0
SMALL
USER_CHARGES

@<TRIPOS>ATOM
      1 C1         -0.0187    1.5258    0.0104 C.3       1 <0>        -0.1513
      2 C2          0.0021   -0.0041    0.0020 C.3       1 <0>        -0.1169
      3 C3          0.7182   -0.4975   -1.2568 C.3       1 <0>        -0.0668
      4 C4          0.7386   -2.0043   -1.2651 C.ar      1 <0>        -0.1295
      5 C5          1.7874   -2.6879   -0.6752 C.ar      1 <0>         0.1949
      6 C6          1.8132   -4.0802   -0.6789 C.ar      1 <0>        -0.2253
      7 C7          0.8034   -4.7889   -1.2649 C.ar      1 <0>        -0.0030
      8 C8         -0.2620   -4.1157   -1.8639 C.ar      1 <0>        -0.2232
      9 C9         -0.2974   -2.7119   -1.8594 C.ar      1 <0>         0.1279
     10 O1         -1.4279   -2.3376   -2.4927 O.3       1 <0>        -0.0834
     11 N1         -2.1386   -3.4862   -2.9085 N.2       1 <0>        -0.2857
     12 C10        -1.4782   -4.5594   -2.5636 C.2       1 <0>         0.1822
     13 C11        -1.8857   -5.9626   -2.8160 C.ar      1 <0>        -0.0406
     14 C12        -0.9213   -6.9362   -3.0707 C.ar      1 <0>        -0.0861
     15 C13        -1.3065   -8.2406   -3.3049 C.ar      1 <0>        -0.1193
     16 C14        -2.6468   -8.5825   -3.2873 C.ar      1 <0>        -0.0993
     17 C15        -3.6083   -7.6205   -3.0351 C.ar      1 <0>        -0.1198
     18 C16        -3.2344   -6.3141   -2.7938 C.ar      1 <0>        -0.0813
     19 O2          2.7988   -1.9961   -0.0890 O.3       1 <0>        -0.2993
     20 C17         3.8511   -2.7613    0.5018 C.3       1 <0>         0.0573
     21 C18         4.8908   -1.8162    1.1074 C.3       1 <0>        -0.1154
     22 C19         6.0176   -2.6355    1.7400 C.3       1 <0>        -0.1160
     23 C20         7.0573   -1.6904    2.3456 C.3       1 <0>         0.0628
     24 O3          8.1096   -2.4556    2.9365 O.3       1 <0>        -0.3187
     25 C21         9.1215   -1.7635    3.5229 C.ar      1 <0>         0.1247
     26 C22         9.0990   -0.3762    3.5346 C.ar      1 <0>        -0.2293
     27 C23        10.1284    0.3250    4.1317 C.ar      1 <0>        -0.0828
     28 C24        11.1807   -0.3544    4.7176 C.ar      1 <0>        -0.1501
     29 C25        11.2057   -1.7366    4.7069 C.ar      1 <0>         0.0180
     30 C26        10.1755   -2.4427    4.1159 C.ar      1 <0>        -0.1451
     31 C27        12.3543   -2.4739    5.3458 C.3       1 <0>        -0.1606
     32 C28        12.0357   -2.7418    6.7942 C.2       1 <0>         0.4977
     33 O4         10.9743   -2.3687    7.2640 O.co2     1 <0>        -0.6859
     34 O5         12.8393   -3.3318    7.4961 O.co2     1 <0>        -0.7016
     35 H1          1.0039    1.9031    0.0027 H         1 <0>         0.0560
     36 H2         -0.5459    1.8868   -0.8726 H         1 <0>         0.0536
     37 H3         -0.5289    1.8773    0.9072 H         1 <0>         0.0545
     38 H4          0.5293   -0.3651    0.8851 H         1 <0>         0.0644
     39 H5         -1.0205   -0.3814    0.0098 H         1 <0>         0.0589
     40 H6          0.1910   -0.1364   -2.1398 H         1 <0>         0.0726
     41 H7          1.7408   -0.1202   -1.2645 H         1 <0>         0.0823
     42 H8          2.6370   -4.6028   -0.2158 H         1 <0>         0.1438
     43 H9          0.8297   -5.8686   -1.2650 H         1 <0>         0.1377
     44 H10         0.1254   -6.6703   -3.0850 H         1 <0>         0.1304
     45 H11        -0.5602   -8.9957   -3.5027 H         1 <0>         0.1323
     46 H12        -2.9437   -9.6044   -3.4715 H         1 <0>         0.1290
     47 H13        -4.6532   -7.8931   -3.0229 H         1 <0>         0.1311
     48 H14        -3.9856   -5.5648   -2.5922 H         1 <0>         0.1301
     49 H15         3.4410   -3.3997    1.2843 H         1 <0>         0.0705
     50 H16         4.3233   -3.3798   -0.2614 H         1 <0>         0.0698
     51 H17         5.3010   -1.1778    0.3249 H         1 <0>         0.0792
     52 H18         4.4187   -1.1977    1.8707 H         1 <0>         0.0801
     53 H19         5.6074   -3.2739    2.5225 H         1 <0>         0.0786
     54 H20         6.4897   -3.2540    0.9768 H         1 <0>         0.0772
     55 H21         7.4674   -1.0520    1.5631 H         1 <0>         0.0602
     56 H22         6.5851   -1.0719    3.1089 H         1 <0>         0.0615
     57 H23         8.2776    0.1549    3.0769 H         1 <0>         0.1177
     58 H24        10.1116    1.4048    4.1408 H         1 <0>         0.1168
     59 H25        11.9847    0.1956    5.1840 H         1 <0>         0.1165
     60 H26        10.1932   -3.5226    4.1117 H         1 <0>         0.1222
     61 H27        12.5122   -3.4197    4.8275 H         1 <0>         0.0713
     62 H28        13.2575   -1.8675    5.2786 H         1 <0>         0.0722
@<TRIPOS>BOND
     1    1    2 1
     2    1   35 1
     3    1   36 1
     4    1   37 1
     5    2    3 1
     6    2   38 1
     7    2   39 1
     8    3    4 1
     9    3   40 1
    10    3   41 1
    11    4    9 ar
    12    4    5 ar
    13    5    6 ar
    14    5   19 1
    15    6    7 ar
    16    6   42 1
    17    7    8 ar
    18    7   43 1
    19    8   12 1
    20    8    9 ar
    21    9   10 1
    22   10   11 1
    23   11   12 2
    24   12   13 1
    25   13   18 ar
    26   13   14 ar
    27   14   15 ar
    28   14   44 1
    29   15   16 ar
    30   15   45 1
    31   16   17 ar
    32   16   46 1
    33   17   18 ar
    34   17   47 1
    35   18   48 1
    36   19   20 1
    37   20   21 1
    38   20   49 1
    39   20   50 1
    40   21   22 1
    41   21   51 1
    42   21   52 1
    43   22   23 1
    44   22   53 1
    45   22   54 1
    46   23   24 1
    47   23   55 1
    48   23   56 1
    49   24   25 1
    50   25   30 ar
    51   25   26 ar
    52   26   27 ar
    53   26   57 1
    54   27   28 ar
    55   27   58 1
    56   28   29 ar
    57   28   59 1
    58   29   30 ar
    59   29   31 1
    60   30   60 1
    61   31   32 1
    62   31   61 1
    63   31   62 1
    64   32   33 2
    65   32   34 1
@<TRIPOS>MOLECULE
CHEMBL215605
   55    58     0     0     0
SMALL
USER_CHARGES

@<TRIPOS>ATOM
      1 C1         -0.0048    1.3739   -0.2775 C.ar      1 <0>        -0.0947
      2 C2          1.1803    2.0883   -0.2526 C.ar      1 <0>        -0.1201
      3 C3          2.3880    1.4251   -0.1942 C.ar      1 <0>        -0.0773
      4 C4          2.4133    0.0283   -0.1601 C.ar      1 <0>        -0.0494
      5 C5          1.2126   -0.6863   -0.1856 C.ar      1 <0>        -0.0882
      6 C6          0.0124   -0.0094   -0.2441 C.ar      1 <0>        -0.1164
      7 C7          3.7008   -0.6883   -0.0981 C.2       1 <0>         0.1612
      8 C8          3.8700   -2.0640    0.0457 C.2       1 <0>        -0.3138
      9 C9          5.3215   -2.3039    0.0555 C.2       1 <0>         0.1945
     10 N1          5.9051   -1.1404   -0.0739 N.2       1 <0>        -0.2760
     11 O1          4.9192   -0.1339   -0.1758 O.3       1 <0>        -0.0736
     12 C10         5.9962   -3.6177    0.1881 C.ar      1 <0>        -0.0729
     13 C11         5.2443   -4.7913    0.2105 C.ar      1 <0>        -0.0732
     14 C12         5.8774   -6.0111    0.3336 C.ar      1 <0>        -0.1111
     15 C13         7.2560   -6.0716    0.4348 C.ar      1 <0>         0.0255
     16 C14         8.0080   -4.9115    0.4134 C.ar      1 <0>        -0.1095
     17 C15         7.3859   -3.6845    0.2852 C.ar      1 <0>         0.0073
     18 Cl1         8.3314   -2.2289    0.2518 Cl        1 <0>        -0.0483
     19 C16         7.9406   -7.4074    0.5695 C.3       1 <0>        -0.1665
     20 C17         8.2687   -7.9440   -0.7999 C.2       1 <0>         0.4993
     21 O2          7.9739   -7.3014   -1.7932 O.co2     1 <0>        -0.6851
     22 O3          8.8289   -9.0209   -0.9146 O.co2     1 <0>        -0.6944
     23 C18         2.8466   -3.0387    0.1599 C.2       1 <0>         0.4376
     24 O4          2.3952   -3.3199    1.2511 O.2       1 <0>        -0.4256
     25 C19         2.3194   -3.7258   -1.0734 C.3       1 <0>        -0.1770
     26 C20         1.3252   -4.8146   -0.6650 C.3       1 <0>        -0.1124
     27 C21         0.7899   -5.5122   -1.9171 C.3       1 <0>         0.0545
     28 O5         -0.1387   -6.5291   -1.5357 O.3       1 <0>        -0.2953
     29 C22        -0.7109   -7.2493   -2.5367 C.ar      1 <0>         0.1509
     30 C23        -0.3809   -6.9861   -3.8578 C.ar      1 <0>        -0.1864
     31 C24        -0.9634   -7.7189   -4.8739 C.ar      1 <0>        -0.0619
     32 C25        -1.8759   -8.7153   -4.5747 C.ar      1 <0>        -0.0655
     33 C26        -2.2070   -8.9800   -3.2578 C.ar      1 <0>        -0.0639
     34 C27        -1.6221   -8.2528   -2.2377 C.ar      1 <0>        -0.0615
     35 Cl2        -2.0322   -8.5897   -0.5848 Cl        1 <0>        -0.0423
     36 Cl3        -2.6065   -9.6340   -5.8537 Cl        1 <0>        -0.0604
     37 H1         -0.9478    1.8988   -0.3188 H         1 <0>         0.1307
     38 H2          1.1592    3.1677   -0.2793 H         1 <0>         0.1332
     39 H3          3.3121    1.9838   -0.1752 H         1 <0>         0.1368
     40 H4          1.2245   -1.7659   -0.1599 H         1 <0>         0.1277
     41 H5         -0.9163   -0.5603   -0.2635 H         1 <0>         0.1341
     42 H6          4.1681   -4.7458    0.1319 H         1 <0>         0.1240
     43 H7          5.2954   -6.9207    0.3513 H         1 <0>         0.1336
     44 H8          9.0838   -4.9649    0.4931 H         1 <0>         0.1373
     45 H9          8.8599   -7.2883    1.1429 H         1 <0>         0.0776
     46 H10         7.2792   -8.1044    1.0841 H         1 <0>         0.0788
     47 H11         1.8183   -2.9962   -1.7095 H         1 <0>         0.1077
     48 H12         3.1476   -4.1766   -1.6202 H         1 <0>         0.1127
     49 H13         1.8263   -5.5442   -0.0288 H         1 <0>         0.0877
     50 H14         0.4970   -4.3638   -0.1181 H         1 <0>         0.0854
     51 H15         0.2888   -4.7826   -2.5533 H         1 <0>         0.0688
     52 H16         1.6181   -5.9629   -2.4640 H         1 <0>         0.0740
     53 H17         0.3310   -6.2085   -4.0923 H         1 <0>         0.1486
     54 H18        -0.7066   -7.5137   -5.9026 H         1 <0>         0.1434
     55 H19        -2.9197   -9.7577   -3.0263 H         1 <0>         0.1496
@<TRIPOS>BOND
     1    1    6 ar
     2    1    2 ar
     3    1   37 1
     4    2    3 ar
     5    2   38 1
     6    3    4 ar
     7    3   39 1
     8    4    5 ar
     9    4    7 1
    10    5    6 ar
    11    5   40 1
    12    6   41 1
    13    7   11 1
    14    7    8 2
    15    8    9 1
    16    8   23 1
    17    9   10 2
    18    9   12 1
    19   10   11 1
    20   12   17 ar
    21   12   13 ar
    22   13   14 ar
    23   13   42 1
    24   14   15 ar
    25   14   43 1
    26   15   16 ar
    27   15   19 1
    28   16   17 ar
    29   16   44 1
    30   17   18 1
    31   19   20 1
    32   19   45 1
    33   19   46 1
    34   20   21 2
    35   20   22 1
    36   23   24 2
    37   23   25 1
    38   25   26 1
    39   25   47 1
    40   25   48 1
    41   26   27 1
    42   26   49 1
    43   26   50 1
    44   27   28 1
    45   27   51 1
    46   27   52 1
    47   28   29 1
    48   29   34 ar
    49   29   30 ar
    50   30   31 ar
    51   30   53 1
    52   31   32 ar
    53   31   54 1
    54   32   33 ar
    55   32   36 1
    56   33   34 ar
    57   33   55 1
    58   34   35 1
@<TRIPOS>MOLECULE
CHEMBL175310
   56    59     0     0     0
SMALL
USER_CHARGES

@<TRIPOS>ATOM
      1 C1         -0.0187    1.5258    0.0104 C.3       1 <0>        -0.1521
      2 C2          0.0021   -0.0041    0.0020 C.3       1 <0>        -0.1176
      3 C3          0.7421   -0.5109    1.2415 C.3       1 <0>        -0.0697
      4 C4          0.7625   -2.0177    1.2333 C.ar      1 <0>        -0.1230
      5 C5         -0.2618   -2.7295    1.8327 C.ar      1 <0>         0.2032
      6 C6         -0.2503   -4.1223    1.8294 C.ar      1 <0>        -0.2159
      7 C7          0.7717   -4.8044    1.2346 C.ar      1 <0>         0.0013
      8 C8          1.8143   -4.1024    0.6239 C.ar      1 <0>        -0.2139
      9 C9          1.8057   -2.6968    0.6194 C.ar      1 <0>         0.1307
     10 O1          2.9142   -2.2956   -0.0353 O.3       1 <0>        -0.0560
     11 N1          3.6416   -3.4301   -0.4619 N.2       1 <0>        -0.2267
     12 C10         3.0298   -4.5107   -0.0846 C.2       1 <0>         0.0483
     13 C11         3.4787   -5.9260   -0.3428 C.3       1 <0>         0.5556
     14 F1          2.9526   -6.3671   -1.5617 F         1 <0>        -0.1557
     15 F2          4.8760   -5.9698   -0.3949 F         1 <0>        -0.1569
     16 F3          3.0242   -6.7548    0.6885 F         1 <0>        -0.1550
     17 O2         -1.2855   -2.0651    2.4291 O.3       1 <0>        -0.2927
     18 C12        -2.3113   -2.8583    3.0296 C.3       1 <0>         0.0600
     19 C13        -3.3699   -1.9415    3.6458 C.3       1 <0>        -0.1212
     20 C14        -4.4682   -2.7907    4.2888 C.3       1 <0>         0.0684
     21 O3         -5.4569   -1.9344    4.8643 O.3       1 <0>        -0.3144
     22 C15        -6.5099   -2.5343    5.4803 C.ar      1 <0>         0.1305
     23 C16        -6.5800   -3.9244    5.5308 C.ar      1 <0>        -0.2331
     24 C17        -7.6306   -4.5430    6.1461 C.ar      1 <0>        -0.0379
     25 C18        -8.6428   -3.7778    6.7294 C.ar      1 <0>        -0.1411
     26 C19        -9.8773   -4.1034    7.4491 C.2       1 <0>        -0.2205
     27 C20       -10.4582   -2.9395    7.7784 C.2       1 <0>         0.0656
     28 N2         -9.6964   -1.8939    7.3284 N.pl3     1 <0>        -0.4414
     29 C21        -8.5789   -2.3734    6.6824 C.ar      1 <0>         0.1524
     30 C22        -7.4990   -1.7598    6.0563 C.ar      1 <0>        -0.1514
     31 C23       -10.0224   -0.4769    7.5070 C.3       1 <0>         0.0309
     32 C24       -10.7417    0.0311    6.2841 C.2       1 <0>         0.4809
     33 O4        -10.9617   -0.7209    5.3499 O.co2     1 <0>        -0.6717
     34 O5        -11.1037    1.1941    6.2288 O.co2     1 <0>        -0.6921
     35 H1          1.0039    1.9031    0.0027 H         1 <0>         0.0538
     36 H2         -0.5459    1.8868   -0.8726 H         1 <0>         0.0556
     37 H3         -0.5289    1.8773    0.9072 H         1 <0>         0.0576
     38 H4         -1.0205   -0.3814    0.0098 H         1 <0>         0.0661
     39 H5          0.5123   -0.3556   -0.8948 H         1 <0>         0.0591
     40 H6          1.7647   -0.1336    1.2338 H         1 <0>         0.0749
     41 H7          0.2319   -0.1594    2.1383 H         1 <0>         0.0865
     42 H8         -1.0553   -4.6663    2.3009 H         1 <0>         0.1494
     43 H9          0.7747   -5.8844    1.2363 H         1 <0>         0.1447
     44 H10        -2.7742   -3.4889    2.2706 H         1 <0>         0.0741
     45 H11        -1.8767   -3.4858    3.8077 H         1 <0>         0.0734
     46 H12        -2.9070   -1.3108    4.4049 H         1 <0>         0.0880
     47 H13        -3.8045   -1.3139    2.8677 H         1 <0>         0.0893
     48 H14        -4.9311   -3.4213    3.5298 H         1 <0>         0.0638
     49 H15        -4.0336   -3.4182    5.0669 H         1 <0>         0.0629
     50 H16        -5.7982   -4.5174    5.0798 H         1 <0>         0.1198
     51 H17        -7.6788   -5.6213    6.1812 H         1 <0>         0.1190
     52 H18       -10.2493   -5.0926    7.6716 H         1 <0>         0.1400
     53 H19       -11.3886   -2.8416    8.3180 H         1 <0>         0.1601
     54 H20        -7.4357   -0.6823    6.0171 H         1 <0>         0.1226
     55 H21       -10.6632   -0.3588    8.3808 H         1 <0>         0.0880
     56 H22        -9.1037    0.0920    7.6507 H         1 <0>         0.0837
@<TRIPOS>BOND
     1    1    2 1
     2    1   35 1
     3    1   36 1
     4    1   37 1
     5    2    3 1
     6    2   38 1
     7    2   39 1
     8    3    4 1
     9    3   40 1
    10    3   41 1
    11    4    9 ar
    12    4    5 ar
    13    5    6 ar
    14    5   17 1
    15    6    7 ar
    16    6   42 1
    17    7    8 ar
    18    7   43 1
    19    8   12 1
    20    8    9 ar
    21    9   10 1
    22   10   11 1
    23   11   12 2
    24   12   13 1
    25   13   14 1
    26   13   15 1
    27   13   16 1
    28   17   18 1
    29   18   19 1
    30   18   44 1
    31   18   45 1
    32   19   20 1
    33   19   46 1
    34   19   47 1
    35   20   21 1
    36   20   48 1
    37   20   49 1
    38   21   22 1
    39   22   30 ar
    40   22   23 ar
    41   23   24 ar
    42   23   50 1
    43   24   25 ar
    44   24   51 1
    45   25   29 ar
    46   25   26 1
    47   26   27 2
    48   26   52 1
    49   27   28 1
    50   27   53 1
    51   28   29 1
    52   28   31 1
    53   29   30 ar
    54   30   54 1
    55   31   32 1
    56   31   55 1
    57   31   56 1
    58   32   33 2
    59   32   34 1
@<TRIPOS>MOLECULE
CHEMBL218384
   57    60     0     0     0
SMALL
USER_CHARGES

@<TRIPOS>ATOM
      1 C1         -0.0184    1.5028    0.0103 C.3       1 <0>        -0.1307
      2 C2          0.0021   -0.0041    0.0020 C.ar      1 <0>        -0.0410
      3 C3          0.0058   -0.6889   -1.1955 C.ar      1 <0>        -0.1266
      4 C4          0.0240   -2.0723   -1.2049 C.ar      1 <0>        -0.0897
      5 C5          0.0391   -2.7790   -0.0150 C.ar      1 <0>        -0.1238
      6 C6          0.0361   -2.1076    1.1896 C.ar      1 <0>        -0.0718
      7 C7          0.0231   -0.7106    1.2068 C.ar      1 <0>        -0.0557
      8 C8          0.0254    0.0151    2.4917 C.2       1 <0>         0.1617
      9 C9          0.0508   -0.5591    3.7561 C.2       1 <0>        -0.2847
     10 C10         0.0424    0.5514    4.7178 C.2       1 <0>         0.2011
     11 N1          0.0142    1.6614    4.0250 N.2       1 <0>        -0.3026
     12 O1          0.0093    1.3473    2.6475 O.3       1 <0>        -0.0668
     13 C11         0.0614    0.4363    6.1966 C.ar      1 <0>        -0.0522
     14 C12        -0.5999   -0.6178    6.8246 C.ar      1 <0>        -0.1087
     15 C13        -0.5790   -0.7199    8.2006 C.ar      1 <0>        -0.1187
     16 C14         0.0963    0.2216    8.9565 C.ar      1 <0>        -0.0913
     17 C15         0.7538    1.2699    8.3387 C.ar      1 <0>        -0.0185
     18 C16         0.7451    1.3782    6.9626 C.ar      1 <0>        -0.0692
     19 C17         1.4868    2.2918    9.1690 C.3       1 <0>        -0.1612
     20 C18         2.9125    1.8468    9.3699 C.2       1 <0>         0.4965
     21 O2          3.2976    0.7970    8.8840 O.co2     1 <0>        -0.6849
     22 O3          3.6807    2.5364   10.0185 O.co2     1 <0>        -0.7000
     23 C19         0.0799   -1.9945    4.0701 C.2       1 <0>         0.6025
     24 O4          1.1452   -2.5702    4.1873 O.2       1 <0>        -0.5098
     25 N2         -1.0738   -2.6733    4.2281 N.am      1 <0>        -0.7258
     26 C20        -1.0448   -4.1041    4.5411 C.3       1 <0>         0.1211
     27 C21        -2.4769   -4.6276    4.6675 C.3       1 <0>         0.0418
     28 O5         -3.1329   -4.5307    3.4017 O.3       1 <0>        -0.2952
     29 C22        -4.4222   -4.9575    3.3404 C.ar      1 <0>         0.1484
     30 C23        -5.0442   -5.4536    4.4765 C.ar      1 <0>        -0.1863
     31 C24        -6.3545   -5.8869    4.4125 C.ar      1 <0>        -0.0628
     32 C25        -7.0469   -5.8264    3.2160 C.ar      1 <0>        -0.0641
     33 C26        -6.4291   -5.3320    2.0812 C.ar      1 <0>        -0.0644
     34 C27        -5.1198   -4.8920    2.1422 C.ar      1 <0>        -0.0604
     35 Cl1        -4.3468   -4.2649    0.7199 Cl        1 <0>        -0.0388
     36 Cl2        -8.6931   -6.3722    3.1387 Cl        1 <0>        -0.0590
     37 H1          1.0042    1.8801    0.0026 H         1 <0>         0.0806
     38 H2         -0.5455    1.8639   -0.8728 H         1 <0>         0.0733
     39 H3         -0.5286    1.8543    0.9071 H         1 <0>         0.0867
     40 H4         -0.0060   -0.1439   -2.1278 H         1 <0>         0.1311
     41 H5          0.0261   -2.6033   -2.1454 H         1 <0>         0.1285
     42 H6          0.0530   -3.8588   -0.0299 H         1 <0>         0.1307
     43 H7          0.0479   -2.6603    2.1173 H         1 <0>         0.1322
     44 H8         -1.1280   -1.3529    6.2355 H         1 <0>         0.1161
     45 H9         -1.0910   -1.5362    8.6883 H         1 <0>         0.1229
     46 H10         0.1098    0.1380   10.0332 H         1 <0>         0.1223
     47 H11         1.2632    2.1943    6.4809 H         1 <0>         0.1230
     48 H12         1.4752    3.2532    8.6554 H         1 <0>         0.0720
     49 H13         0.9973    2.3915   10.1378 H         1 <0>         0.0732
     50 H14        -1.9232   -2.2143    4.1347 H         1 <0>         0.4061
     51 H15        -0.5311   -4.6403    3.7432 H         1 <0>         0.0846
     52 H16        -0.5168   -4.2597    5.4819 H         1 <0>         0.1005
     53 H17        -2.4560   -5.6695    4.9871 H         1 <0>         0.0879
     54 H18        -3.0177   -4.0326    5.4035 H         1 <0>         0.0785
     55 H19        -4.5044   -5.5015    5.4107 H         1 <0>         0.1485
     56 H20        -6.8386   -6.2736    5.2971 H         1 <0>         0.1433
     57 H21        -6.9711   -5.2859    1.1482 H         1 <0>         0.1496
@<TRIPOS>BOND
     1    1    2 1
     2    1   37 1
     3    1   38 1
     4    1   39 1
     5    2    7 ar
     6    2    3 ar
     7    3    4 ar
     8    3   40 1
     9    4    5 ar
    10    4   41 1
    11    5    6 ar
    12    5   42 1
    13    6    7 ar
    14    6   43 1
    15    7    8 1
    16    8   12 1
    17    8    9 2
    18    9   10 1
    19    9   23 1
    20   10   11 2
    21   10   13 1
    22   11   12 1
    23   13   18 ar
    24   13   14 ar
    25   14   15 ar
    26   14   44 1
    27   15   16 ar
    28   15   45 1
    29   16   17 ar
    30   16   46 1
    31   17   18 ar
    32   17   19 1
    33   18   47 1
    34   19   20 1
    35   19   48 1
    36   19   49 1
    37   20   21 2
    38   20   22 1
    39   23   24 2
    40   23   25 am
    41   25   26 1
    42   25   50 1
    43   26   27 1
    44   26   51 1
    45   26   52 1
    46   27   28 1
    47   27   53 1
    48   27   54 1
    49   28   29 1
    50   29   34 ar
    51   29   30 ar
    52   30   31 ar
    53   30   55 1
    54   31   32 ar
    55   31   56 1
    56   32   33 ar
    57   32   36 1
    58   33   34 ar
    59   33   57 1
    60   34   35 1
@<TRIPOS>MOLECULE
CHEMBL177831
   59    62     0     0     0
SMALL
USER_CHARGES

@<TRIPOS>ATOM
      1 C1         -0.0187    1.5258    0.0104 C.3       1 <0>        -0.1521
      2 C2          0.0021   -0.0041    0.0020 C.3       1 <0>        -0.1174
      3 C3          0.7182   -0.4975   -1.2568 C.3       1 <0>        -0.0691
      4 C4          0.7386   -2.0043   -1.2651 C.ar      1 <0>        -0.1241
      5 C5          1.7874   -2.6879   -0.6752 C.ar      1 <0>         0.2031
      6 C6          1.8138   -4.0805   -0.6786 C.ar      1 <0>        -0.2161
      7 C7          0.8051   -4.7902   -1.2640 C.ar      1 <0>         0.0012
      8 C8         -0.2622   -4.1169   -1.8640 C.ar      1 <0>        -0.2140
      9 C9         -0.2971   -2.7116   -1.8592 C.ar      1 <0>         0.1306
     10 O1         -1.4279   -2.3410   -2.4934 O.3       1 <0>        -0.0561
     11 N1         -2.1323   -3.4949   -2.9061 N.2       1 <0>        -0.2264
     12 C10        -1.4728   -4.5582   -2.5610 C.2       1 <0>         0.0483
     13 C11        -1.8852   -5.9851   -2.8158 C.3       1 <0>         0.5555
     14 F1         -2.6666   -6.4423   -1.7492 F         1 <0>        -0.1557
     15 F2         -2.6274   -6.0518   -3.9998 F         1 <0>        -0.1568
     16 F3         -0.7443   -6.7860   -2.9349 F         1 <0>        -0.1550
     17 O2          2.7986   -1.9959   -0.0891 O.3       1 <0>        -0.2957
     18 C12         3.8511   -2.7608    0.5018 C.3       1 <0>         0.0560
     19 C13         4.8906   -1.8155    1.1073 C.3       1 <0>        -0.1169
     20 C14         6.0175   -2.6345    1.7400 C.3       1 <0>        -0.1146
     21 C15         7.0570   -1.6892    2.3455 C.3       1 <0>         0.0628
     22 O3          8.1095   -2.4541    2.9365 O.3       1 <0>        -0.3209
     23 C16         9.1219   -1.7612    3.5232 C.ar      1 <0>         0.0862
     24 C17         9.0951   -0.3688    3.5325 C.ar      1 <0>        -0.1886
     25 C18        10.1116    0.3482    4.1226 C.ar      1 <0>        -0.0760
     26 C19        11.1784   -0.3179    4.7169 C.ar      1 <0>         0.0877
     27 C20        11.2084   -1.7237    4.7092 C.ar      1 <0>        -0.0752
     28 C21        10.1691   -2.4409    4.1122 C.ar      1 <0>        -0.1133
     29 C22        12.4407   -2.1068    5.4024 C.2       1 <0>        -0.2349
     30 C23        13.0539   -0.9707    5.7707 C.2       1 <0>         0.0794
     31 N2         12.3153    0.1089    5.3702 N.pl3     1 <0>        -0.4416
     32 C24        12.6785    1.5094    5.6003 C.3       1 <0>         0.0318
     33 C25        12.0006    2.0051    6.8516 C.2       1 <0>         0.4800
     34 O4         11.2808    1.2578    7.4919 O.co2     1 <0>        -0.6714
     35 O5         12.1719    3.1534    7.2238 O.co2     1 <0>        -0.6927
     36 H1          1.0039    1.9031    0.0027 H         1 <0>         0.0570
     37 H2         -0.5459    1.8868   -0.8726 H         1 <0>         0.0541
     38 H3         -0.5289    1.8773    0.9072 H         1 <0>         0.0556
     39 H4          0.5293   -0.3651    0.8851 H         1 <0>         0.0656
     40 H5         -1.0205   -0.3814    0.0098 H         1 <0>         0.0593
     41 H6          0.1910   -0.1364   -2.1398 H         1 <0>         0.0748
     42 H7          1.7408   -0.1202   -1.2645 H         1 <0>         0.0858
     43 H8          2.6380   -4.6024   -0.2152 H         1 <0>         0.1493
     44 H9          0.8322   -5.8699   -1.2636 H         1 <0>         0.1445
     45 H10         3.4411   -3.3992    1.2844 H         1 <0>         0.0721
     46 H11         4.3234   -3.3793   -0.2614 H         1 <0>         0.0716
     47 H12         5.3007   -1.1771    0.3248 H         1 <0>         0.0803
     48 H13         4.4184   -1.1969    1.8705 H         1 <0>         0.0812
     49 H14         5.6075   -3.2729    2.5226 H         1 <0>         0.0776
     50 H15         6.4898   -3.2530    0.9768 H         1 <0>         0.0768
     51 H16         7.4671   -1.0508    1.5630 H         1 <0>         0.0599
     52 H17         6.5848   -1.0706    3.1087 H         1 <0>         0.0612
     53 H18         8.2694    0.1534    3.0722 H         1 <0>         0.1231
     54 H19        10.0809    1.4278    4.1237 H         1 <0>         0.1178
     55 H20        10.1866   -3.5208    4.1079 H         1 <0>         0.1229
     56 H21        12.7896   -3.1127    5.5835 H         1 <0>         0.1410
     57 H22        13.9914   -0.9171    6.3042 H         1 <0>         0.1605
     58 H23        13.7593    1.5901    5.7163 H         1 <0>         0.0876
     59 H24        12.3583    2.1121    4.7505 H         1 <0>         0.0822
@<TRIPOS>BOND
     1    1    2 1
     2    1   36 1
     3    1   37 1
     4    1   38 1
     5    2    3 1
     6    2   39 1
     7    2   40 1
     8    3    4 1
     9    3   41 1
    10    3   42 1
    11    4    9 ar
    12    4    5 ar
    13    5    6 ar
    14    5   17 1
    15    6    7 ar
    16    6   43 1
    17    7    8 ar
    18    7   44 1
    19    8   12 1
    20    8    9 ar
    21    9   10 1
    22   10   11 1
    23   11   12 2
    24   12   13 1
    25   13   14 1
    26   13   15 1
    27   13   16 1
    28   17   18 1
    29   18   19 1
    30   18   45 1
    31   18   46 1
    32   19   20 1
    33   19   47 1
    34   19   48 1
    35   20   21 1
    36   20   49 1
    37   20   50 1
    38   21   22 1
    39   21   51 1
    40   21   52 1
    41   22   23 1
    42   23   28 ar
    43   23   24 ar
    44   24   25 ar
    45   24   53 1
    46   25   26 ar
    47   25   54 1
    48   26   31 1
    49   26   27 ar
    50   27   28 ar
    51   27   29 1
    52   28   55 1
    53   29   30 2
    54   29   56 1
    55   30   31 1
    56   30   57 1
    57   31   32 1
    58   32   33 1
    59   32   58 1
    60   32   59 1
    61   33   34 2
    62   33   35 1
@<TRIPOS>MOLECULE
CHEMBL401236
   63    66     0     0     0
SMALL
USER_CHARGES

@<TRIPOS>ATOM
      1 C1          1.5263   -2.3674    1.3672 C.3       1 <0>        -0.1457
      2 C2          0.8828   -2.5334    2.7454 C.3       1 <0>        -0.0916
      3 C3         -0.5339   -3.0210    2.5828 C.ar      1 <0>        -0.0431
      4 C4         -1.5774   -2.1158    2.5632 C.ar      1 <0>        -0.1363
      5 C5         -2.8813   -2.5653    2.4135 C.ar      1 <0>         0.1006
      6 C6         -3.1338   -3.9237    2.2838 C.ar      1 <0>        -0.1936
      7 C7         -2.0870   -4.8245    2.3040 C.ar      1 <0>        -0.0810
      8 C8         -0.7876   -4.3733    2.4477 C.ar      1 <0>        -0.0865
      9 C9          0.3532   -5.3578    2.4628 C.3       1 <0>        -0.0604
     10 C10         0.6987   -5.7160    3.9096 C.3       1 <0>        -0.1753
     11 C11         1.8395   -6.7006    3.9247 C.2       1 <0>         0.4895
     12 O1          2.3307   -7.0806    2.8755 O.co2     1 <0>        -0.6980
     13 O2          2.2712   -7.1171    4.9861 O.co2     1 <0>        -0.7058
     14 O3         -3.9095   -1.6771    2.3943 O.3       1 <0>        -0.2601
     15 C12        -5.1704   -2.1637    2.2532 C.ar      1 <0>         0.1331
     16 C13        -5.9146   -2.5011    3.3750 C.ar      1 <0>        -0.1221
     17 C14        -7.1963   -2.9952    3.2303 C.ar      1 <0>        -0.0532
     18 C15        -7.7394   -3.1543    1.9689 C.ar      1 <0>        -0.1529
     19 C16        -6.9997   -2.8192    0.8472 C.ar      1 <0>         0.1226
     20 C17        -5.7174   -2.3185    0.9881 C.ar      1 <0>        -0.1614
     21 F1         -7.5321   -2.9759   -0.3845 F         1 <0>        -0.1310
     22 C18        -8.0036   -3.3617    4.4489 C.3       1 <0>         0.1870
     23 H1         -7.3344   -3.5140    5.2958 H         1 <0>         0.1099
     24 C19        -8.9838   -2.2317    4.7702 C.3       1 <0>        -0.1603
     25 N1         -8.7492   -4.5955    4.1878 N.am      1 <0>        -0.7183
     26 C20        -9.1239   -5.3862    5.2129 C.2       1 <0>         0.6085
     27 O4         -8.8430   -5.0755    6.3550 O.2       1 <0>        -0.5108
     28 C21        -9.8721   -6.6242    4.9509 C.2       1 <0>        -0.2023
     29 C22       -10.3369   -7.5382    5.8435 C.2       1 <0>        -0.0149
     30 C23       -11.0380   -8.6696    5.3889 C.ar      1 <0>        -0.0883
     31 C24       -11.5952   -9.7247    6.1570 C.ar      1 <0>        -0.0529
     32 C25       -12.2469  -10.7535    5.5546 C.ar      1 <0>        -0.0397
     33 C26       -12.3933  -10.8141    4.1729 C.ar      1 <0>        -0.0745
     34 C27       -11.8667   -9.8081    3.3889 C.ar      1 <0>        -0.0668
     35 C28       -11.2028   -8.7577    3.9864 C.ar      1 <0>        -0.0988
     36 S1        -10.4006   -7.2934    3.3834 S.3       1 <0>         0.0748
     37 Cl1       -12.9125  -12.0234    6.5334 Cl        1 <0>        -0.0617
     38 C29       -10.1007   -7.3395    7.3185 C.3       1 <0>        -0.1215
     39 H2          2.5510   -2.0147    1.4848 H         1 <0>         0.0581
     40 H3          1.5294   -3.3267    0.8497 H         1 <0>         0.0621
     41 H4          0.9571   -1.6425    0.7854 H         1 <0>         0.0511
     42 H5          1.4520   -3.2583    3.3272 H         1 <0>         0.0868
     43 H6          0.8797   -1.5741    3.2628 H         1 <0>         0.0692
     44 H7         -1.3783   -1.0591    2.6646 H         1 <0>         0.1285
     45 H8         -4.1480   -4.2763    2.1675 H         1 <0>         0.1207
     46 H9         -2.2829   -5.8818    2.2035 H         1 <0>         0.1256
     47 H10         0.0617   -6.2599    1.9249 H         1 <0>         0.0685
     48 H11         1.2237   -4.9127    1.9809 H         1 <0>         0.0764
     49 H12         0.9901   -4.8139    4.4476 H         1 <0>         0.0578
     50 H13        -0.1718   -6.1611    4.3915 H         1 <0>         0.0557
     51 H14        -5.4915   -2.3776    4.3610 H         1 <0>         0.1439
     52 H15        -8.7418   -3.5408    1.8582 H         1 <0>         0.1376
     53 H16        -5.1418   -2.0524    0.1139 H         1 <0>         0.1470
     54 H17        -9.5677   -2.4969    5.6516 H         1 <0>         0.0708
     55 H18        -8.4291   -1.3138    4.9645 H         1 <0>         0.0748
     56 H19        -9.6530   -2.0795    3.9234 H         1 <0>         0.0621
     57 H20        -8.9732   -4.8432    3.2771 H         1 <0>         0.4006
     58 H21       -11.4999   -9.7099    7.2326 H         1 <0>         0.1417
     59 H22       -12.9149  -11.6426    3.7169 H         1 <0>         0.1489
     60 H23       -11.9732   -9.8436    2.3148 H         1 <0>         0.1459
     61 H24       -10.9279   -6.7726    7.7458 H         1 <0>         0.0812
     62 H25       -10.0335   -8.3102    7.8097 H         1 <0>         0.0683
     63 H26        -9.1700   -6.7920    7.4670 H         1 <0>         0.0996
@<TRIPOS>BOND
     1    1    2 1
     2    1   39 1
     3    1   40 1
     4    1   41 1
     5    2    3 1
     6    2   42 1
     7    2   43 1
     8    3    8 ar
     9    3    4 ar
    10    4    5 ar
    11    4   44 1
    12    5    6 ar
    13    5   14 1
    14    6    7 ar
    15    6   45 1
    16    7    8 ar
    17    7   46 1
    18    8    9 1
    19    9   10 1
    20    9   47 1
    21    9   48 1
    22   10   11 1
    23   10   49 1
    24   10   50 1
    25   11   12 2
    26   11   13 1
    27   14   15 1
    28   15   20 ar
    29   15   16 ar
    30   16   17 ar
    31   16   51 1
    32   17   18 ar
    33   17   22 1
    34   18   19 ar
    35   18   52 1
    36   19   20 ar
    37   19   21 1
    38   20   53 1
    39   22   23 1
    40   22   24 1
    41   22   25 1
    42   24   54 1
    43   24   55 1
    44   24   56 1
    45   25   26 am
    46   25   57 1
    47   26   27 2
    48   26   28 1
    49   28   36 1
    50   28   29 2
    51   29   30 1
    52   29   38 1
    53   30   35 ar
    54   30   31 ar
    55   31   32 ar
    56   31   58 1
    57   32   33 ar
    58   32   37 1
    59   33   34 ar
    60   33   59 1
    61   34   35 ar
    62   34   60 1
    63   35   36 1
    64   38   61 1
    65   38   62 1
    66   38   63 1
@<TRIPOS>MOLECULE
CHEMBL208202
   68    72     0     0     0
SMALL
USER_CHARGES

@<TRIPOS>ATOM
      1 C1         -0.0184    1.5028    0.0103 C.3       1 <0>        -0.1053
      2 C2          0.0021   -0.0041    0.0020 C.ar      1 <0>        -0.0855
      3 C3          0.0058   -0.6883   -1.1982 C.ar      1 <0>        -0.1116
      4 C4          0.0251   -2.0749   -1.2058 C.ar      1 <0>         0.0751
      5 C5          0.0406   -2.7749   -0.0083 C.ar      1 <0>        -0.1711
      6 C6          0.0369   -2.0909    1.1915 C.ar      1 <0>        -0.1762
      7 C7          0.0229   -0.7038    1.1991 C.ar      1 <0>         0.1081
      8 O1          0.0250   -0.0303    2.3804 O.3       1 <0>        -0.2780
      9 C8          0.0470   -0.8150    3.5745 C.3       1 <0>        -0.0066
     10 C9          0.0459    0.0965    4.7746 C.2       1 <0>         0.5012
     11 O2          0.0280    1.3060    4.6215 O.co2     1 <0>        -0.6705
     12 O3          0.0630   -0.3755    5.8986 O.co2     1 <0>        -0.6885
     13 O4          0.0283   -2.7483   -2.3872 O.3       1 <0>        -0.3112
     14 C10         0.0485   -4.1756   -2.3202 C.3       1 <0>         0.1009
     15 C11         0.0491   -4.7440   -3.7159 C.ar      1 <0>        -0.0820
     16 C12        -1.1481   -5.0148   -4.3489 C.ar      1 <0>        -0.0748
     17 C13        -1.1535   -5.5407   -5.6402 C.ar      1 <0>        -0.0457
     18 C14         0.0509   -5.7927   -6.2911 C.ar      1 <0>        -0.0854
     19 C15         1.2536   -5.5178   -5.6484 C.ar      1 <0>        -0.0580
     20 C16         1.2467   -4.9867   -4.3592 C.ar      1 <0>        -0.0753
     21 C17         2.5416   -5.7837   -6.3360 C.ar      1 <0>        -0.0042
     22 C18         2.5498   -6.3037   -7.6286 C.ar      1 <0>        -0.1152
     23 C19         3.7506   -6.5486   -8.2635 C.ar      1 <0>        -0.0652
     24 C20         4.9443   -6.2792   -7.6188 C.ar      1 <0>        -0.1869
     25 C21         4.9420   -5.7629   -6.3355 C.ar      1 <0>        -0.0634
     26 C22         3.7470   -5.5088   -5.6934 C.ar      1 <0>        -0.1127
     27 C23         6.2522   -6.5497   -8.3168 C.3       1 <0>         0.5084
     28 F1          6.6470   -5.4099   -9.0255 F         1 <0>        -0.1761
     29 F2          7.2293   -6.8708   -7.3684 F         1 <0>        -0.1765
     30 F3          6.0946   -7.6194   -9.2045 F         1 <0>        -0.1776
     31 C24        -2.4400   -5.8317   -6.3187 C.ar      1 <0>        -0.0413
     32 C25        -2.4437   -6.3630   -7.6080 C.ar      1 <0>        -0.1070
     33 C26        -3.6384   -6.6332   -8.2381 C.ar      1 <0>        -0.1070
     34 C27        -4.8442   -6.3758   -7.5866 C.ar      1 <0>        -0.0441
     35 C28        -4.8404   -5.8449   -6.2972 C.ar      1 <0>        -0.1051
     36 C29        -3.6456   -5.5792   -5.6652 C.ar      1 <0>        -0.1044
     37 C30        -6.1305   -6.6662   -8.2653 C.ar      1 <0>        -0.0460
     38 C31        -6.1372   -7.2018   -9.5521 C.ar      1 <0>        -0.1112
     39 C32        -7.3372   -7.4701  -10.1787 C.ar      1 <0>        -0.1181
     40 C33        -8.5318   -7.2079   -9.5324 C.ar      1 <0>        -0.1194
     41 C34        -8.5312   -6.6764   -8.2553 C.ar      1 <0>        -0.1171
     42 C35        -7.3372   -6.4100   -7.6165 C.ar      1 <0>        -0.1103
     43 H1          1.0042    1.8801    0.0026 H         1 <0>         0.0690
     44 H2         -0.5455    1.8639   -0.8728 H         1 <0>         0.0610
     45 H3         -0.5286    1.8543    0.9071 H         1 <0>         0.0804
     46 H4         -0.0067   -0.1432   -2.1305 H         1 <0>         0.1317
     47 H5          0.0553   -3.8548   -0.0143 H         1 <0>         0.1238
     48 H6          0.0483   -2.6360    2.1238 H         1 <0>         0.1308
     49 H7         -0.8341   -1.4560    3.6044 H         1 <0>         0.0574
     50 H8          0.9456   -1.4317    3.5875 H         1 <0>         0.0575
     51 H9          0.9459   -4.5020   -1.7946 H         1 <0>         0.0712
     52 H10        -0.8339   -4.5268   -1.7853 H         1 <0>         0.0713
     53 H11        -2.0818   -4.8193   -3.8427 H         1 <0>         0.1320
     54 H12         0.0516   -6.2003   -7.2912 H         1 <0>         0.1317
     55 H13         2.1799   -4.7685   -3.8612 H         1 <0>         0.1320
     56 H14         1.6183   -6.5150   -8.1326 H         1 <0>         0.1369
     57 H15         3.7581   -6.9517   -9.2655 H         1 <0>         0.1382
     58 H16         5.8769   -5.5548   -5.8366 H         1 <0>         0.1395
     59 H17         3.7462   -5.1015   -4.6931 H         1 <0>         0.1400
     60 H18        -1.5098   -6.5624   -8.1125 H         1 <0>         0.1269
     61 H19        -3.6413   -7.0441   -9.2369 H         1 <0>         0.1278
     62 H20        -5.7743   -5.6452   -5.7927 H         1 <0>         0.1289
     63 H21        -3.6427   -5.1715   -4.6651 H         1 <0>         0.1300
     64 H22        -5.2051   -7.4062  -10.0579 H         1 <0>         0.1252
     65 H23        -7.3436   -7.8851  -11.1758 H         1 <0>         0.1240
     66 H24        -9.4685   -7.4187  -10.0269 H         1 <0>         0.1226
     67 H25        -9.4668   -6.4734   -7.7556 H         1 <0>         0.1248
     68 H26        -7.3379   -5.9995   -6.6176 H         1 <0>         0.1263
@<TRIPOS>BOND
     1    1    2 1
     2    1   43 1
     3    1   44 1
     4    1   45 1
     5    2    7 ar
     6    2    3 ar
     7    3    4 ar
     8    3   46 1
     9    4    5 ar
    10    4   13 1
    11    5    6 ar
    12    5   47 1
    13    6    7 ar
    14    6   48 1
    15    7    8 1
    16    8    9 1
    17    9   10 1
    18    9   49 1
    19    9   50 1
    20   10   11 2
    21   10   12 1
    22   13   14 1
    23   14   15 1
    24   14   51 1
    25   14   52 1
    26   15   20 ar
    27   15   16 ar
    28   16   17 ar
    29   16   53 1
    30   17   18 ar
    31   17   31 1
    32   18   19 ar
    33   18   54 1
    34   19   20 ar
    35   19   21 1
    36   20   55 1
    37   21   26 ar
    38   21   22 ar
    39   22   23 ar
    40   22   56 1
    41   23   24 ar
    42   23   57 1
    43   24   25 ar
    44   24   27 1
    45   25   26 ar
    46   25   58 1
    47   26   59 1
    48   27   28 1
    49   27   29 1
    50   27   30 1
    51   31   36 ar
    52   31   32 ar
    53   32   33 ar
    54   32   60 1
    55   33   34 ar
    56   33   61 1
    57   34   35 ar
    58   34   37 1
    59   35   36 ar
    60   35   62 1
    61   36   63 1
    62   37   42 ar
    63   37   38 ar
    64   38   39 ar
    65   38   64 1
    66   39   40 ar
    67   39   65 1
    68   40   41 ar
    69   40   66 1
    70   41   42 ar
    71   41   67 1
    72   42   68 1
@<TRIPOS>MOLECULE
CHEMBL200952
   55    58     0     0     0
SMALL
USER_CHARGES

@<TRIPOS>ATOM
      1 C1         -0.0187    1.5258    0.0104 C.3       1 <0>        -0.1525
      2 C2          0.0021   -0.0041    0.0020 C.3       1 <0>        -0.1161
      3 C3          0.7182   -0.4975   -1.2568 C.3       1 <0>        -0.0655
      4 C4          0.7386   -2.0043   -1.2651 C.ar      1 <0>        -0.1357
      5 C5          1.7862   -2.6874   -0.6759 C.ar      1 <0>         0.1538
      6 C6          1.8136   -4.0795   -0.6782 C.ar      1 <0>        -0.2210
      7 C7          0.8052   -4.7913   -1.2634 C.ar      1 <0>        -0.0350
      8 C8         -0.2615   -4.1197   -1.8636 C.ar      1 <0>        -0.1435
      9 C9         -0.2990   -2.7133   -1.8603 C.ar      1 <0>         0.1384
     10 N1         -1.4539   -2.3361   -2.5085 N.pl3     1 <0>        -0.5946
     11 H1         -1.7360   -1.4199   -2.6568 H         1 <0>         0.4144
     12 C10        -2.1446   -3.4475   -2.9132 C.2       1 <0>         0.0399
     13 C11        -1.4741   -4.5556   -2.5619 C.2       1 <0>        -0.1948
     14 O1          2.7982   -1.9942   -0.0899 O.3       1 <0>        -0.3072
     15 C12         3.8510   -2.7586    0.5013 C.3       1 <0>         0.0657
     16 C13         4.8904   -1.8128    1.1061 C.3       1 <0>        -0.1185
     17 C14         6.0176   -2.6312    1.7390 C.3       1 <0>         0.0657
     18 O2          6.9884   -1.7478    2.3039 O.3       1 <0>        -0.3093
     19 C15         8.0627   -2.3180    2.9098 C.ar      1 <0>         0.1708
     20 C16         8.1861   -3.6933    2.9564 C.ar      1 <0>        -0.2536
     21 C17         9.2825   -4.2776    3.5741 C.ar      1 <0>        -0.0746
     22 C18        10.2631   -3.4999    4.1498 C.ar      1 <0>        -0.1491
     23 C19        10.1611   -2.1123    4.1157 C.ar      1 <0>         0.1492
     24 C20         9.0550   -1.5156    3.4859 C.ar      1 <0>        -0.1356
     25 C21         9.2465   -0.0689    3.6138 C.2       1 <0>        -0.2058
     26 C22        10.4001    0.1172    4.2740 C.2       1 <0>         0.0593
     27 N2         10.9569   -1.0934    4.5897 N.pl3     1 <0>        -0.4402
     28 C23        12.2190   -1.2770    5.3104 C.3       1 <0>         0.0323
     29 C24        13.3434   -1.4416    4.3206 C.2       1 <0>         0.4806
     30 O3         13.1118   -1.4086    3.1240 O.co2     1 <0>        -0.6711
     31 O4         14.4845   -1.6078    4.7163 O.co2     1 <0>        -0.6928
     32 H2          1.0039    1.9031    0.0027 H         1 <0>         0.0574
     33 H3         -0.5459    1.8868   -0.8726 H         1 <0>         0.0502
     34 H4         -0.5289    1.8773    0.9072 H         1 <0>         0.0536
     35 H5          0.5293   -0.3651    0.8851 H         1 <0>         0.0666
     36 H6         -1.0205   -0.3814    0.0098 H         1 <0>         0.0538
     37 H7          0.1910   -0.1364   -2.1398 H         1 <0>         0.0575
     38 H8          1.7408   -0.1202   -1.2645 H         1 <0>         0.0801
     39 H9          2.6381   -4.6003   -0.2142 H         1 <0>         0.1300
     40 H10         0.8332   -5.8709   -1.2621 H         1 <0>         0.1254
     41 H11        -3.0847   -3.4339   -3.4446 H         1 <0>         0.1689
     42 H12        -1.7764   -5.5755   -2.7486 H         1 <0>         0.1450
     43 H13         3.4412   -3.3967    1.2842 H         1 <0>         0.0662
     44 H14         4.3232   -3.3775   -0.2617 H         1 <0>         0.0666
     45 H15         5.3002   -1.1747    0.3231 H         1 <0>         0.0857
     46 H16         4.4181   -1.1940    1.8691 H         1 <0>         0.0849
     47 H17         5.6078   -3.2693    2.5220 H         1 <0>         0.0626
     48 H18         6.4898   -3.2500    0.9760 H         1 <0>         0.0634
     49 H19         7.4253   -4.3166    2.5102 H         1 <0>         0.1192
     50 H20         9.3680   -5.3538    3.6042 H         1 <0>         0.1204
     51 H21        11.1112   -3.9672    4.6282 H         1 <0>         0.1156
     52 H22         8.5852    0.7016    3.2460 H         1 <0>         0.1410
     53 H23        10.8218    1.0788    4.5269 H         1 <0>         0.1604
     54 H24        12.4104   -0.4052    5.9360 H         1 <0>         0.0881
     55 H25        12.1535   -2.1665    5.9371 H         1 <0>         0.0838
@<TRIPOS>BOND
     1    1    2 1
     2    1   32 1
     3    1   33 1
     4    1   34 1
     5    2    3 1
     6    2   35 1
     7    2   36 1
     8    3    4 1
     9    3   37 1
    10    3   38 1
    11    4    9 ar
    12    4    5 ar
    13    5    6 ar
    14    5   14 1
    15    6    7 ar
    16    6   39 1
    17    7    8 ar
    18    7   40 1
    19    8   13 1
    20    8    9 ar
    21    9   10 1
    22   10   11 1
    23   10   12 1
    24   12   13 2
    25   12   41 1
    26   13   42 1
    27   14   15 1
    28   15   16 1
    29   15   43 1
    30   15   44 1
    31   16   17 1
    32   16   45 1
    33   16   46 1
    34   17   18 1
    35   17   47 1
    36   17   48 1
    37   18   19 1
    38   19   24 ar
    39   19   20 ar
    40   20   21 ar
    41   20   49 1
    42   21   22 ar
    43   21   50 1
    44   22   23 ar
    45   22   51 1
    46   23   27 1
    47   23   24 ar
    48   24   25 1
    49   25   26 2
    50   25   52 1
    51   26   27 1
    52   26   53 1
    53   27   28 1
    54   28   29 1
    55   28   54 1
    56   28   55 1
    57   29   30 2
    58   29   31 1
@<TRIPOS>MOLECULE
CHEMBL289887
   47    49     0     0     0
SMALL
USER_CHARGES

@<TRIPOS>ATOM
      1 C1         -0.0184    1.5028    0.0103 C.3       1 <0>        -0.1057
      2 C2          0.0021   -0.0041    0.0020 C.ar      1 <0>        -0.1053
      3 C3          0.0057   -0.6878   -1.1980 C.ar      1 <0>        -0.0575
      4 C4          0.0246   -2.0766   -1.2053 C.ar      1 <0>        -0.1395
      5 C5          0.0397   -2.7765   -0.0051 C.ar      1 <0>        -0.0937
      6 C6          0.0360   -2.0909    1.1933 C.ar      1 <0>        -0.1955
      7 C7          0.0229   -0.7036    1.1994 C.ar      1 <0>         0.1430
      8 O1          0.0254   -0.0293    2.3804 O.3       1 <0>        -0.2742
      9 C8          0.0474   -0.8131    3.5751 C.3       1 <0>        -0.0088
     10 C9          0.0468    0.0992    4.7746 C.2       1 <0>         0.5015
     11 O2          0.0293    1.3085    4.6207 O.co2     1 <0>        -0.6695
     12 O3          0.0640   -0.3721    5.8989 O.co2     1 <0>        -0.6867
     13 S1          0.0286   -2.9502   -2.7355 S.3       1 <0>        -0.1045
     14 C10         0.0549   -4.6962   -2.2439 C.3       1 <0>        -0.0267
     15 C11         0.0604   -5.5647   -3.4755 C.2       1 <0>        -0.0236
     16 C12         1.1467   -6.0142   -4.1298 C.2       1 <0>         0.0230
     17 N1          0.7252   -6.7514   -5.1684 N.2       1 <0>        -0.4559
     18 C13        -0.5869   -6.7655   -5.1678 C.2       1 <0>         0.2280
     19 O4         -1.0218   -6.0404   -4.1227 O.3       1 <0>        -0.1834
     20 C14        -1.4431   -7.4664   -6.1481 C.ar      1 <0>         0.0199
     21 C15        -2.8329   -7.3979   -6.0402 C.ar      1 <0>        -0.0900
     22 C16        -3.6262   -8.0539   -6.9587 C.ar      1 <0>        -0.0684
     23 C17        -3.0469   -8.7785   -7.9851 C.ar      1 <0>        -0.1690
     24 C18        -1.6698   -8.8509   -8.0975 C.ar      1 <0>        -0.0697
     25 C19        -0.8651   -8.1947   -7.1890 C.ar      1 <0>        -0.0724
     26 C20        -3.9197   -9.4926   -8.9847 C.3       1 <0>         0.5087
     27 F1         -4.1960   -8.6377  -10.0571 F         1 <0>        -0.1739
     28 F2         -3.2555  -10.6307   -9.4547 F         1 <0>        -0.1751
     29 F3         -5.1178   -9.8724   -8.3704 F         1 <0>        -0.1749
     30 C21         2.5818   -5.7382   -3.7617 C.3       1 <0>        -0.0795
     31 H1          1.0042    1.8801    0.0026 H         1 <0>         0.0691
     32 H2         -0.5455    1.8639   -0.8728 H         1 <0>         0.0612
     33 H3         -0.5286    1.8543    0.9071 H         1 <0>         0.0804
     34 H4         -0.0064   -0.1428   -2.1303 H         1 <0>         0.1300
     35 H5          0.0540   -3.8564   -0.0097 H         1 <0>         0.1187
     36 H6          0.0478   -2.6347    2.1263 H         1 <0>         0.1331
     37 H7         -0.8339   -1.4538    3.6055 H         1 <0>         0.0596
     38 H8          0.9458   -1.4302    3.5883 H         1 <0>         0.0599
     39 H9          0.9506   -4.8945   -1.6554 H         1 <0>         0.1221
     40 H10        -0.8291   -4.9187   -1.6464 H         1 <0>         0.1091
     41 H11        -3.2863   -6.8328   -5.2392 H         1 <0>         0.1457
     42 H12        -4.7018   -8.0020   -6.8761 H         1 <0>         0.1459
     43 H13        -1.2238   -9.4188   -8.9006 H         1 <0>         0.1467
     44 H14         0.2097   -8.2480   -7.2806 H         1 <0>         0.1522
     45 H15         2.9373   -6.5112   -3.0805 H         1 <0>         0.0799
     46 H16         3.1946   -5.7385   -4.6632 H         1 <0>         0.0820
     47 H17         2.6515   -4.7652   -3.2754 H         1 <0>         0.0837
@<TRIPOS>BOND
     1    1    2 1
     2    1   31 1
     3    1   32 1
     4    1   33 1
     5    2    7 ar
     6    2    3 ar
     7    3    4 ar
     8    3   34 1
     9    4    5 ar
    10    4   13 1
    11    5    6 ar
    12    5   35 1
    13    6    7 ar
    14    6   36 1
    15    7    8 1
    16    8    9 1
    17    9   10 1
    18    9   37 1
    19    9   38 1
    20   10   11 2
    21   10   12 1
    22   13   14 1
    23   14   15 1
    24   14   39 1
    25   14   40 1
    26   15   19 1
    27   15   16 2
    28   16   17 1
    29   16   30 1
    30   17   18 2
    31   18   19 1
    32   18   20 1
    33   20   25 ar
    34   20   21 ar
    35   21   22 ar
    36   21   41 1
    37   22   23 ar
    38   22   42 1
    39   23   24 ar
    40   23   26 1
    41   24   25 ar
    42   24   43 1
    43   25   44 1
    44   26   27 1
    45   26   28 1
    46   26   29 1
    47   30   45 1
    48   30   46 1
    49   30   47 1
@<TRIPOS>MOLECULE
CHEMBL328455
   75    79     0     0     0
SMALL
USER_CHARGES

@<TRIPOS>ATOM
      1 C1         -0.0187    1.5258    0.0104 C.3       1 <0>        -0.1425
      2 C2          0.0021   -0.0041    0.0020 C.3       1 <0>         0.0664
      3 O1          0.6932   -0.4774    1.1597 O.3       1 <0>        -0.3667
      4 C3          0.7699   -1.9016    1.2491 C.3       1 <0>         0.0331
      5 H1          0.7819   -2.3284    0.2462 H         1 <0>         0.0486
      6 C4          2.0499   -2.2981    1.9875 C.3       1 <0>        -0.0608
      7 C5          3.2484   -1.8847    1.1728 C.ar      1 <0>        -0.0961
      8 C6          3.7840   -2.7557    0.2422 C.ar      1 <0>        -0.0824
      9 C7          4.8829   -2.3792   -0.5056 C.ar      1 <0>        -0.1515
     10 C8          5.4488   -1.1259   -0.3223 C.ar      1 <0>         0.1123
     11 C9          4.9092   -0.2536    0.6118 C.ar      1 <0>        -0.2067
     12 C10         3.8070   -0.6328    1.3533 C.ar      1 <0>        -0.0615
     13 O2          6.5301   -0.7534   -1.0564 O.3       1 <0>        -0.3147
     14 C11         7.0601    0.5515   -0.8146 C.3       1 <0>         0.0869
     15 C12         8.2468    0.7862   -1.7134 C.2       1 <0>        -0.1160
     16 C13         8.3717    1.9482   -2.3679 C.2       1 <0>        -0.0436
     17 C14         7.3428    3.0031   -2.2083 C.ar      1 <0>        -0.0471
     18 C15         6.5564    3.3810   -3.2967 C.ar      1 <0>        -0.0952
     19 C16         5.6001    4.3609   -3.1480 C.ar      1 <0>        -0.1071
     20 C17         5.4179    4.9754   -1.9094 C.ar      1 <0>        -0.0397
     21 C18         6.2040    4.5977   -0.8211 C.ar      1 <0>        -0.1074
     22 C19         7.1569    3.6141   -0.9680 C.ar      1 <0>        -0.1062
     23 C20         4.3884    6.0309   -1.7496 C.ar      1 <0>        -0.0466
     24 C21         3.5977    6.4067   -2.8341 C.ar      1 <0>        -0.1100
     25 C22         2.6413    7.3895   -2.6796 C.ar      1 <0>        -0.1178
     26 C23         2.4669    8.0017   -1.4514 C.ar      1 <0>        -0.1182
     27 C24         3.2488    7.6327   -0.3716 C.ar      1 <0>        -0.1170
     28 C25         4.2041    6.6468   -0.5128 C.ar      1 <0>        -0.1090
     29 C26         9.5388    2.1791   -3.2519 C.ar      1 <0>        -0.0391
     30 C27        10.4719    3.1655   -2.9320 C.ar      1 <0>        -0.0969
     31 C28        11.5566    3.3795   -3.7533 C.ar      1 <0>        -0.1092
     32 C29        11.7221    2.6102   -4.9048 C.ar      1 <0>        -0.0455
     33 C30        10.7894    1.6240   -5.2248 C.ar      1 <0>        -0.1085
     34 C31         9.7074    1.4061   -4.4009 C.ar      1 <0>        -0.0998
     35 C32        12.8899    2.8412   -5.7892 C.ar      1 <0>        -0.0441
     36 C33        13.8266    3.8225   -5.4692 C.ar      1 <0>        -0.1115
     37 C34        14.9113    4.0331   -6.2960 C.ar      1 <0>        -0.1179
     38 C35        15.0697    3.2727   -7.4407 C.ar      1 <0>        -0.1206
     39 C36        14.1433    2.2974   -7.7633 C.ar      1 <0>        -0.1175
     40 C37        13.0580    2.0738   -6.9407 C.ar      1 <0>        -0.1112
     41 C38        -0.4267   -2.4228    2.0025 C.2       1 <0>         0.4774
     42 O3         -0.6021   -3.6243    2.1120 O.co2     1 <0>        -0.7003
     43 O4         -1.2193   -1.6429    2.5025 O.co2     1 <0>        -0.6800
     44 H2          1.0039    1.9031    0.0027 H         1 <0>         0.0533
     45 H3         -0.5459    1.8868   -0.8726 H         1 <0>         0.0593
     46 H4         -0.5289    1.8773    0.9072 H         1 <0>         0.0621
     47 H5         -1.0205   -0.3814    0.0098 H         1 <0>         0.0454
     48 H6          0.5123   -0.3556   -0.8948 H         1 <0>         0.0294
     49 H7          2.0796   -1.7996    2.9564 H         1 <0>         0.0730
     50 H8          2.0651   -3.3781    2.1339 H         1 <0>         0.0872
     51 H9          3.3432   -3.7313    0.0999 H         1 <0>         0.1286
     52 H10         5.3014   -3.0602   -1.2319 H         1 <0>         0.1250
     53 H11         5.3479    0.7226    0.7563 H         1 <0>         0.1204
     54 H12         3.3839    0.0475    2.0775 H         1 <0>         0.1257
     55 H13         6.2941    1.2988   -1.0215 H         1 <0>         0.0743
     56 H14         7.3721    0.6297    0.2269 H         1 <0>         0.0722
     57 H15         8.9965    0.0176   -1.8297 H         1 <0>         0.1297
     58 H16         6.6977    2.9054   -4.2560 H         1 <0>         0.1251
     59 H17         4.9914    4.6538   -3.9907 H         1 <0>         0.1271
     60 H18         6.0628    5.0737    0.1381 H         1 <0>         0.1283
     61 H19         7.7628    3.3188   -0.1242 H         1 <0>         0.1258
     62 H20         3.7334    5.9300   -3.7937 H         1 <0>         0.1247
     63 H21         2.0280    7.6816   -3.5193 H         1 <0>         0.1238
     64 H22         1.7177    8.7708   -1.3353 H         1 <0>         0.1224
     65 H23         3.1086    8.1143    0.5849 H         1 <0>         0.1244
     66 H24         4.8106    6.3561    0.3321 H         1 <0>         0.1254
     67 H25        10.3436    3.7615   -2.0406 H         1 <0>         0.1256
     68 H26        12.2789    4.1434   -3.5059 H         1 <0>         0.1263
     69 H27        10.9178    1.0284   -6.1165 H         1 <0>         0.1273
     70 H28         8.9873    0.6396   -4.6466 H         1 <0>         0.1285
     71 H29        13.7035    4.4172   -4.5761 H         1 <0>         0.1253
     72 H30        15.6377    4.7932   -6.0491 H         1 <0>         0.1238
     73 H31        15.9198    3.4415   -8.0852 H         1 <0>         0.1221
     74 H32        14.2718    1.7070   -8.6584 H         1 <0>         0.1241
     75 H33        12.3379    1.3088   -7.1909 H         1 <0>         0.1259
@<TRIPOS>BOND
     1    1    2 1
     2    1   44 1
     3    1   45 1
     4    1   46 1
     5    2    3 1
     6    2   47 1
     7    2   48 1
     8    3    4 1
     9    4    5 1
    10    4    6 1
    11    4   41 1
    12    6    7 1
    13    6   49 1
    14    6   50 1
    15    7   12 ar
    16    7    8 ar
    17    8    9 ar
    18    8   51 1
    19    9   10 ar
    20    9   52 1
    21   10   11 ar
    22   10   13 1
    23   11   12 ar
    24   11   53 1
    25   12   54 1
    26   13   14 1
    27   14   15 1
    28   14   55 1
    29   14   56 1
    30   15   16 2
    31   15   57 1
    32   16   17 1
    33   16   29 1
    34   17   22 ar
    35   17   18 ar
    36   18   19 ar
    37   18   58 1
    38   19   20 ar
    39   19   59 1
    40   20   21 ar
    41   20   23 1
    42   21   22 ar
    43   21   60 1
    44   22   61 1
    45   23   28 ar
    46   23   24 ar
    47   24   25 ar
    48   24   62 1
    49   25   26 ar
    50   25   63 1
    51   26   27 ar
    52   26   64 1
    53   27   28 ar
    54   27   65 1
    55   28   66 1
    56   29   34 ar
    57   29   30 ar
    58   30   31 ar
    59   30   67 1
    60   31   32 ar
    61   31   68 1
    62   32   33 ar
    63   32   35 1
    64   33   34 ar
    65   33   69 1
    66   34   70 1
    67   35   40 ar
    68   35   36 ar
    69   36   37 ar
    70   36   71 1
    71   37   38 ar
    72   37   72 1
    73   38   39 ar
    74   38   73 1
    75   39   40 ar
    76   39   74 1
    77   40   75 1
    78   41   42 2
    79   41   43 1
@<TRIPOS>MOLECULE
CHEMBL220058
   55    58     0     0     0
SMALL
USER_CHARGES

@<TRIPOS>ATOM
      1 C1          1.1398    2.0947   -0.1931 C.ar      1 <0>        -0.1243
      2 C2          2.3562    2.7163    0.0247 C.ar      1 <0>        -0.1160
      3 C3          3.5096    1.9651    0.1255 C.ar      1 <0>        -0.1164
      4 C4          3.4472    0.5780    0.0076 C.ar      1 <0>        -0.0351
      5 C5          2.2190   -0.0429   -0.2118 C.ar      1 <0>        -0.1162
      6 C6          1.0720    0.7181   -0.3109 C.ar      1 <0>        -0.1155
      7 C7          4.6837   -0.2347    0.1146 C.ar      1 <0>        -0.0886
      8 C8          5.9107    0.3871    0.3392 C.ar      1 <0>        -0.0691
      9 C9          7.0584   -0.3710    0.4388 C.ar      1 <0>        -0.1491
     10 C10         6.9925   -1.7523    0.3149 C.ar      1 <0>         0.1366
     11 C11         5.7718   -2.3745    0.0911 C.ar      1 <0>        -0.2061
     12 C12         4.6199   -1.6220   -0.0036 C.ar      1 <0>        -0.0671
     13 O1          8.1251   -2.4965    0.4125 O.3       1 <0>        -0.3104
     14 C13         7.9850   -3.9120    0.2754 C.3       1 <0>         0.0633
     15 C14         9.3565   -4.5760    0.4133 C.3       1 <0>        -0.1189
     16 C15         9.2065   -6.0915    0.2665 C.3       1 <0>         0.0658
     17 O2         10.4875   -6.7117    0.3953 O.3       1 <0>        -0.3152
     18 C16        10.5308   -8.0658    0.2891 C.ar      1 <0>         0.1140
     19 C17         9.3656   -8.7833    0.0598 C.ar      1 <0>        -0.2083
     20 C18         9.4148  -10.1583   -0.0473 C.ar      1 <0>        -0.0704
     21 C19        10.6228  -10.8259    0.0735 C.ar      1 <0>        -0.1079
     22 C20        11.7852  -10.1132    0.3021 C.ar      1 <0>        -0.0610
     23 C21        11.7400   -8.7335    0.4038 C.ar      1 <0>        -0.1401
     24 C22        12.9590  -11.0646    0.3947 C.3       1 <0>        -0.0828
     25 C23        12.3338  -12.4552    0.6350 C.3       1 <0>        -0.1019
     26 C24        10.9365  -12.3050   -0.0032 C.3       1 <0>        -0.0267
     27 H1         10.9580  -12.6336   -1.0423 H         1 <0>         0.0889
     28 C25         9.9025  -13.1088    0.7877 C.3       1 <0>        -0.1741
     29 C26        10.1488  -14.5816    0.5847 C.2       1 <0>         0.4910
     30 O3         10.9975  -14.9542   -0.2074 O.co2     1 <0>        -0.6953
     31 O4          9.4995  -15.4005    1.2126 O.co2     1 <0>        -0.7082
     32 H2          0.2391    2.6860   -0.2669 H         1 <0>         0.1217
     33 H3          2.4034    3.7914    0.1156 H         1 <0>         0.1234
     34 H4          4.4589    2.4515    0.2952 H         1 <0>         0.1248
     35 H5          2.1650   -1.1176   -0.3043 H         1 <0>         0.1245
     36 H6          0.1195    0.2380   -0.4805 H         1 <0>         0.1236
     37 H7          5.9627    1.4616    0.4349 H         1 <0>         0.1325
     38 H8          8.0095    0.1102    0.6128 H         1 <0>         0.1343
     39 H9          5.7236   -3.4491   -0.0051 H         1 <0>         0.1317
     40 H10         3.6700   -2.1069   -0.1736 H         1 <0>         0.1288
     41 H11         7.3194   -4.2882    1.0524 H         1 <0>         0.0681
     42 H12         7.5666   -4.1425   -0.7043 H         1 <0>         0.0679
     43 H13        10.0220   -4.1998   -0.3636 H         1 <0>         0.0863
     44 H14         9.7749   -4.3455    1.3930 H         1 <0>         0.0865
     45 H15         8.5409   -6.4677    1.0434 H         1 <0>         0.0644
     46 H16         8.7881   -6.3220   -0.7133 H         1 <0>         0.0642
     47 H17         8.4218   -8.2668   -0.0342 H         1 <0>         0.1232
     48 H18         8.5076  -10.7165   -0.2258 H         1 <0>         0.1224
     49 H19        12.6486   -8.1762    0.5774 H         1 <0>         0.1241
     50 H20        13.5241  -11.0600   -0.5374 H         1 <0>         0.0794
     51 H21        13.6033  -10.7902    1.2299 H         1 <0>         0.0709
     52 H22        12.9090  -13.2311    0.1299 H         1 <0>         0.0855
     53 H23        12.2521  -12.6642    1.7016 H         1 <0>         0.0643
     54 H24         9.9888  -12.8686    1.8474 H         1 <0>         0.0567
     55 H25         8.9014  -12.8563    0.4383 H         1 <0>         0.0557
@<TRIPOS>BOND
     1    1    6 ar
     2    1    2 ar
     3    1   32 1
     4    2    3 ar
     5    2   33 1
     6    3    4 ar
     7    3   34 1
     8    4    5 ar
     9    4    7 1
    10    5    6 ar
    11    5   35 1
    12    6   36 1
    13    7   12 ar
    14    7    8 ar
    15    8    9 ar
    16    8   37 1
    17    9   10 ar
    18    9   38 1
    19   10   11 ar
    20   10   13 1
    21   11   12 ar
    22   11   39 1
    23   12   40 1
    24   13   14 1
    25   14   15 1
    26   14   41 1
    27   14   42 1
    28   15   16 1
    29   15   43 1
    30   15   44 1
    31   16   17 1
    32   16   45 1
    33   16   46 1
    34   17   18 1
    35   18   23 ar
    36   18   19 ar
    37   19   20 ar
    38   19   47 1
    39   20   21 ar
    40   20   48 1
    41   21   26 1
    42   21   22 ar
    43   22   23 ar
    44   22   24 1
    45   23   49 1
    46   24   25 1
    47   24   50 1
    48   24   51 1
    49   25   26 1
    50   25   52 1
    51   25   53 1
    52   26   27 1
    53   26   28 1
    54   28   29 1
    55   28   54 1
    56   28   55 1
    57   29   30 2
    58   29   31 1
@<TRIPOS>MOLECULE
CHEMBL396496
   50    52     0     0     0
SMALL
USER_CHARGES

@<TRIPOS>ATOM
      1 C1          0.2753    1.1890   -0.1587 C.3       1 <0>        -0.0967
      2 C2          0.1609   -0.3095   -0.0466 C.ar      1 <0>        -0.1218
      3 C3          0.2118   -1.0926   -1.1830 C.ar      1 <0>        -0.0670
      4 C4          0.1063   -2.4737   -1.0794 C.ar      1 <0>        -0.1371
      5 C5         -0.0504   -3.0658    0.1677 C.ar      1 <0>        -0.1072
      6 C6         -0.1011   -2.2810    1.3025 C.ar      1 <0>        -0.1346
      7 C7          0.0101   -0.9020    1.1983 C.ar      1 <0>         0.1752
      8 O1         -0.0339   -0.1302    2.3173 O.3       1 <0>        -0.2962
      9 C8         -0.0637   -0.8104    3.5737 C.3       1 <0>         0.0285
     10 C9          1.1832   -1.6868    3.7089 C.3       1 <0>        -0.1738
     11 C10        -0.0914    0.2155    4.7085 C.3       1 <0>        -0.1151
     12 C11        -1.2958   -1.6749    3.6479 C.2       1 <0>         0.4813
     13 O2         -2.0761   -1.7058    2.7116 O.co2     1 <0>        -0.6690
     14 O3         -1.5123   -2.3435    4.6442 O.co2     1 <0>        -0.6843
     15 S1          0.1706   -3.4741   -2.5285 S.3       1 <0>        -0.0949
     16 C12        -0.0049   -5.1671   -1.9011 C.3       1 <0>        -0.0350
     17 C13         0.0341   -6.1366   -3.0542 C.2       1 <0>         0.0824
     18 N1          1.0746   -6.7394   -3.5843 N.2       1 <0>        -0.5053
     19 C14         0.8633   -7.5566   -4.6004 C.2       1 <0>         0.2952
     20 N2         -0.3784   -7.7134   -5.0155 N.2       1 <0>        -0.4710
     21 S2         -1.2426   -6.7213   -3.9767 S.3       1 <0>         0.3294
     22 C15         1.9858   -8.2738   -5.2531 C.ar      1 <0>        -0.0409
     23 C16         3.2896   -8.0961   -4.7933 C.ar      1 <0>        -0.0323
     24 C17         4.3311   -8.7642   -5.4022 C.ar      1 <0>        -0.1274
     25 C18         4.0820   -9.6131   -6.4721 C.ar      1 <0>         0.1220
     26 C19         2.7844   -9.7921   -6.9324 C.ar      1 <0>        -0.1966
     27 C20         1.7382   -9.1312   -6.3239 C.ar      1 <0>        -0.0351
     28 O4          5.1102  -10.2697   -7.0703 O.3       1 <0>        -0.3085
     29 C21         4.7827  -11.1273   -8.1655 C.3       1 <0>         0.6037
     30 F1          4.1747  -10.3783   -9.1787 F         1 <0>        -0.1635
     31 F2          5.9501  -11.7191   -8.6595 F         1 <0>        -0.1304
     32 F3          3.9027  -12.1240   -7.7303 F         1 <0>        -0.1636
     33 H1          1.3242    1.4790   -0.0960 H         1 <0>         0.0617
     34 H2         -0.1350    1.5142   -1.1147 H         1 <0>         0.0592
     35 H3         -0.2804    1.6576    0.6535 H         1 <0>         0.0701
     36 H4          0.3333   -0.6313   -2.1520 H         1 <0>         0.1246
     37 H5         -0.1329   -4.1396    0.2495 H         1 <0>         0.1145
     38 H6         -0.2229   -2.7410    2.2720 H         1 <0>         0.1447
     39 H7          2.0591   -1.0533    3.8487 H         1 <0>         0.0520
     40 H8          1.0715   -2.3473    4.5687 H         1 <0>         0.0757
     41 H9          1.3072   -2.2840    2.8056 H         1 <0>         0.0661
     42 H10        -0.9332    0.8931    4.5652 H         1 <0>         0.0573
     43 H11        -0.1989   -0.3007    5.6625 H         1 <0>         0.0787
     44 H12         0.8379    0.7851    4.7062 H         1 <0>         0.0511
     45 H13         0.8123   -5.3865   -1.2141 H         1 <0>         0.1252
     46 H14        -0.9559   -5.2637   -1.3773 H         1 <0>         0.1225
     47 H15         3.4840   -7.4356   -3.9613 H         1 <0>         0.1544
     48 H16         5.3415   -8.6266   -5.0466 H         1 <0>         0.1475
     49 H17         2.5937  -10.4532   -7.7649 H         1 <0>         0.1397
     50 H18         0.7284   -9.2746   -6.6792 H         1 <0>         0.1447
@<TRIPOS>BOND
     1    1    2 1
     2    1   33 1
     3    1   34 1
     4    1   35 1
     5    2    7 ar
     6    2    3 ar
     7    3    4 ar
     8    3   36 1
     9    4    5 ar
    10    4   15 1
    11    5    6 ar
    12    5   37 1
    13    6    7 ar
    14    6   38 1
    15    7    8 1
    16    8    9 1
    17    9   10 1
    18    9   11 1
    19    9   12 1
    20   10   39 1
    21   10   40 1
    22   10   41 1
    23   11   42 1
    24   11   43 1
    25   11   44 1
    26   12   13 2
    27   12   14 1
    28   15   16 1
    29   16   17 1
    30   16   45 1
    31   16   46 1
    32   17   21 1
    33   17   18 2
    34   18   19 1
    35   19   20 2
    36   19   22 1
    37   20   21 1
    38   22   27 ar
    39   22   23 ar
    40   23   24 ar
    41   23   47 1
    42   24   25 ar
    43   24   48 1
    44   25   26 ar
    45   25   28 1
    46   26   27 ar
    47   26   49 1
    48   27   50 1
    49   28   29 1
    50   29   30 1
    51   29   31 1
    52   29   32 1
@<TRIPOS>MOLECULE
CHEMBL1080349
   65    68     0     0     0
SMALL
USER_CHARGES

@<TRIPOS>ATOM
      1 C1         -2.4857    1.0465   -1.0661 C.3       1 <0>        -0.1054
      2 C2         -2.1252   -0.4036   -0.8702 C.ar      1 <0>        -0.0850
      3 C3         -1.8920   -1.2116   -1.9663 C.ar      1 <0>        -0.1083
      4 C4         -1.5598   -2.5458   -1.7860 C.ar      1 <0>         0.0755
      5 C5         -1.4616   -3.0692   -0.5051 C.ar      1 <0>        -0.1697
      6 C6         -1.6947   -2.2614    0.5907 C.ar      1 <0>        -0.1754
      7 C7         -2.0218   -0.9255    0.4105 C.ar      1 <0>         0.1104
      8 O1         -2.2458   -0.1288    1.4895 O.3       1 <0>        -0.2774
      9 C8         -2.1220   -0.7327    2.7786 C.3       1 <0>        -0.0069
     10 C9         -2.4038    0.2952    3.8440 C.2       1 <0>         0.5012
     11 O2         -2.6846    1.4390    3.5286 O.co2     1 <0>        -0.6704
     12 O3         -2.3510   -0.0169    5.0214 O.co2     1 <0>        -0.6883
     13 O4         -1.3308   -3.3412   -2.8649 O.3       1 <0>        -0.3105
     14 C10        -0.9931   -4.7053   -2.6052 C.3       1 <0>         0.1518
     15 C11        -0.7769   -5.4265   -3.9107 C.2       1 <0>         0.0474
     16 N1          0.3374   -5.5648   -4.5802 N.2       1 <0>        -0.4826
     17 C12         0.3818   -6.2300   -5.7237 C.2       1 <0>         0.1295
     18 C13        -0.8264   -6.7675   -6.1615 C.2       1 <0>        -0.1664
     19 S1         -1.9118   -6.2476   -4.8424 S.3       1 <0>         0.1702
     20 C14        -1.1251   -7.5533   -7.3752 C.ar      1 <0>        -0.0160
     21 C15        -0.3155   -8.6363   -7.7254 C.ar      1 <0>        -0.0490
     22 C16        -0.5981   -9.3672   -8.8595 C.ar      1 <0>        -0.1182
     23 C17        -1.6857   -9.0282   -9.6533 C.ar      1 <0>         0.1130
     24 C18        -2.4933   -7.9524   -9.3090 C.ar      1 <0>        -0.1868
     25 C19        -2.2216   -7.2195   -8.1736 C.ar      1 <0>        -0.0585
     26 O5         -1.9604   -9.7512  -10.7707 O.3       1 <0>        -0.3091
     27 C20        -3.0940   -9.3483  -11.5418 C.3       1 <0>         0.6037
     28 F1         -2.9157   -8.0318  -11.9803 F         1 <0>        -0.1637
     29 F2         -3.2300  -10.1939  -12.6480 F         1 <0>        -0.1303
     30 F3         -4.2462   -9.4247  -10.7520 F         1 <0>        -0.1633
     31 C21         1.6386   -6.3924   -6.4906 C.ar      1 <0>        -0.0614
     32 C22         1.6348   -6.2471   -7.8780 C.ar      1 <0>        -0.0510
     33 C23         2.8067   -6.3991   -8.5887 C.ar      1 <0>        -0.2105
     34 C24         3.9893   -6.6968   -7.9252 C.ar      1 <0>         0.1431
     35 C25         3.9968   -6.8426   -6.5446 C.ar      1 <0>        -0.1547
     36 C26         2.8299   -6.6854   -5.8267 C.ar      1 <0>        -0.0428
     37 O6          5.1423   -6.8463   -8.6289 O.3       1 <0>        -0.3090
     38 C27         5.0889   -6.5653  -10.0290 C.3       1 <0>         0.0754
     39 C28         6.4801   -6.1619  -10.5216 C.3       1 <0>        -0.1499
     40 C29         4.6230   -7.8129  -10.7822 C.3       1 <0>        -0.1806
     41 H1         -1.5762    1.6468   -1.0916 H         1 <0>         0.0695
     42 H2         -3.0245    1.1631   -2.0064 H         1 <0>         0.0612
     43 H3         -3.1171    1.3785   -0.2420 H         1 <0>         0.0809
     44 H4         -1.9689   -0.8042   -2.9636 H         1 <0>         0.1324
     45 H5         -1.2032   -4.1084   -0.3647 H         1 <0>         0.1250
     46 H6         -1.6189   -2.6691    1.5879 H         1 <0>         0.1323
     47 H7         -2.8357   -1.5518    2.8662 H         1 <0>         0.0579
     48 H8         -1.1100   -1.1177    2.9039 H         1 <0>         0.0580
     49 H9         -0.0799   -4.7469   -2.0116 H         1 <0>         0.0964
     50 H10        -1.8052   -5.1825   -2.0566 H         1 <0>         0.0894
     51 H11         0.5309   -8.9004   -7.1087 H         1 <0>         0.1421
     52 H12         0.0277  -10.2045   -9.1312 H         1 <0>         0.1446
     53 H13        -3.3383   -7.6922   -9.9293 H         1 <0>         0.1391
     54 H14        -2.8528   -6.3856   -7.9041 H         1 <0>         0.1382
     55 H15         0.7151   -6.0162   -8.3948 H         1 <0>         0.1249
     56 H16         2.8045   -6.2867   -9.6628 H         1 <0>         0.1324
     57 H17         4.9184   -7.0749   -6.0318 H         1 <0>         0.1339
     58 H18         2.8374   -6.7943   -4.7522 H         1 <0>         0.1336
     59 H19         4.3889   -5.7494  -10.2094 H         1 <0>         0.0746
     60 H20         7.1801   -6.9778  -10.3412 H         1 <0>         0.0673
     61 H21         6.4394   -5.9476  -11.5896 H         1 <0>         0.0770
     62 H22         6.8120   -5.2731   -9.9851 H         1 <0>         0.0657
     63 H23         4.5823   -7.5986  -11.8501 H         1 <0>         0.0720
     64 H24         5.3230   -8.6287  -10.6018 H         1 <0>         0.0678
     65 H25         3.6319   -8.1002  -10.4312 H         1 <0>         0.0638
@<TRIPOS>BOND
     1    1    2 1
     2    1   41 1
     3    1   42 1
     4    1   43 1
     5    2    7 ar
     6    2    3 ar
     7    3    4 ar
     8    3   44 1
     9    4    5 ar
    10    4   13 1
    11    5    6 ar
    12    5   45 1
    13    6    7 ar
    14    6   46 1
    15    7    8 1
    16    8    9 1
    17    9   10 1
    18    9   47 1
    19    9   48 1
    20   10   11 2
    21   10   12 1
    22   13   14 1
    23   14   15 1
    24   14   49 1
    25   14   50 1
    26   15   19 1
    27   15   16 2
    28   16   17 1
    29   17   18 2
    30   17   31 1
    31   18   19 1
    32   18   20 1
    33   20   25 ar
    34   20   21 ar
    35   21   22 ar
    36   21   51 1
    37   22   23 ar
    38   22   52 1
    39   23   24 ar
    40   23   26 1
    41   24   25 ar
    42   24   53 1
    43   25   54 1
    44   26   27 1
    45   27   28 1
    46   27   29 1
    47   27   30 1
    48   31   36 ar
    49   31   32 ar
    50   32   33 ar
    51   32   55 1
    52   33   34 ar
    53   33   56 1
    54   34   35 ar
    55   34   37 1
    56   35   36 ar
    57   35   57 1
    58   36   58 1
    59   37   38 1
    60   38   39 1
    61   38   40 1
    62   38   59 1
    63   39   60 1
    64   39   61 1
    65   39   62 1
    66   40   63 1
    67   40   64 1
    68   40   65 1
@<TRIPOS>MOLECULE
CHEMBL234168
   43    46     0     0     0
SMALL
USER_CHARGES

@<TRIPOS>ATOM
      1 C1         -0.0169    1.3914    0.0097 C.ar      1 <0>        -0.0885
      2 C2          1.1702    2.0944    0.0021 C.ar      1 <0>        -0.0697
      3 C3          2.3776    1.4189   -0.0130 C.ar      1 <0>        -0.1689
      4 C4          2.4033    0.0357   -0.0212 C.ar      1 <0>        -0.0678
      5 C5          1.2234   -0.6793   -0.0142 C.ar      1 <0>        -0.0840
      6 C6          0.0021   -0.0041    0.0020 C.ar      1 <0>        -0.0037
      7 C7         -1.2662   -0.7638    0.0105 C.2       1 <0>         0.0987
      8 C8         -1.3901   -2.1189    0.0100 C.2       1 <0>        -0.2330
      9 C9         -2.7579   -2.4288    0.0197 C.2       1 <0>         0.1107
     10 N1         -3.4305   -1.3118    0.0259 N.2       1 <0>        -0.2995
     11 O1         -2.5059   -0.2393    0.0261 O.3       1 <0>        -0.0659
     12 C10        -3.3489   -3.8151    0.0218 C.3       1 <0>         0.1326
     13 O2         -2.2964   -4.7817    0.0122 O.3       1 <0>        -0.3078
     14 C11        -2.6611   -6.0911    0.0127 C.ar      1 <0>         0.1418
     15 C12        -4.0109   -6.4316    0.0165 C.ar      1 <0>        -0.2240
     16 C13        -4.3923   -7.7439    0.0171 C.ar      1 <0>        -0.0156
     17 C14        -3.4236   -8.7468    0.0138 C.ar      1 <0>        -0.1364
     18 C15        -2.0591   -8.4123    0.0099 C.ar      1 <0>         0.0882
     19 C16        -1.6879   -7.0739    0.0037 C.ar      1 <0>        -0.1446
     20 O3         -1.3636   -9.5672    0.0074 O.3       1 <0>        -0.1951
     21 C17        -2.1928  -10.6263    0.0093 C.2       1 <0>        -0.0313
     22 C18        -3.4674  -10.2146    0.0133 C.2       1 <0>        -0.0975
     23 C19        -4.6990  -11.0831    0.0169 C.3       1 <0>        -0.1290
     24 C20        -5.1855  -11.2708   -1.3970 C.2       1 <0>         0.4952
     25 O4         -4.5877  -10.7478   -2.3219 O.co2     1 <0>        -0.6857
     26 O5         -6.1770  -11.9457   -1.6159 O.co2     1 <0>        -0.7020
     27 C21         3.6704    2.1934   -0.0212 C.3       1 <0>         0.5083
     28 F1          4.0830    2.4259    1.2952 F         1 <0>        -0.1742
     29 F2          4.6510    1.4566   -0.6941 F         1 <0>        -0.1744
     30 F3          3.4772    3.4164   -0.6723 F         1 <0>        -0.1752
     31 H1         -0.9586    1.9198    0.0260 H         1 <0>         0.1465
     32 H2          1.1570    3.1743    0.0077 H         1 <0>         0.1447
     33 H3          3.3491   -0.4856   -0.0333 H         1 <0>         0.1469
     34 H4          1.2448   -1.7590   -0.0213 H         1 <0>         0.1479
     35 H5         -0.5779   -2.8307    0.0029 H         1 <0>         0.1712
     36 H6         -3.9574   -3.9494    0.9161 H         1 <0>         0.0982
     37 H7         -3.9708   -3.9463   -0.8638 H         1 <0>         0.0991
     38 H8         -4.7608   -5.6544    0.0194 H         1 <0>         0.1308
     39 H9         -5.4406   -8.0034    0.0204 H         1 <0>         0.1304
     40 H10        -0.6428   -6.8015   -0.0041 H         1 <0>         0.1360
     41 H11        -1.8767  -11.6590    0.0076 H         1 <0>         0.2028
     42 H12        -4.4577  -12.0538    0.4500 H         1 <0>         0.0726
     43 H13        -5.4791  -10.6049    0.6092 H         1 <0>         0.0709
@<TRIPOS>BOND
     1    1    6 ar
     2    1    2 ar
     3    1   31 1
     4    2    3 ar
     5    2   32 1
     6    3    4 ar
     7    3   27 1
     8    4    5 ar
     9    4   33 1
    10    5    6 ar
    11    5   34 1
    12    6    7 1
    13    7   11 1
    14    7    8 2
    15    8    9 1
    16    8   35 1
    17    9   10 2
    18    9   12 1
    19   10   11 1
    20   12   13 1
    21   12   36 1
    22   12   37 1
    23   13   14 1
    24   14   19 ar
    25   14   15 ar
    26   15   16 ar
    27   15   38 1
    28   16   17 ar
    29   16   39 1
    30   17   22 1
    31   17   18 ar
    32   18   19 ar
    33   18   20 1
    34   19   40 1
    35   20   21 1
    36   21   22 2
    37   21   41 1
    38   22   23 1
    39   23   24 1
    40   23   42 1
    41   23   43 1
    42   24   25 2
    43   24   26 1
    44   27   28 1
    45   27   29 1
    46   27   30 1
@<TRIPOS>MOLECULE
CHEMBL213877
   51    54     0     0     0
SMALL
USER_CHARGES

@<TRIPOS>ATOM
      1 C1          0.9206   -0.3643    0.1294 C.ar      1 <0>        -0.1094
      2 C2          2.0794    0.3472    0.3663 C.ar      1 <0>        -0.0656
      3 C3          2.4415    1.3882   -0.4863 C.ar      1 <0>        -0.0698
      4 C4          1.6293    1.7052   -1.5753 C.ar      1 <0>         0.0068
      5 C5          0.4720    0.9859   -1.8021 C.ar      1 <0>        -0.1084
      6 C6          0.1187   -0.0461   -0.9518 C.ar      1 <0>         0.0194
      7 C7         -1.1451   -0.8272   -1.2044 C.3       1 <0>        -0.1646
      8 C8         -2.2933   -0.1727   -0.4802 C.2       1 <0>         0.4987
      9 O1         -2.1030    0.8346    0.1798 O.co2     1 <0>        -0.6840
     10 O2         -3.4125   -0.6506   -0.5544 O.co2     1 <0>        -0.6966
     11 Cl1         2.0717    3.0008   -2.6428 Cl        1 <0>        -0.0661
     12 C9          3.6852    2.1565   -0.2366 C.2       1 <0>         0.1975
     13 C10         5.0141    1.6001    0.0592 C.2       1 <0>        -0.2828
     14 C11         5.8582    2.6598    0.2169 C.2       1 <0>         0.1418
     15 O3          5.1572    3.7832    0.0431 O.3       1 <0>        -0.0754
     16 N1          3.8112    3.4594   -0.2429 N.2       1 <0>        -0.2785
     17 C12         7.3292    2.5773    0.5333 C.3       1 <0>        -0.1090
     18 C13         8.0541    3.8824    0.8683 C.3       1 <0>        -0.1585
     19 C14         8.3040    3.1911   -0.4736 C.3       1 <0>        -0.1520
     20 C15         5.3655    0.1738    0.1653 C.2       1 <0>         0.6025
     21 O4          5.6337   -0.4625   -0.8359 O.2       1 <0>        -0.5166
     22 N2          5.3900   -0.4263    1.3718 N.am      1 <0>        -0.7222
     23 C16         5.7396   -1.8451    1.4773 C.3       1 <0>         0.1223
     24 C17         5.6928   -2.2741    2.9452 C.3       1 <0>         0.0431
     25 O5          4.3508   -2.1786    3.4268 O.3       1 <0>        -0.2939
     26 C18         4.1341   -2.5262    4.7231 C.ar      1 <0>         0.1461
     27 C19         5.1922   -2.9448    5.5160 C.ar      1 <0>        -0.1881
     28 C20         4.9702   -3.2978    6.8331 C.ar      1 <0>        -0.0665
     29 C21         3.6931   -3.2340    7.3620 C.ar      1 <0>        -0.0630
     30 C22         2.6357   -2.8168    6.5735 C.ar      1 <0>        -0.0633
     31 C23         2.8545   -2.4572    5.2565 C.ar      1 <0>        -0.0612
     32 Cl2         1.5289   -1.9269    4.2690 Cl        1 <0>        -0.0245
     33 Cl3         3.4172   -3.6787    9.0173 Cl        1 <0>        -0.0601
     34 H1          0.6417   -1.1741    0.7872 H         1 <0>         0.1287
     35 H2          2.7042    0.0977    1.2111 H         1 <0>         0.1277
     36 H3         -0.1581    1.2301   -2.6445 H         1 <0>         0.1353
     37 H4         -1.3533   -0.8454   -2.2742 H         1 <0>         0.0762
     38 H5         -1.0205   -1.8473   -0.8410 H         1 <0>         0.0767
     39 H6          7.6476    1.6757    1.0567 H         1 <0>         0.1379
     40 H7          7.4670    4.8007    0.8597 H         1 <0>         0.1080
     41 H8          8.8496    3.8396    1.6123 H         1 <0>         0.1091
     42 H9          9.2639    2.6936   -0.6124 H         1 <0>         0.1106
     43 H10         7.8813    3.6546   -1.3650 H         1 <0>         0.1042
     44 H11         5.1762    0.0812    2.1703 H         1 <0>         0.4056
     45 H12         5.0283   -2.4382    0.9026 H         1 <0>         0.0872
     46 H13         6.7443   -2.0019    1.0848 H         1 <0>         0.0949
     47 H14         6.0382   -3.3041    3.0339 H         1 <0>         0.0861
     48 H15         6.3377   -1.6226    3.5349 H         1 <0>         0.0748
     49 H16         6.1892   -2.9952    5.1039 H         1 <0>         0.1457
     50 H17         5.7941   -3.6241    7.4504 H         1 <0>         0.1415
     51 H18         1.6396   -2.7680    6.9880 H         1 <0>         0.1514
@<TRIPOS>BOND
     1    1    6 ar
     2    1    2 ar
     3    1   34 1
     4    2    3 ar
     5    2   35 1
     6    3    4 ar
     7    3   12 1
     8    4    5 ar
     9    4   11 1
    10    5    6 ar
    11    5   36 1
    12    6    7 1
    13    7    8 1
    14    7   37 1
    15    7   38 1
    16    8    9 2
    17    8   10 1
    18   12   16 2
    19   12   13 1
    20   13   14 2
    21   13   20 1
    22   14   15 1
    23   14   17 1
    24   15   16 1
    25   17   19 1
    26   17   18 1
    27   17   39 1
    28   18   19 1
    29   18   40 1
    30   18   41 1
    31   19   42 1
    32   19   43 1
    33   20   21 2
    34   20   22 am
    35   22   23 1
    36   22   44 1
    37   23   24 1
    38   23   45 1
    39   23   46 1
    40   24   25 1
    41   24   47 1
    42   24   48 1
    43   25   26 1
    44   26   31 ar
    45   26   27 ar
    46   27   28 ar
    47   27   49 1
    48   28   29 ar
    49   28   50 1
    50   29   30 ar
    51   29   33 1
    52   30   31 ar
    53   30   51 1
    54   31   32 1
@<TRIPOS>MOLECULE
CHEMBL220836
   65    68     0     0     0
SMALL
USER_CHARGES

@<TRIPOS>ATOM
      1 C1          0.2389    1.6717    0.1938 C.3       1 <0>        -0.1521
      2 C2          0.5520    0.1799    0.0618 C.3       1 <0>        -0.1169
      3 C3         -0.7226   -0.6319    0.3011 C.3       1 <0>        -0.0717
      4 C4         -0.4142   -2.1013    0.1710 C.ar      1 <0>        -0.0747
      5 C5         -0.6179   -2.7457   -1.0338 C.ar      1 <0>        -0.1052
      6 C6         -0.3340   -4.0981   -1.1535 C.ar      1 <0>         0.0878
      7 C7          0.1544   -4.8035   -0.0631 C.ar      1 <0>        -0.1562
      8 C8          0.3580   -4.1591    1.1412 C.ar      1 <0>        -0.1678
      9 C9          0.0794   -2.8052    1.2592 C.ar      1 <0>         0.1057
     10 O1          0.2855   -2.1693    2.4434 O.3       1 <0>        -0.3057
     11 C10         0.7957   -2.9559    3.5219 C.3       1 <0>         0.0636
     12 C11         0.9608   -2.0750    4.7619 C.3       1 <0>        -0.1176
     13 C12         1.5070   -2.9172    5.9166 C.3       1 <0>         0.0658
     14 O2          1.6612   -2.0945    7.0748 O.3       1 <0>        -0.3151
     15 C13         2.1401   -2.6926    8.1972 C.ar      1 <0>         0.1143
     16 C14         2.4608   -4.0425    8.1833 C.ar      1 <0>        -0.2086
     17 C15         2.9468   -4.6454    9.3255 C.ar      1 <0>        -0.0703
     18 C16         3.1156   -3.9088   10.4868 C.ar      1 <0>        -0.1087
     19 C17         2.7966   -2.5637   10.5032 C.ar      1 <0>        -0.0605
     20 C18         2.3149   -1.9547    9.3573 C.ar      1 <0>        -0.1404
     21 C19         3.0680   -1.9902   11.8776 C.3       1 <0>        -0.0839
     22 C20         3.1696   -3.2137   12.8130 C.3       1 <0>        -0.0992
     23 C21         3.6232   -4.3306   11.8493 C.3       1 <0>        -0.0256
     24 H1          4.7107   -4.4048   11.8414 H         1 <0>         0.0861
     25 C22         3.0018   -5.6681   12.2566 C.3       1 <0>        -0.1741
     26 C23         3.6014   -6.1238   13.5620 C.2       1 <0>         0.4907
     27 O3          4.4418   -5.4383   14.1190 O.co2     1 <0>        -0.6946
     28 O4          3.2461   -7.1779   14.0610 O.co2     1 <0>        -0.7084
     29 O5         -0.5349   -4.7327   -2.3391 O.3       1 <0>        -0.2602
     30 C24        -0.3504   -6.0782   -2.3818 C.ar      1 <0>         0.0858
     31 C25        -1.3126   -6.9287   -1.8560 C.ar      1 <0>        -0.1338
     32 C26        -1.1225   -8.2961   -1.9006 C.ar      1 <0>        -0.1052
     33 C27         0.0254   -8.8177   -2.4682 C.ar      1 <0>        -0.1196
     34 C28         0.9858   -7.9725   -2.9928 C.ar      1 <0>        -0.1053
     35 C29         0.7979   -6.6044   -2.9563 C.ar      1 <0>        -0.1240
     36 H2          1.1470    2.2500    0.0233 H         1 <0>         0.0541
     37 H3         -0.5138    1.9515   -0.5432 H         1 <0>         0.0529
     38 H4         -0.1395    1.8762    1.1954 H         1 <0>         0.0557
     39 H5          0.9304   -0.0247   -0.9398 H         1 <0>         0.0602
     40 H6          1.3048   -0.1000    0.7988 H         1 <0>         0.0654
     41 H7         -1.1010   -0.4273    1.3026 H         1 <0>         0.0799
     42 H8         -1.4754   -0.3520   -0.4359 H         1 <0>         0.0719
     43 H9         -0.9984   -2.1967   -1.8824 H         1 <0>         0.1385
     44 H10         0.3752   -5.8566   -0.1561 H         1 <0>         0.1299
     45 H11         0.7382   -4.7081    1.9900 H         1 <0>         0.1325
     46 H12         0.1002   -3.7659    3.7415 H         1 <0>         0.0655
     47 H13         1.7627   -3.3733    3.2414 H         1 <0>         0.0655
     48 H14         1.6562   -1.2650    4.5423 H         1 <0>         0.0860
     49 H15        -0.0063   -1.6576    5.0424 H         1 <0>         0.0860
     50 H16         0.8115   -3.7272    6.1363 H         1 <0>         0.0639
     51 H17         2.4741   -3.3346    5.6361 H         1 <0>         0.0636
     52 H18         2.3300   -4.6203    7.2803 H         1 <0>         0.1230
     53 H19         3.1964   -5.6961    9.3143 H         1 <0>         0.1222
     54 H20         2.0703   -0.9028    9.3686 H         1 <0>         0.1240
     55 H21         4.0061   -1.4353   11.8774 H         1 <0>         0.0791
     56 H22         2.2460   -1.3448   12.1872 H         1 <0>         0.0706
     57 H23         3.9151   -3.0462   13.5903 H         1 <0>         0.0875
     58 H24         2.1991   -3.4492   13.2496 H         1 <0>         0.0636
     59 H25         1.9248   -5.5476   12.3739 H         1 <0>         0.0569
     60 H26         3.2023   -6.4118   11.4854 H         1 <0>         0.0552
     61 H27        -2.2090   -6.5218   -1.4120 H         1 <0>         0.1300
     62 H28        -1.8711   -8.9585   -1.4916 H         1 <0>         0.1303
     63 H29         0.1724   -9.8871   -2.5014 H         1 <0>         0.1285
     64 H30         1.8817   -8.3824   -3.4352 H         1 <0>         0.1312
     65 H31         1.5460   -5.9448   -3.3705 H         1 <0>         0.1317
@<TRIPOS>BOND
     1    1    2 1
     2    1   36 1
     3    1   37 1
     4    1   38 1
     5    2    3 1
     6    2   39 1
     7    2   40 1
     8    3    4 1
     9    3   41 1
    10    3   42 1
    11    4    9 ar
    12    4    5 ar
    13    5    6 ar
    14    5   43 1
    15    6    7 ar
    16    6   29 1
    17    7    8 ar
    18    7   44 1
    19    8    9 ar
    20    8   45 1
    21    9   10 1
    22   10   11 1
    23   11   12 1
    24   11   46 1
    25   11   47 1
    26   12   13 1
    27   12   48 1
    28   12   49 1
    29   13   14 1
    30   13   50 1
    31   13   51 1
    32   14   15 1
    33   15   20 ar
    34   15   16 ar
    35   16   17 ar
    36   16   52 1
    37   17   18 ar
    38   17   53 1
    39   18   23 1
    40   18   19 ar
    41   19   20 ar
    42   19   21 1
    43   20   54 1
    44   21   22 1
    45   21   55 1
    46   21   56 1
    47   22   23 1
    48   22   57 1
    49   22   58 1
    50   23   24 1
    51   23   25 1
    52   25   26 1
    53   25   59 1
    54   25   60 1
    55   26   27 2
    56   26   28 1
    57   29   30 1
    58   30   35 ar
    59   30   31 ar
    60   31   32 ar
    61   31   61 1
    62   32   33 ar
    63   32   62 1
    64   33   34 ar
    65   33   63 1
    66   34   35 ar
    67   34   64 1
    68   35   65 1
@<TRIPOS>MOLECULE
CHEMBL1081963
   54    56     0     0     0
SMALL
USER_CHARGES

@<TRIPOS>ATOM
      1 C1         -0.0184    1.5028    0.0103 C.3       1 <0>        -0.1055
      2 C2          0.0021   -0.0041    0.0020 C.ar      1 <0>        -0.0851
      3 C3          0.0058   -0.6883   -1.1982 C.ar      1 <0>        -0.1107
      4 C4          0.0251   -2.0749   -1.2058 C.ar      1 <0>         0.0749
      5 C5          0.0406   -2.7749   -0.0083 C.ar      1 <0>        -0.1707
      6 C6          0.0369   -2.0909    1.1915 C.ar      1 <0>        -0.1760
      7 C7          0.0229   -0.7038    1.1991 C.ar      1 <0>         0.1093
      8 O1          0.0250   -0.0303    2.3804 O.3       1 <0>        -0.2775
      9 C8          0.0470   -0.8150    3.5745 C.3       1 <0>        -0.0066
     10 C9          0.0459    0.0965    4.7746 C.2       1 <0>         0.5012
     11 O2          0.0280    1.3060    4.6215 O.co2     1 <0>        -0.6703
     12 O3          0.0630   -0.3755    5.8986 O.co2     1 <0>        -0.6881
     13 O4          0.0283   -2.7483   -2.3872 O.3       1 <0>        -0.3120
     14 C10         0.0485   -4.1756   -2.3202 C.3       1 <0>         0.0826
     15 C11         0.0491   -4.7440   -3.7159 C.2       1 <0>        -0.0805
     16 C12         0.8844   -5.7479   -4.0322 C.2       1 <0>         0.0098
     17 C13         1.7740   -6.2777   -3.0429 C.1       1 <0>        -0.0952
     18 C14         2.5033   -6.7120   -2.2319 C.1       1 <0>        -0.1217
     19 C15         3.3929   -7.2418   -1.2427 C.ar      1 <0>         0.0499
     20 C16         3.3911   -6.7211    0.0543 C.ar      1 <0>        -0.0944
     21 C17         4.2503   -7.2368    1.0018 C.ar      1 <0>        -0.0647
     22 C18         5.1131   -8.2669    0.6709 C.ar      1 <0>        -0.1762
     23 C19         5.1206   -8.7875   -0.6113 C.ar      1 <0>        -0.0686
     24 C20         4.2630   -8.2860   -1.5679 C.ar      1 <0>        -0.0970
     25 C21         6.0496   -8.8241    1.7118 C.3       1 <0>         0.5082
     26 F1          5.4232   -9.8773    2.3867 F         1 <0>        -0.1751
     27 F2          7.2114   -9.2940    1.0901 F         1 <0>        -0.1768
     28 F3          6.3836   -7.8182    2.6249 F         1 <0>        -0.1735
     29 C22         0.8850   -6.3076   -5.4067 C.ar      1 <0>        -0.0280
     30 C23        -0.2432   -6.9638   -5.8947 C.ar      1 <0>        -0.0961
     31 C24        -0.2378   -7.4821   -7.1737 C.ar      1 <0>        -0.0889
     32 C25         0.8860   -7.3514   -7.9711 C.ar      1 <0>        -0.0872
     33 C26         2.0094   -6.7009   -7.4908 C.ar      1 <0>        -0.0885
     34 C27         2.0118   -6.1737   -6.2155 C.ar      1 <0>        -0.0926
     35 Br1         0.8867   -8.0646   -9.7225 Br        1 <0>        -0.0496
     36 H1          1.0042    1.8801    0.0026 H         1 <0>         0.0693
     37 H2         -0.5455    1.8639   -0.8728 H         1 <0>         0.0614
     38 H3         -0.5286    1.8543    0.9071 H         1 <0>         0.0807
     39 H4         -0.0067   -0.1432   -2.1305 H         1 <0>         0.1327
     40 H5          0.0553   -3.8548   -0.0143 H         1 <0>         0.1220
     41 H6          0.0483   -2.6360    2.1238 H         1 <0>         0.1311
     42 H7         -0.8341   -1.4560    3.6044 H         1 <0>         0.0574
     43 H8          0.9456   -1.4317    3.5875 H         1 <0>         0.0575
     44 H9          0.9459   -4.5020   -1.7946 H         1 <0>         0.0709
     45 H10        -0.8339   -4.5268   -1.7853 H         1 <0>         0.0802
     46 H11        -0.6218   -4.3444   -4.4620 H         1 <0>         0.1433
     47 H12         2.7187   -5.9168    0.3138 H         1 <0>         0.1419
     48 H13         4.2501   -6.8355    2.0045 H         1 <0>         0.1453
     49 H14         5.7970   -9.5911   -0.8624 H         1 <0>         0.1421
     50 H15         4.2668   -8.6963   -2.5669 H         1 <0>         0.1397
     51 H16        -1.1203   -7.0669   -5.2730 H         1 <0>         0.1371
     52 H17        -1.1118   -7.9908   -7.5529 H         1 <0>         0.1370
     53 H18         2.8840   -6.6022   -8.1166 H         1 <0>         0.1365
     54 H19         2.8871   -5.6621   -5.8433 H         1 <0>         0.1350
@<TRIPOS>BOND
     1    1    2 1
     2    1   36 1
     3    1   37 1
     4    1   38 1
     5    2    7 ar
     6    2    3 ar
     7    3    4 ar
     8    3   39 1
     9    4    5 ar
    10    4   13 1
    11    5    6 ar
    12    5   40 1
    13    6    7 ar
    14    6   41 1
    15    7    8 1
    16    8    9 1
    17    9   10 1
    18    9   42 1
    19    9   43 1
    20   10   11 2
    21   10   12 1
    22   13   14 1
    23   14   15 1
    24   14   44 1
    25   14   45 1
    26   15   16 2
    27   15   46 1
    28   16   17 1
    29   16   29 1
    30   17   18 3
    31   18   19 1
    32   19   24 ar
    33   19   20 ar
    34   20   21 ar
    35   20   47 1
    36   21   22 ar
    37   21   48 1
    38   22   23 ar
    39   22   25 1
    40   23   24 ar
    41   23   49 1
    42   24   50 1
    43   25   26 1
    44   25   27 1
    45   25   28 1
    46   29   34 ar
    47   29   30 ar
    48   30   31 ar
    49   30   51 1
    50   31   32 ar
    51   31   52 1
    52   32   33 ar
    53   32   35 1
    54   33   34 ar
    55   33   53 1
    56   34   54 1
@<TRIPOS>MOLECULE
CHEMBL219944
   54    57     0     0     0
SMALL
USER_CHARGES

@<TRIPOS>ATOM
      1 C1          0.1046    2.7137    0.0383 C.ar      1 <0>        -0.1662
      2 C2          1.3470    3.3140    0.1526 C.ar      1 <0>        -0.0746
      3 C3          2.4845    2.5120    0.0275 C.ar      1 <0>        -0.0836
      4 C4          2.3247    1.1475   -0.2060 C.ar      1 <0>         0.1031
      5 N1          1.1216    0.6212   -0.3078 N.ar      1 <0>        -0.4799
      6 C5          0.0298    1.3527   -0.1938 C.ar      1 <0>         0.0910
      7 C6          3.8403    3.1037    0.1409 C.ar      1 <0>        -0.0882
      8 C7          3.9886    4.4688    0.3798 C.ar      1 <0>        -0.0670
      9 C8          5.2501    5.0160    0.4848 C.ar      1 <0>        -0.1486
     10 C9          6.3717    4.2086    0.3527 C.ar      1 <0>         0.1404
     11 C10         6.2271    2.8485    0.1142 C.ar      1 <0>        -0.2049
     12 C11         4.9681    2.2946    0.0145 C.ar      1 <0>        -0.0642
     13 O1          7.6134    4.7505    0.4565 O.3       1 <0>        -0.3096
     14 C12         8.7232    3.8622    0.3103 C.3       1 <0>         0.0628
     15 C13        10.0279    4.6478    0.4571 C.3       1 <0>        -0.1190
     16 C14        11.2162    3.6968    0.3005 C.3       1 <0>         0.0657
     17 O2         12.4348    4.4305    0.4376 O.3       1 <0>        -0.3153
     18 C15        13.5933    3.7292    0.3243 C.ar      1 <0>         0.1138
     19 C16        13.5589    2.3637    0.0804 C.ar      1 <0>        -0.2082
     20 C17        14.7380    1.6559   -0.0339 C.ar      1 <0>        -0.0703
     21 C18        15.9565    2.3026    0.0943 C.ar      1 <0>        -0.1077
     22 C19        15.9934    3.6631    0.3375 C.ar      1 <0>        -0.0610
     23 C20        14.8125    4.3769    0.4464 C.ar      1 <0>        -0.1401
     24 C21        17.4312    4.1266    0.4355 C.3       1 <0>        -0.0828
     25 C22        18.2553    2.8414    0.6623 C.3       1 <0>        -0.1019
     26 C23        17.3672    1.7594    0.0122 C.3       1 <0>        -0.0267
     27 H1         17.6548    1.6092   -1.0284 H         1 <0>         0.0890
     28 C24        17.4764    0.4458    0.7891 C.3       1 <0>        -0.1740
     29 C25        18.8451   -0.1491    0.5803 C.2       1 <0>         0.4909
     30 O3         19.6207    0.3672   -0.2061 O.co2     1 <0>        -0.6953
     31 O4         19.1769   -1.1468    1.1976 O.co2     1 <0>        -0.7081
     32 H2         -0.7964    3.3015    0.1339 H         1 <0>         0.1372
     33 H3          1.4348    4.3751    0.3335 H         1 <0>         0.1367
     34 H4          3.1952    0.5159   -0.3048 H         1 <0>         0.1571
     35 H5         -0.9377    0.8812   -0.2834 H         1 <0>         0.1563
     36 H6          3.1165    5.0975    0.4823 H         1 <0>         0.1320
     37 H7          5.3657    6.0738    0.6695 H         1 <0>         0.1355
     38 H8          7.1015    2.2229    0.0112 H         1 <0>         0.1337
     39 H9          4.8562    1.2357   -0.1662 H         1 <0>         0.1305
     40 H10         8.6750    3.0910    1.0790 H         1 <0>         0.0689
     41 H11         8.6884    3.3964   -0.6745 H         1 <0>         0.0687
     42 H12        10.0761    5.4191   -0.3116 H         1 <0>         0.0864
     43 H13        10.0627    5.1137    1.4419 H         1 <0>         0.0866
     44 H14        11.1680    2.9255    1.0692 H         1 <0>         0.0645
     45 H15        11.1814    3.2309   -0.6843 H         1 <0>         0.0643
     46 H16        12.6110    1.8557   -0.0195 H         1 <0>         0.1233
     47 H17        14.7108    0.5930   -0.2238 H         1 <0>         0.1225
     48 H18        14.8411    5.4405    0.6314 H         1 <0>         0.1240
     49 H19        17.7359    4.6126   -0.4913 H         1 <0>         0.0794
     50 H20        17.5525    4.8073    1.2782 H         1 <0>         0.0709
     51 H21        19.2196    2.9055    0.1583 H         1 <0>         0.0855
     52 H22        18.3855    2.6475    1.7270 H         1 <0>         0.0644
     53 H23        17.3218    0.6378    1.8509 H         1 <0>         0.0567
     54 H24        16.7187   -0.2516    0.4319 H         1 <0>         0.0557
@<TRIPOS>BOND
     1    1    6 ar
     2    1    2 ar
     3    1   32 1
     4    2    3 ar
     5    2   33 1
     6    3    4 ar
     7    3    7 1
     8    4    5 ar
     9    4   34 1
    10    5    6 ar
    11    6   35 1
    12    7   12 ar
    13    7    8 ar
    14    8    9 ar
    15    8   36 1
    16    9   10 ar
    17    9   37 1
    18   10   11 ar
    19   10   13 1
    20   11   12 ar
    21   11   38 1
    22   12   39 1
    23   13   14 1
    24   14   15 1
    25   14   40 1
    26   14   41 1
    27   15   16 1
    28   15   42 1
    29   15   43 1
    30   16   17 1
    31   16   44 1
    32   16   45 1
    33   17   18 1
    34   18   23 ar
    35   18   19 ar
    36   19   20 ar
    37   19   46 1
    38   20   21 ar
    39   20   47 1
    40   21   26 1
    41   21   22 ar
    42   22   23 ar
    43   22   24 1
    44   23   48 1
    45   24   25 1
    46   24   49 1
    47   24   50 1
    48   25   26 1
    49   25   51 1
    50   25   52 1
    51   26   27 1
    52   26   28 1
    53   28   29 1
    54   28   53 1
    55   28   54 1
    56   29   30 2
    57   29   31 1
@<TRIPOS>MOLECULE
CHEMBL425766
   63    66     0     0     0
SMALL
USER_CHARGES

@<TRIPOS>ATOM
      1 C1          1.3213    0.9427    0.2164 C.3       1 <0>        -0.1527
      2 C2          0.9207   -0.5339    0.2099 C.3       1 <0>        -0.1177
      3 C3         -0.5923   -0.6509    0.0147 C.3       1 <0>        -0.0724
      4 C4         -0.9870   -2.1053    0.0083 C.ar      1 <0>        -0.1253
      5 C5         -1.1062   -2.7799   -1.1859 C.ar      1 <0>        -0.0427
      6 C6         -1.4724   -4.1293   -1.1907 C.ar      1 <0>        -0.2049
      7 C7         -1.7161   -4.7879    0.0188 C.ar      1 <0>        -0.0180
      8 C8         -1.5947   -4.1058    1.2081 C.ar      1 <0>        -0.2194
      9 C9         -1.2247   -2.7653    1.2085 C.ar      1 <0>         0.1729
     10 O1         -1.1007   -2.0981    2.3836 O.3       1 <0>        -0.3003
     11 C10        -1.3594   -2.8364    3.5793 C.3       1 <0>         0.0596
     12 C11        -1.1707   -1.9241    4.7930 C.3       1 <0>        -0.1175
     13 C12        -1.4478   -2.7147    6.0733 C.3       1 <0>         0.0665
     14 O2         -1.2715   -1.8626    7.2068 O.3       1 <0>        -0.3172
     15 C13        -1.4809   -2.4140    8.4322 C.ar      1 <0>         0.0853
     16 C14        -1.8440   -3.7544    8.5366 C.ar      1 <0>        -0.1888
     17 C15        -2.0594   -4.3286    9.7693 C.ar      1 <0>        -0.0759
     18 C16        -1.9148   -3.5687   10.9253 C.ar      1 <0>         0.0883
     19 C17        -1.5483   -2.2149   10.8232 C.ar      1 <0>        -0.0751
     20 C18        -1.3272   -1.6443    9.5677 C.ar      1 <0>        -0.1115
     21 C19        -1.4821   -1.7081   12.1961 C.2       1 <0>        -0.2344
     22 C20        -1.7959   -2.7302   13.0079 C.2       1 <0>         0.0796
     23 N1         -2.0576   -3.8505   12.2676 N.pl3     1 <0>        -0.4416
     24 C21        -2.4343   -5.1546   12.8186 C.3       1 <0>         0.0317
     25 C22        -1.2044   -6.0137   12.9615 C.2       1 <0>         0.4800
     26 O3         -0.1143   -5.5771   12.6336 O.co2     1 <0>        -0.6713
     27 O4         -1.2995   -7.1454   13.4051 O.co2     1 <0>        -0.6927
     28 C23        -1.6018   -4.8561   -2.4677 C.2       1 <0>         0.4450
     29 O5         -2.0518   -5.9857   -2.4816 O.2       1 <0>        -0.4487
     30 C24        -1.1849   -4.2120   -3.7293 C.ar      1 <0>        -0.1646
     31 C25        -0.0959   -3.3364   -3.7433 C.ar      1 <0>        -0.0566
     32 C26         0.2889   -2.7385   -4.9237 C.ar      1 <0>        -0.1611
     33 C27        -0.4023   -3.0043   -6.0963 C.ar      1 <0>         0.1243
     34 C28        -1.4841   -3.8720   -6.0883 C.ar      1 <0>        -0.1610
     35 C29        -1.8744   -4.4801   -4.9149 C.ar      1 <0>        -0.0376
     36 F1         -0.0206   -2.4153   -7.2507 F         1 <0>        -0.1337
     37 H1          2.3992    1.0261    0.3555 H         1 <0>         0.0545
     38 H2          1.0410    1.3994   -0.7328 H         1 <0>         0.0528
     39 H3          0.8092    1.4546    1.0312 H         1 <0>         0.0561
     40 H4          1.4328   -1.0457   -0.6049 H         1 <0>         0.0594
     41 H5          1.2009   -0.9906    1.1591 H         1 <0>         0.0658
     42 H6         -1.1045   -0.1390    0.8295 H         1 <0>         0.0794
     43 H7         -0.8726   -0.1942   -0.9345 H         1 <0>         0.0716
     44 H8         -0.9174   -2.2675   -2.1177 H         1 <0>         0.1433
     45 H9         -1.9996   -5.8300    0.0196 H         1 <0>         0.1377
     46 H10        -1.7827   -4.6136    2.1426 H         1 <0>         0.1381
     47 H11        -2.3832   -3.2100    3.5613 H         1 <0>         0.0701
     48 H12        -0.6674   -3.6760    3.6448 H         1 <0>         0.0709
     49 H13        -0.1469   -1.5505    4.8110 H         1 <0>         0.0864
     50 H14        -1.8628   -1.0845    4.7275 H         1 <0>         0.0856
     51 H15        -2.4716   -3.0883    6.0553 H         1 <0>         0.0615
     52 H16        -0.7557   -3.5543    6.1388 H         1 <0>         0.0628
     53 H17        -1.9581   -4.3490    7.6422 H         1 <0>         0.1226
     54 H18        -2.3410   -5.3690    9.8386 H         1 <0>         0.1180
     55 H19        -1.0416   -0.6060    9.4855 H         1 <0>         0.1236
     56 H20        -1.2284   -0.7027   12.4980 H         1 <0>         0.1414
     57 H21        -1.8358   -2.6761   14.0858 H         1 <0>         0.1607
     58 H22        -2.8965   -5.0163   13.7960 H         1 <0>         0.0878
     59 H23        -3.1418   -5.6419   12.1477 H         1 <0>         0.0822
     60 H24         0.4428   -3.1285   -2.8307 H         1 <0>         0.1470
     61 H25         1.1302   -2.0614   -4.9356 H         1 <0>         0.1442
     62 H26        -2.0192   -4.0747   -7.0043 H         1 <0>         0.1432
     63 H27        -2.7140   -5.1594   -4.9107 H         1 <0>         0.1424
@<TRIPOS>BOND
     1    1    2 1
     2    1   37 1
     3    1   38 1
     4    1   39 1
     5    2    3 1
     6    2   40 1
     7    2   41 1
     8    3    4 1
     9    3   42 1
    10    3   43 1
    11    4    9 ar
    12    4    5 ar
    13    5    6 ar
    14    5   44 1
    15    6    7 ar
    16    6   28 1
    17    7    8 ar
    18    7   45 1
    19    8    9 ar
    20    8   46 1
    21    9   10 1
    22   10   11 1
    23   11   12 1
    24   11   47 1
    25   11   48 1
    26   12   13 1
    27   12   49 1
    28   12   50 1
    29   13   14 1
    30   13   51 1
    31   13   52 1
    32   14   15 1
    33   15   20 ar
    34   15   16 ar
    35   16   17 ar
    36   16   53 1
    37   17   18 ar
    38   17   54 1
    39   18   23 1
    40   18   19 ar
    41   19   20 ar
    42   19   21 1
    43   20   55 1
    44   21   22 2
    45   21   56 1
    46   22   23 1
    47   22   57 1
    48   23   24 1
    49   24   25 1
    50   24   58 1
    51   24   59 1
    52   25   26 2
    53   25   27 1
    54   28   29 2
    55   28   30 1
    56   30   35 ar
    57   30   31 ar
    58   31   32 ar
    59   31   60 1
    60   32   33 ar
    61   32   61 1
    62   33   34 ar
    63   33   36 1
    64   34   35 ar
    65   34   62 1
    66   35   63 1
@<TRIPOS>MOLECULE
CHEMBL393987
   54    56     0     0     0
SMALL
USER_CHARGES

@<TRIPOS>ATOM
      1 C1          2.0054    1.6369    0.7618 C.3       1 <0>        -0.0721
      2 C2          1.6730    0.1711    0.6534 C.2       1 <0>        -0.1370
      3 C3          0.4595   -0.4360    0.7167 C.2       1 <0>        -0.1645
      4 C4          0.3865   -1.8051    0.5911 C.2       1 <0>        -0.1220
      5 C5          1.5473   -2.5121    0.4055 C.2       1 <0>        -0.0539
      6 S1          2.7720   -1.2129    0.4010 S.3       1 <0>         0.0699
      7 C6          1.7290   -3.9240    0.2501 C.1       1 <0>        -0.0978
      8 C7          1.8779   -5.0815    0.1226 C.1       1 <0>        -0.1121
      9 C8          2.0647   -6.5329   -0.0371 C.3       1 <0>         0.0875
     10 C9          1.5500   -7.2434    1.1882 C.2       1 <0>        -0.1385
     11 C10         0.6823   -8.2170    1.0647 C.2       1 <0>        -0.1281
     12 C11         0.3224   -8.7367   -0.3033 C.3       1 <0>         0.0790
     13 O1          0.2957  -10.1652   -0.2784 O.3       1 <0>        -0.3108
     14 C12        -0.0147  -10.7973   -1.4417 C.ar      1 <0>         0.0764
     15 C13        -0.2820  -10.0564   -2.5836 C.ar      1 <0>        -0.1720
     16 C14        -0.5977  -10.6984   -3.7650 C.ar      1 <0>        -0.1759
     17 C15        -0.6470  -12.0840   -3.8098 C.ar      1 <0>         0.1079
     18 C16        -0.3793  -12.8246   -2.6683 C.ar      1 <0>        -0.0850
     19 C17        -0.0584  -12.1826   -1.4878 C.ar      1 <0>        -0.1118
     20 C18        -0.4329  -14.3298   -2.7170 C.3       1 <0>        -0.1054
     21 O2         -0.9583  -12.7160   -4.9729 O.3       1 <0>        -0.2780
     22 C19        -1.2228  -11.8907   -6.1091 C.3       1 <0>        -0.0064
     23 C20        -1.5468  -12.7598   -7.2968 C.2       1 <0>         0.5012
     24 O3         -1.5509  -13.9735   -7.1810 O.co2     1 <0>        -0.6704
     25 O4         -1.8049  -12.2493   -8.3735 O.co2     1 <0>        -0.6886
     26 C21         3.5306   -6.8343   -0.2141 C.ar      1 <0>        -0.0613
     27 C22         4.4307   -6.4936    0.7783 C.ar      1 <0>        -0.0981
     28 C23         5.7753   -6.7703    0.6166 C.ar      1 <0>        -0.0893
     29 C24         6.2201   -7.3881   -0.5383 C.ar      1 <0>        -0.0877
     30 C25         5.3190   -7.7288   -1.5310 C.ar      1 <0>        -0.0850
     31 C26         3.9739   -7.4565   -1.3662 C.ar      1 <0>        -0.1007
     32 Br1         8.0595   -7.7663   -0.7604 Br        1 <0>        -0.0504
     33 H1          3.0821    1.7737    0.6613 H         1 <0>         0.0736
     34 H2          1.4941    2.1850   -0.0296 H         1 <0>         0.0833
     35 H3          1.6805    2.0124    1.7322 H         1 <0>         0.0834
     36 H4         -0.4369    0.1480    0.8641 H         1 <0>         0.1387
     37 H5         -0.5658   -2.3124    0.6381 H         1 <0>         0.1388
     38 H6          1.5149   -6.8756   -0.9137 H         1 <0>         0.1163
     39 H7          1.8966   -6.9500    2.1681 H         1 <0>         0.1278
     40 H8          0.2248   -8.6473    1.9433 H         1 <0>         0.1309
     41 H9         -0.6598   -8.3598   -0.5883 H         1 <0>         0.0720
     42 H10         1.0648   -8.3997   -1.0268 H         1 <0>         0.0690
     43 H11        -0.2436   -8.9777   -2.5488 H         1 <0>         0.1223
     44 H12        -0.8065  -10.1216   -4.6539 H         1 <0>         0.1306
     45 H13         0.1540  -12.7594   -0.5999 H         1 <0>         0.1322
     46 H14         0.5502  -14.7201   -2.9800 H         1 <0>         0.0691
     47 H15        -0.7273  -14.7147   -1.7406 H         1 <0>         0.0611
     48 H16        -1.1605  -14.6435   -3.4655 H         1 <0>         0.0804
     49 H17        -2.0690  -11.2379   -5.8949 H         1 <0>         0.0572
     50 H18        -0.3439  -11.2852   -6.3308 H         1 <0>         0.0574
     51 H19         4.0834   -6.0109    1.6798 H         1 <0>         0.1306
     52 H20         6.4785   -6.5038    1.3917 H         1 <0>         0.1339
     53 H21         5.6658   -8.2112   -2.4329 H         1 <0>         0.1371
     54 H22         3.2698   -7.7261   -2.1394 H         1 <0>         0.1351
@<TRIPOS>BOND
     1    1    2 1
     2    1   33 1
     3    1   34 1
     4    1   35 1
     5    2    6 1
     6    2    3 2
     7    3    4 1
     8    3   36 1
     9    4    5 2
    10    4   37 1
    11    5    6 1
    12    5    7 1
    13    7    8 3
    14    8    9 1
    15    9   10 1
    16    9   26 1
    17    9   38 1
    18   10   11 2
    19   10   39 1
    20   11   12 1
    21   11   40 1
    22   12   13 1
    23   12   41 1
    24   12   42 1
    25   13   14 1
    26   14   19 ar
    27   14   15 ar
    28   15   16 ar
    29   15   43 1
    30   16   17 ar
    31   16   44 1
    32   17   18 ar
    33   17   21 1
    34   18   19 ar
    35   18   20 1
    36   19   45 1
    37   20   46 1
    38   20   47 1
    39   20   48 1
    40   21   22 1
    41   22   23 1
    42   22   49 1
    43   22   50 1
    44   23   24 2
    45   23   25 1
    46   26   31 ar
    47   26   27 ar
    48   27   28 ar
    49   27   51 1
    50   28   29 ar
    51   28   52 1
    52   29   30 ar
    53   29   32 1
    54   30   31 ar
    55   30   53 1
    56   31   54 1
@<TRIPOS>MOLECULE
CHEMBL393987__1
   54    56     0     0     0
SMALL
USER_CHARGES

@<TRIPOS>ATOM
      1 C1         -1.8427    0.8673    0.8534 C.3       1 <0>        -0.0718
      2 C2         -1.4844   -0.5905    0.7210 C.2       1 <0>        -0.1368
      3 C3         -2.2992   -1.6766    0.7583 C.2       1 <0>        -0.1638
      4 C4         -1.7519   -2.9316    0.6138 C.2       1 <0>        -0.1193
      5 C5         -0.3961   -3.0423    0.4364 C.2       1 <0>        -0.0563
      6 S1          0.1190   -1.3330    0.4670 S.3       1 <0>         0.0681
      7 C6          0.3984   -4.2213    0.2654 C.1       1 <0>        -0.0921
      8 C7          1.0498   -5.1879    0.1252 C.1       1 <0>        -0.1201
      9 C8          1.8665   -6.3999   -0.0506 C.3       1 <0>         0.0883
     10 C9          1.4073   -7.1411   -1.2798 C.2       1 <0>        -0.1387
     11 C10         0.8365   -8.3144   -1.1621 C.2       1 <0>        -0.1284
     12 C11         0.4894   -8.8499    0.2031 C.3       1 <0>         0.0783
     13 O1         -0.8216   -9.4178    0.1728 O.3       1 <0>        -0.3115
     14 C12        -1.2910   -9.9495    1.3329 C.ar      1 <0>         0.0761
     15 C13        -0.5070   -9.9193    2.4769 C.ar      1 <0>        -0.1712
     16 C14        -0.9836  -10.4598    3.6551 C.ar      1 <0>        -0.1759
     17 C15        -2.2464  -11.0325    3.6947 C.ar      1 <0>         0.1078
     18 C16        -3.0303  -11.0624    2.5511 C.ar      1 <0>        -0.0854
     19 C17        -2.5557  -10.5170    1.3738 C.ar      1 <0>        -0.1122
     20 C18        -4.4022  -11.6846    2.5940 C.3       1 <0>        -0.1051
     21 O2         -2.7155  -11.5651    4.8546 O.3       1 <0>        -0.2780
     22 C19        -1.8544  -11.5001    5.9932 C.3       1 <0>        -0.0067
     23 C20        -2.5380  -12.1347    7.1769 C.2       1 <0>         0.5014
     24 O3         -3.6586  -12.5996    7.0566 O.co2     1 <0>        -0.6704
     25 O4         -1.9703  -12.1832    8.2548 O.co2     1 <0>        -0.6886
     26 C21         3.3139   -6.0116   -0.2096 C.ar      1 <0>        -0.0580
     27 C22         3.6983   -5.1898   -1.2526 C.ar      1 <0>        -0.0981
     28 C23         5.0256   -4.8330   -1.3986 C.ar      1 <0>        -0.0889
     29 C24         5.9694   -5.2984   -0.5007 C.ar      1 <0>        -0.0887
     30 C25         5.5843   -6.1207    0.5428 C.ar      1 <0>        -0.0870
     31 C26         4.2559   -6.4727    0.6910 C.ar      1 <0>        -0.1018
     32 Br1         7.7856   -4.8112   -0.7002 Br        1 <0>        -0.0509
     33 H1         -0.9399    1.4724    0.7707 H         1 <0>         0.0732
     34 H2         -2.5391    1.1436    0.0617 H         1 <0>         0.0830
     35 H3         -2.3085    1.0403    1.8236 H         1 <0>         0.0837
     36 H4         -3.3632   -1.5572    0.8998 H         1 <0>         0.1393
     37 H5         -2.3775   -3.8116    0.6400 H         1 <0>         0.1398
     38 H6          1.7564   -7.0421    0.8232 H         1 <0>         0.1156
     39 H7          1.5488   -6.7051   -2.2577 H         1 <0>         0.1284
     40 H8          0.6148   -8.8978   -2.0435 H         1 <0>         0.1308
     41 H9          1.2108   -9.6161    0.4870 H         1 <0>         0.0727
     42 H10         0.5169   -8.0379    0.9297 H         1 <0>         0.0694
     43 H11         0.4761   -9.4734    2.4462 H         1 <0>         0.1225
     44 H12        -0.3730  -10.4369    4.5456 H         1 <0>         0.1308
     45 H13        -3.1678  -10.5366    0.4843 H         1 <0>         0.1321
     46 H14        -5.1377  -10.9247    2.8581 H         1 <0>         0.0688
     47 H15        -4.6438  -12.0995    1.6155 H         1 <0>         0.0611
     48 H16        -4.4174  -12.4796    3.3396 H         1 <0>         0.0805
     49 H17        -0.9283  -12.0337    5.7793 H         1 <0>         0.0574
     50 H18        -1.6293  -10.4578    6.2194 H         1 <0>         0.0573
     51 H19         2.9614   -4.8267   -1.9538 H         1 <0>         0.1320
     52 H20         5.3259   -4.1913   -2.2137 H         1 <0>         0.1343
     53 H21         6.3208   -6.4843    1.2440 H         1 <0>         0.1364
     54 H22         3.9545   -7.1114    1.5081 H         1 <0>         0.1363
@<TRIPOS>BOND
     1    1    2 1
     2    1   33 1
     3    1   34 1
     4    1   35 1
     5    2    6 1
     6    2    3 2
     7    3    4 1
     8    3   36 1
     9    4    5 2
    10    4   37 1
    11    5    6 1
    12    5    7 1
    13    7    8 3
    14    8    9 1
    15    9   10 1
    16    9   26 1
    17    9   38 1
    18   10   11 2
    19   10   39 1
    20   11   12 1
    21   11   40 1
    22   12   13 1
    23   12   41 1
    24   12   42 1
    25   13   14 1
    26   14   19 ar
    27   14   15 ar
    28   15   16 ar
    29   15   43 1
    30   16   17 ar
    31   16   44 1
    32   17   18 ar
    33   17   21 1
    34   18   19 ar
    35   18   20 1
    36   19   45 1
    37   20   46 1
    38   20   47 1
    39   20   48 1
    40   21   22 1
    41   22   23 1
    42   22   49 1
    43   22   50 1
    44   23   24 2
    45   23   25 1
    46   26   31 ar
    47   26   27 ar
    48   27   28 ar
    49   27   51 1
    50   28   29 ar
    51   28   52 1
    52   29   30 ar
    53   29   32 1
    54   30   31 ar
    55   30   53 1
    56   31   54 1
@<TRIPOS>MOLECULE
CHEMBL117165
   63    66     0     0     0
SMALL
USER_CHARGES

@<TRIPOS>ATOM
      1 C1         -0.0187    1.5258    0.0104 C.3       1 <0>        -0.1524
      2 C2          0.0021   -0.0041    0.0020 C.3       1 <0>        -0.1159
      3 C3          0.7421   -0.5109    1.2415 C.3       1 <0>        -0.0713
      4 C4          0.7625   -2.0177    1.2333 C.ar      1 <0>        -0.1073
      5 C5          1.8939   -2.6916    0.8150 C.ar      1 <0>        -0.0787
      6 C6          1.9131   -4.0739    0.8067 C.ar      1 <0>        -0.1043
      7 C7          0.8008   -4.7856    1.2172 C.ar      1 <0>        -0.0793
      8 C8         -0.3326   -4.1167    1.6366 C.ar      1 <0>        -0.2035
      9 C9         -0.3525   -2.7294    1.6508 C.ar      1 <0>         0.1265
     10 O1         -1.4644   -2.0689    2.0684 O.3       1 <0>        -0.3070
     11 C10        -2.5749   -2.8664    2.4842 C.3       1 <0>         0.0644
     12 C11        -3.7246   -1.9540    2.9161 C.3       1 <0>        -0.1197
     13 C12        -4.9136   -2.8078    3.3613 C.3       1 <0>         0.0636
     14 O2         -5.9875   -1.9557    3.7647 O.3       1 <0>        -0.3076
     15 C13        -7.1275   -2.5598    4.1918 C.ar      1 <0>         0.1355
     16 C14        -7.2088   -3.9445    4.2274 C.ar      1 <0>        -0.1910
     17 C15        -8.3684   -4.5561    4.6623 C.ar      1 <0>        -0.0733
     18 C16        -9.4477   -3.7896    5.0620 C.ar      1 <0>        -0.1312
     19 C17        -9.3694   -2.4098    5.0270 C.ar      1 <0>        -0.0712
     20 C18        -8.2097   -1.7932    4.5983 C.ar      1 <0>        -0.1182
     21 C19       -10.5477   -1.5775    5.4629 C.3       1 <0>         0.0882
     22 C20       -10.5862   -1.4618    6.9732 C.2       1 <0>         0.5126
     23 O3         -9.7455   -0.9668    7.6928 O.2       1 <0>        -0.4338
     24 N1        -11.7530   -2.0247    7.3485 N.am      1 <0>        -0.6836
     25 C21       -12.4315   -2.4673    6.2820 C.2       1 <0>         0.6500
     26 O4        -13.5139   -3.0144    6.3481 O.2       1 <0>        -0.4648
     27 O5        -11.7792   -2.2369    5.1318 O.3       1 <0>        -0.2873
     28 C22         3.1481   -4.8063    0.3492 C.3       1 <0>        -0.0502
     29 C23         2.8002   -5.7489   -0.8214 C.3       1 <0>        -0.1177
     30 C24         3.6810   -6.9993   -0.5769 C.3       1 <0>        -0.1269
     31 C25         3.6444   -7.1469    0.9645 C.3       1 <0>        -0.1258
     32 C26         3.6849   -5.6952    1.4847 C.3       1 <0>        -0.1183
     33 H1          1.0039    1.9031    0.0027 H         1 <0>         0.0532
     34 H2         -0.5459    1.8868   -0.8726 H         1 <0>         0.0539
     35 H3         -0.5289    1.8773    0.9072 H         1 <0>         0.0546
     36 H4         -1.0205   -0.3814    0.0098 H         1 <0>         0.0641
     37 H5          0.5123   -0.3556   -0.8948 H         1 <0>         0.0591
     38 H6          1.7647   -0.1336    1.2338 H         1 <0>         0.0690
     39 H7          0.2319   -0.1594    2.1383 H         1 <0>         0.0745
     40 H8          2.7639   -2.1380    0.4940 H         1 <0>         0.1272
     41 H9          0.8181   -5.8655    1.2094 H         1 <0>         0.1232
     42 H10        -1.2010   -4.6730    1.9570 H         1 <0>         0.1256
     43 H11        -2.9014   -3.4948    1.6556 H         1 <0>         0.0653
     44 H12        -2.2764   -3.4962    3.3222 H         1 <0>         0.0651
     45 H13        -3.3982   -1.3255    3.7447 H         1 <0>         0.0881
     46 H14        -4.0232   -1.3242    2.0781 H         1 <0>         0.0882
     47 H15        -5.2401   -3.4363    2.5328 H         1 <0>         0.0685
     48 H16        -4.6151   -3.4376    4.1994 H         1 <0>         0.0682
     49 H17        -6.3662   -4.5436    3.9149 H         1 <0>         0.1341
     50 H18        -8.4323   -5.6338    4.6898 H         1 <0>         0.1343
     51 H19       -10.3535   -4.2696    5.4017 H         1 <0>         0.1252
     52 H20        -8.1473   -0.7152    4.5754 H         1 <0>         0.1417
     53 H21       -10.5075   -0.5901    5.0031 H         1 <0>         0.1634
     54 H22       -12.0592   -2.0987    8.2659 H         1 <0>         0.4454
     55 H23         3.9122   -4.0928    0.0406 H         1 <0>         0.0783
     56 H24         1.7436   -6.0155   -0.7955 H         1 <0>         0.0687
     57 H25         3.0540   -5.2839   -1.7740 H         1 <0>         0.0661
     58 H26         3.2492   -7.8762   -1.0593 H         1 <0>         0.0663
     59 H27         4.6998   -6.8282   -0.9245 H         1 <0>         0.0675
     60 H28         2.7242   -7.6393    1.2789 H         1 <0>         0.0639
     61 H29         4.5143   -7.7022    1.3153 H         1 <0>         0.0652
     62 H30         4.7097   -5.4136    1.7266 H         1 <0>         0.0653
     63 H31         3.0521   -5.5968    2.3668 H         1 <0>         0.0664
@<TRIPOS>BOND
     1    1    2 1
     2    1   33 1
     3    1   34 1
     4    1   35 1
     5    2    3 1
     6    2   36 1
     7    2   37 1
     8    3    4 1
     9    3   38 1
    10    3   39 1
    11    4    9 ar
    12    4    5 ar
    13    5    6 ar
    14    5   40 1
    15    6    7 ar
    16    6   28 1
    17    7    8 ar
    18    7   41 1
    19    8    9 ar
    20    8   42 1
    21    9   10 1
    22   10   11 1
    23   11   12 1
    24   11   43 1
    25   11   44 1
    26   12   13 1
    27   12   45 1
    28   12   46 1
    29   13   14 1
    30   13   47 1
    31   13   48 1
    32   14   15 1
    33   15   20 ar
    34   15   16 ar
    35   16   17 ar
    36   16   49 1
    37   17   18 ar
    38   17   50 1
    39   18   19 ar
    40   18   51 1
    41   19   20 ar
    42   19   21 1
    43   20   52 1
    44   21   27 1
    45   21   22 1
    46   21   53 1
    47   22   23 2
    48   22   24 am
    49   24   25 am
    50   24   54 1
    51   25   26 2
    52   25   27 1
    53   28   32 1
    54   28   29 1
    55   28   55 1
    56   29   30 1
    57   29   56 1
    58   29   57 1
    59   30   31 1
    60   30   58 1
    61   30   59 1
    62   31   32 1
    63   31   60 1
    64   31   61 1
    65   32   62 1
    66   32   63 1
@<TRIPOS>MOLECULE
CHEMBL117165__1
   63    66     0     0     0
SMALL
USER_CHARGES

@<TRIPOS>ATOM
      1 C1         -0.0187    1.5258    0.0104 C.3       1 <0>        -0.1524
      2 C2          0.0021   -0.0041    0.0020 C.3       1 <0>        -0.1160
      3 C3          0.7421   -0.5109    1.2415 C.3       1 <0>        -0.0712
      4 C4          0.7625   -2.0177    1.2333 C.ar      1 <0>        -0.1073
      5 C5          1.8939   -2.6916    0.8150 C.ar      1 <0>        -0.0787
      6 C6          1.9131   -4.0739    0.8067 C.ar      1 <0>        -0.1042
      7 C7          0.8008   -4.7856    1.2172 C.ar      1 <0>        -0.0793
      8 C8         -0.3326   -4.1167    1.6366 C.ar      1 <0>        -0.2035
      9 C9         -0.3525   -2.7294    1.6508 C.ar      1 <0>         0.1265
     10 O1         -1.4644   -2.0689    2.0684 O.3       1 <0>        -0.3070
     11 C10        -2.5749   -2.8664    2.4842 C.3       1 <0>         0.0644
     12 C11        -3.7246   -1.9540    2.9161 C.3       1 <0>        -0.1196
     13 C12        -4.9136   -2.8078    3.3613 C.3       1 <0>         0.0635
     14 O2         -5.9875   -1.9557    3.7647 O.3       1 <0>        -0.3076
     15 C13        -7.1275   -2.5598    4.1918 C.ar      1 <0>         0.1355
     16 C14        -7.2088   -3.9445    4.2274 C.ar      1 <0>        -0.1905
     17 C15        -8.3684   -4.5561    4.6623 C.ar      1 <0>        -0.0730
     18 C16        -9.4477   -3.7896    5.0620 C.ar      1 <0>        -0.1313
     19 C17        -9.3694   -2.4098    5.0270 C.ar      1 <0>        -0.0705
     20 C18        -8.2097   -1.7932    4.5983 C.ar      1 <0>        -0.1176
     21 C19       -10.5477   -1.5775    5.4629 C.3       1 <0>         0.0879
     22 C20       -11.6200   -1.5738    4.3925 C.2       1 <0>         0.5127
     23 O3        -11.5218   -1.1603    3.2571 O.2       1 <0>        -0.4339
     24 N1        -12.7064   -2.1280    4.9682 N.am      1 <0>        -0.6838
     25 C21       -12.4494   -2.4692    6.2375 C.2       1 <0>         0.6498
     26 O4        -13.2621   -2.9871    6.9767 O.2       1 <0>        -0.4648
     27 O5        -11.1912   -2.1732    6.5996 O.3       1 <0>        -0.2872
     28 C22         3.1481   -4.8063    0.3492 C.3       1 <0>        -0.0502
     29 C23         2.8002   -5.7489   -0.8214 C.3       1 <0>        -0.1177
     30 C24         3.6810   -6.9993   -0.5769 C.3       1 <0>        -0.1269
     31 C25         3.6444   -7.1469    0.9645 C.3       1 <0>        -0.1258
     32 C26         3.6849   -5.6952    1.4847 C.3       1 <0>        -0.1183
     33 H1          1.0039    1.9031    0.0027 H         1 <0>         0.0532
     34 H2         -0.5459    1.8868   -0.8726 H         1 <0>         0.0539
     35 H3         -0.5289    1.8773    0.9072 H         1 <0>         0.0546
     36 H4         -1.0205   -0.3814    0.0098 H         1 <0>         0.0641
     37 H5          0.5123   -0.3556   -0.8948 H         1 <0>         0.0590
     38 H6          1.7647   -0.1336    1.2338 H         1 <0>         0.0690
     39 H7          0.2319   -0.1594    2.1383 H         1 <0>         0.0745
     40 H8          2.7639   -2.1380    0.4940 H         1 <0>         0.1272
     41 H9          0.8181   -5.8655    1.2094 H         1 <0>         0.1232
     42 H10        -1.2010   -4.6730    1.9570 H         1 <0>         0.1256
     43 H11        -2.9014   -3.4948    1.6556 H         1 <0>         0.0652
     44 H12        -2.2764   -3.4962    3.3222 H         1 <0>         0.0652
     45 H13        -3.3982   -1.3255    3.7447 H         1 <0>         0.0882
     46 H14        -4.0232   -1.3242    2.0781 H         1 <0>         0.0882
     47 H15        -5.2401   -3.4363    2.5328 H         1 <0>         0.0683
     48 H16        -4.6151   -3.4376    4.1994 H         1 <0>         0.0685
     49 H17        -6.3662   -4.5436    3.9149 H         1 <0>         0.1342
     50 H18        -8.4323   -5.6338    4.6898 H         1 <0>         0.1343
     51 H19       -10.3535   -4.2696    5.4017 H         1 <0>         0.1238
     52 H20        -8.1473   -0.7152    4.5754 H         1 <0>         0.1419
     53 H21       -10.2312   -0.5601    5.6929 H         1 <0>         0.1630
     54 H22       -13.5580   -2.2616    4.5234 H         1 <0>         0.4454
     55 H23         3.9122   -4.0928    0.0406 H         1 <0>         0.0783
     56 H24         1.7436   -6.0155   -0.7955 H         1 <0>         0.0687
     57 H25         3.0540   -5.2839   -1.7740 H         1 <0>         0.0661
     58 H26         3.2492   -7.8762   -1.0593 H         1 <0>         0.0662
     59 H27         4.6998   -6.8282   -0.9245 H         1 <0>         0.0675
     60 H28         2.7242   -7.6393    1.2789 H         1 <0>         0.0639
     61 H29         4.5143   -7.7022    1.3153 H         1 <0>         0.0652
     62 H30         4.7097   -5.4136    1.7266 H         1 <0>         0.0653
     63 H31         3.0521   -5.5968    2.3668 H         1 <0>         0.0664
@<TRIPOS>BOND
     1    1    2 1
     2    1   33 1
     3    1   34 1
     4    1   35 1
     5    2    3 1
     6    2   36 1
     7    2   37 1
     8    3    4 1
     9    3   38 1
    10    3   39 1
    11    4    9 ar
    12    4    5 ar
    13    5    6 ar
    14    5   40 1
    15    6    7 ar
    16    6   28 1
    17    7    8 ar
    18    7   41 1
    19    8    9 ar
    20    8   42 1
    21    9   10 1
    22   10   11 1
    23   11   12 1
    24   11   43 1
    25   11   44 1
    26   12   13 1
    27   12   45 1
    28   12   46 1
    29   13   14 1
    30   13   47 1
    31   13   48 1
    32   14   15 1
    33   15   20 ar
    34   15   16 ar
    35   16   17 ar
    36   16   49 1
    37   17   18 ar
    38   17   50 1
    39   18   19 ar
    40   18   51 1
    41   19   20 ar
    42   19   21 1
    43   20   52 1
    44   21   27 1
    45   21   22 1
    46   21   53 1
    47   22   23 2
    48   22   24 am
    49   24   25 am
    50   24   54 1
    51   25   26 2
    52   25   27 1
    53   28   32 1
    54   28   29 1
    55   28   55 1
    56   29   30 1
    57   29   56 1
    58   29   57 1
    59   30   31 1
    60   30   58 1
    61   30   59 1
    62   31   32 1
    63   31   60 1
    64   31   61 1
    65   32   62 1
    66   32   63 1
@<TRIPOS>MOLECULE
CHEMBL1081949
   44    46     0     0     0
SMALL
USER_CHARGES

@<TRIPOS>ATOM
      1 C1         -0.3920    2.1963   -1.1139 C.3       1 <0>        -0.1053
      2 C2         -0.2815    0.7107   -0.8865 C.ar      1 <0>        -0.0850
      3 C3         -0.2445   -0.1524   -1.9646 C.ar      1 <0>        -0.1083
      4 C4         -0.1423   -1.5194   -1.7554 C.ar      1 <0>         0.0751
      5 C5         -0.0772   -2.0204   -0.4634 C.ar      1 <0>        -0.1698
      6 C6         -0.1142   -1.1576    0.6144 C.ar      1 <0>        -0.1754
      7 C7         -0.2111    0.2103    0.4049 C.ar      1 <0>         0.1104
      8 O1         -0.2418    1.0601    1.4660 O.3       1 <0>        -0.2774
      9 C8         -0.1653    0.4756    2.7678 C.3       1 <0>        -0.0071
     10 C9         -0.2131    1.5629    3.8102 C.2       1 <0>         0.5013
     11 O2         -0.3044    2.7301    3.4699 O.co2     1 <0>        -0.6704
     12 O3         -0.1606    1.2753    4.9939 O.co2     1 <0>        -0.6884
     13 O4         -0.1064   -2.3689   -2.8166 O.3       1 <0>        -0.3107
     14 C10        -0.0003   -3.7643   -2.5273 C.3       1 <0>         0.1522
     15 C11         0.0254   -4.5441   -3.8166 C.2       1 <0>         0.0479
     16 N1          1.0651   -4.8964   -4.5325 N.2       1 <0>        -0.4923
     17 C12         0.9323   -5.5823   -5.6466 C.2       1 <0>         0.0851
     18 C13        -0.3466   -5.9086   -6.0187 C.2       1 <0>        -0.1786
     19 S1         -1.2737   -5.1777   -4.6788 S.3       1 <0>         0.1607
     20 C14        -0.8246   -6.6615   -7.1984 C.ar      1 <0>         0.0067
     21 C15        -0.2175   -7.8668   -7.5532 C.ar      1 <0>        -0.0819
     22 C16        -0.6677   -8.5647   -8.6546 C.ar      1 <0>        -0.1065
     23 C17        -1.7195   -8.0712   -9.4079 C.ar      1 <0>        -0.0287
     24 C18        -2.3255   -6.8756   -9.0609 C.ar      1 <0>        -0.1056
     25 C19        -1.8883   -6.1722   -7.9577 C.ar      1 <0>        -0.0877
     26 Cl1        -2.2803   -8.9548  -10.7930 Cl        1 <0>        -0.0662
     27 C20         2.1252   -5.9889   -6.4728 C.3       1 <0>        -0.0823
     28 H1          0.6061    2.6264   -1.1967 H         1 <0>         0.0695
     29 H2         -0.9455    2.3828   -2.0342 H         1 <0>         0.0613
     30 H3         -0.9166    2.6542   -0.2753 H         1 <0>         0.0809
     31 H4         -0.2956    0.2376   -2.9705 H         1 <0>         0.1326
     32 H5          0.0020   -3.0850   -0.3004 H         1 <0>         0.1249
     33 H6         -0.0642   -1.5477    1.6203 H         1 <0>         0.1324
     34 H7         -1.0062   -0.2028    2.9115 H         1 <0>         0.0579
     35 H8          0.7687   -0.0782    2.8630 H         1 <0>         0.0581
     36 H9          0.9183   -3.9513   -1.9712 H         1 <0>         0.0960
     37 H10        -0.8566   -4.0777   -1.9302 H         1 <0>         0.0891
     38 H11         0.6034   -8.2523   -6.9668 H         1 <0>         0.1376
     39 H12        -0.1986   -9.4977   -8.9302 H         1 <0>         0.1396
     40 H13        -3.1450   -6.4951   -9.6526 H         1 <0>         0.1395
     41 H14        -2.3651   -5.2423   -7.6850 H         1 <0>         0.1363
     42 H15         2.4249   -7.0019   -6.2043 H         1 <0>         0.0769
     43 H16         1.8630   -5.9559   -7.5303 H         1 <0>         0.0766
     44 H17         2.9505   -5.3031   -6.2815 H         1 <0>         0.0789
@<TRIPOS>BOND
     1    1    2 1
     2    1   28 1
     3    1   29 1
     4    1   30 1
     5    2    7 ar
     6    2    3 ar
     7    3    4 ar
     8    3   31 1
     9    4    5 ar
    10    4   13 1
    11    5    6 ar
    12    5   32 1
    13    6    7 ar
    14    6   33 1
    15    7    8 1
    16    8    9 1
    17    9   10 1
    18    9   34 1
    19    9   35 1
    20   10   11 2
    21   10   12 1
    22   13   14 1
    23   14   15 1
    24   14   36 1
    25   14   37 1
    26   15   19 1
    27   15   16 2
    28   16   17 1
    29   17   18 2
    30   17   27 1
    31   18   19 1
    32   18   20 1
    33   20   25 ar
    34   20   21 ar
    35   21   22 ar
    36   21   38 1
    37   22   23 ar
    38   22   39 1
    39   23   24 ar
    40   23   26 1
    41   24   25 ar
    42   24   40 1
    43   25   41 1
    44   27   42 1
    45   27   43 1
    46   27   44 1
@<TRIPOS>MOLECULE
CHEMBL23670
   56    58     0     0     0
SMALL
USER_CHARGES

@<TRIPOS>ATOM
      1 C1         -0.0187    1.5258    0.0104 C.3       1 <0>        -0.1512
      2 C2          0.0021   -0.0041    0.0020 C.3       1 <0>        -0.1153
      3 C3          0.7182   -0.4975   -1.2568 C.3       1 <0>        -0.0675
      4 C4          0.7386   -2.0043   -1.2651 C.ar      1 <0>        -0.1113
      5 C5          1.7873   -2.6875   -0.6754 C.ar      1 <0>         0.1608
      6 C6          1.8157   -4.0789   -0.6776 C.ar      1 <0>        -0.2122
      7 C7          0.8060   -4.7897   -1.2641 C.ar      1 <0>        -0.0331
      8 C8         -0.2578   -4.1166   -1.8626 C.ar      1 <0>        -0.1592
      9 C9         -0.2977   -2.7118   -1.8596 C.ar      1 <0>         0.0951
     10 O1         -1.4288   -2.3420   -2.4933 O.3       1 <0>        -0.1892
     11 C10        -2.1244   -3.4189   -2.9003 C.2       1 <0>        -0.0068
     12 C11        -1.4757   -4.5417   -2.5642 C.2       1 <0>        -0.1640
     13 C12        -1.9164   -5.9571   -2.8353 C.3       1 <0>        -0.0533
     14 C13        -2.6756   -6.4963   -1.6213 C.3       1 <0>        -0.1478
     15 O2          2.7986   -1.9938   -0.0892 O.3       1 <0>        -0.3029
     16 C14         3.8518   -2.7576    0.5021 C.3       1 <0>         0.0645
     17 C15         4.8905   -1.8112    1.1071 C.3       1 <0>        -0.1001
     18 C16         6.0181   -2.6289    1.7402 C.3       1 <0>        -0.1164
     19 S1          7.2496   -1.5068    2.4576 S.3       1 <0>        -0.0919
     20 C17         8.4651   -2.5862    3.1374 C.ar      1 <0>        -0.1051
     21 C18         8.3139   -3.9630    3.0266 C.ar      1 <0>        -0.1175
     22 C19         9.2687   -4.8061    3.5602 C.ar      1 <0>        -0.0943
     23 C20        10.3745   -4.2821    4.2047 C.ar      1 <0>        -0.0048
     24 C21        10.5288   -2.9125    4.3177 C.ar      1 <0>        -0.0906
     25 C22         9.5808   -2.0624    3.7809 C.ar      1 <0>        -0.0097
     26 Cl1         9.7789   -0.3430    3.9162 Cl        1 <0>        -0.0683
     27 C23        11.4136   -5.2060    4.7859 C.3       1 <0>        -0.1607
     28 C24        12.4678   -5.4927    3.7478 C.2       1 <0>         0.4971
     29 O3         12.3832   -4.9930    2.6389 O.co2     1 <0>        -0.6854
     30 O4         13.4053   -6.2242    4.0169 O.co2     1 <0>        -0.6983
     31 H1          1.0039    1.9031    0.0027 H         1 <0>         0.0561
     32 H2         -0.5459    1.8868   -0.8726 H         1 <0>         0.0525
     33 H3         -0.5289    1.8773    0.9072 H         1 <0>         0.0535
     34 H4          0.5293   -0.3651    0.8851 H         1 <0>         0.0641
     35 H5         -1.0205   -0.3814    0.0098 H         1 <0>         0.0574
     36 H6          0.1910   -0.1364   -2.1398 H         1 <0>         0.0693
     37 H7          1.7408   -0.1202   -1.2645 H         1 <0>         0.0803
     38 H8          2.6402   -4.5999   -0.2138 H         1 <0>         0.1364
     39 H9          0.8326   -5.8694   -1.2641 H         1 <0>         0.1294
     40 H10        -3.0648   -3.3833   -3.4302 H         1 <0>         0.2048
     41 H11        -2.5688   -5.9736   -3.7084 H         1 <0>         0.0734
     42 H12        -1.0421   -6.5802   -3.0233 H         1 <0>         0.0735
     43 H13        -2.0233   -6.4798   -0.7482 H         1 <0>         0.0558
     44 H14        -3.5499   -5.8732   -1.4334 H         1 <0>         0.0548
     45 H15        -2.9944   -7.5200   -1.8174 H         1 <0>         0.0587
     46 H16         3.4423   -3.3960    1.2849 H         1 <0>         0.0676
     47 H17         4.3246   -3.3761   -0.2609 H         1 <0>         0.0683
     48 H18         5.3000   -1.1727    0.3243 H         1 <0>         0.0866
     49 H19         4.4177   -1.1927    1.8701 H         1 <0>         0.0859
     50 H20         5.6086   -3.2673    2.5230 H         1 <0>         0.0898
     51 H21         6.4909   -3.2474    0.9772 H         1 <0>         0.0913
     52 H22         7.4505   -4.3733    2.5242 H         1 <0>         0.1240
     53 H23         9.1515   -5.8763    3.4743 H         1 <0>         0.1258
     54 H24        11.3934   -2.5069    4.8220 H         1 <0>         0.1323
     55 H25        11.8760   -4.7335    5.6525 H         1 <0>         0.0739
     56 H26        10.9403   -6.1395    5.0904 H         1 <0>         0.0742
@<TRIPOS>BOND
     1    1    2 1
     2    1   31 1
     3    1   32 1
     4    1   33 1
     5    2    3 1
     6    2   34 1
     7    2   35 1
     8    3    4 1
     9    3   36 1
    10    3   37 1
    11    4    9 ar
    12    4    5 ar
    13    5    6 ar
    14    5   15 1
    15    6    7 ar
    16    6   38 1
    17    7    8 ar
    18    7   39 1
    19    8   12 1
    20    8    9 ar
    21    9   10 1
    22   10   11 1
    23   11   12 2
    24   11   40 1
    25   12   13 1
    26   13   14 1
    27   13   41 1
    28   13   42 1
    29   14   43 1
    30   14   44 1
    31   14   45 1
    32   15   16 1
    33   16   17 1
    34   16   46 1
    35   16   47 1
    36   17   18 1
    37   17   48 1
    38   17   49 1
    39   18   19 1
    40   18   50 1
    41   18   51 1
    42   19   20 1
    43   20   25 ar
    44   20   21 ar
    45   21   22 ar
    46   21   52 1
    47   22   23 ar
    48   22   53 1
    49   23   24 ar
    50   23   27 1
    51   24   25 ar
    52   24   54 1
    53   25   26 1
    54   27   28 1
    55   27   55 1
    56   27   56 1
    57   28   29 2
    58   28   30 1
@<TRIPOS>MOLECULE
CHEMBL270587
   57    59     0     0     0
SMALL
USER_CHARGES

@<TRIPOS>ATOM
      1 C1         -0.0187    1.5258    0.0104 C.3       1 <0>        -0.1448
      2 C2          0.0021   -0.0041    0.0020 C.3       1 <0>        -0.1000
      3 C3          0.7182   -0.4975   -1.2568 C.3       1 <0>        -0.1552
      4 C4          0.6303   -2.0233   -1.3286 C.3       1 <0>        -0.0577
      5 C5          1.2271   -2.5002   -2.6276 C.ar      1 <0>        -0.0957
      6 C6          0.4280   -2.6268   -3.7491 C.ar      1 <0>        -0.0724
      7 C7          0.9725   -3.0641   -4.9407 C.ar      1 <0>        -0.2129
      8 C8          2.3226   -3.3762   -5.0120 C.ar      1 <0>         0.1274
      9 C9          3.1221   -3.2481   -3.8858 C.ar      1 <0>        -0.1422
     10 C10         2.5737   -2.8052   -2.6975 C.ar      1 <0>        -0.0357
     11 C11         4.5888   -3.5862   -3.9598 C.3       1 <0>         0.1752
     12 N1          4.7535   -5.0416   -3.9912 N.am      1 <0>        -0.7102
     13 C12         5.9877   -5.5789   -4.0575 C.2       1 <0>         0.5531
     14 O1          6.9644   -4.8558   -4.0913 O.2       1 <0>        -0.5376
     15 C13         6.1537   -7.0464   -4.0892 C.ar      1 <0>        -0.1246
     16 C14         5.0314   -7.8777   -4.0563 C.ar      1 <0>        -0.0818
     17 C15         5.1872   -9.2452   -4.0864 C.ar      1 <0>        -0.1179
     18 C16         6.4652   -9.8009   -4.1497 C.ar      1 <0>        -0.0266
     19 C17         7.5866   -8.9717   -4.1822 C.ar      1 <0>        -0.1190
     20 C18         7.4329   -7.6039   -4.1580 C.ar      1 <0>        -0.0568
     21 C19         6.6318  -11.2739   -4.1820 C.ar      1 <0>        -0.0478
     22 C20         5.5132  -12.1053   -4.1551 C.ar      1 <0>        -0.1082
     23 C21         5.6743  -13.4755   -4.1859 C.ar      1 <0>        -0.1188
     24 C22         6.9428  -14.0244   -4.2433 C.ar      1 <0>        -0.1186
     25 C23         8.0565  -13.2043   -4.2703 C.ar      1 <0>        -0.1187
     26 C24         7.9074  -11.8326   -4.2453 C.ar      1 <0>        -0.1081
     27 O2          2.8606   -3.8072   -6.1832 O.3       1 <0>        -0.3140
     28 C25         1.9777   -3.9157   -7.3016 C.3       1 <0>         0.0292
     29 C26         2.1652   -0.0794   -1.2080 C.2       1 <0>         0.5055
     30 O3          2.8790   -0.4588   -0.2952 O.co2     1 <0>        -0.7007
     31 O4          2.6222    0.6383   -2.0813 O.co2     1 <0>        -0.6992
     32 H1          1.0039    1.9031    0.0027 H         1 <0>         0.0589
     33 H2         -0.5459    1.8868   -0.8726 H         1 <0>         0.0456
     34 H3         -0.5289    1.8773    0.9072 H         1 <0>         0.0418
     35 H4          0.5293   -0.3651    0.8851 H         1 <0>         0.0634
     36 H5         -1.0205   -0.3814    0.0098 H         1 <0>         0.0431
     37 H6          0.2444   -0.0644   -2.1377 H         1 <0>         0.0574
     38 H7          1.1806   -2.4586   -0.4944 H         1 <0>         0.0740
     39 H8         -0.4142   -2.3300   -1.2744 H         1 <0>         0.0556
     40 H9         -0.6228   -2.3837   -3.6930 H         1 <0>         0.1208
     41 H10         0.3478   -3.1635   -5.8161 H         1 <0>         0.1236
     42 H11         3.1966   -2.7013   -1.8214 H         1 <0>         0.1372
     43 H12         5.0166   -3.1526   -4.8637 H         1 <0>         0.0792
     44 H13         5.0995   -3.1816   -3.0859 H         1 <0>         0.0810
     45 H14         3.9741   -5.6185   -3.9643 H         1 <0>         0.3979
     46 H15         4.0419   -7.4477   -4.0069 H         1 <0>         0.1290
     47 H16         4.3197   -9.8880   -4.0605 H         1 <0>         0.1307
     48 H17         8.5756   -9.4030   -4.2308 H         1 <0>         0.1315
     49 H18         8.3010   -6.9621   -4.1877 H         1 <0>         0.1396
     50 H19         4.5224  -11.6779   -4.1098 H         1 <0>         0.1269
     51 H20         4.8084  -14.1206   -4.1647 H         1 <0>         0.1243
     52 H21         7.0641  -15.0973   -4.2669 H         1 <0>         0.1222
     53 H22         9.0445  -13.6383   -4.3148 H         1 <0>         0.1244
     54 H23         8.7774  -11.1932   -4.2705 H         1 <0>         0.1271
     55 H24         1.1807   -4.6216   -7.0682 H         1 <0>         0.0515
     56 H25         1.5458   -2.9390   -7.5196 H         1 <0>         0.0535
     57 H26         2.5334   -4.2693   -8.1702 H         1 <0>         0.0944
@<TRIPOS>BOND
     1    1    2 1
     2    1   32 1
     3    1   33 1
     4    1   34 1
     5    2    3 1
     6    2   35 1
     7    2   36 1
     8    3    4 1
     9    3   29 1
    10    3   37 1
    11    4    5 1
    12    4   38 1
    13    4   39 1
    14    5   10 ar
    15    5    6 ar
    16    6    7 ar
    17    6   40 1
    18    7    8 ar
    19    7   41 1
    20    8    9 ar
    21    8   27 1
    22    9   10 ar
    23    9   11 1
    24   10   42 1
    25   11   12 1
    26   11   43 1
    27   11   44 1
    28   12   13 am
    29   12   45 1
    30   13   14 2
    31   13   15 1
    32   15   20 ar
    33   15   16 ar
    34   16   17 ar
    35   16   46 1
    36   17   18 ar
    37   17   47 1
    38   18   19 ar
    39   18   21 1
    40   19   20 ar
    41   19   48 1
    42   20   49 1
    43   21   26 ar
    44   21   22 ar
    45   22   23 ar
    46   22   50 1
    47   23   24 ar
    48   23   51 1
    49   24   25 ar
    50   24   52 1
    51   25   26 ar
    52   25   53 1
    53   26   54 1
    54   27   28 1
    55   28   55 1
    56   28   56 1
    57   28   57 1
    58   29   30 2
    59   29   31 1
@<TRIPOS>MOLECULE
CHEMBL270587__1
   57    59     0     0     0
SMALL
USER_CHARGES

@<TRIPOS>ATOM
      1 C1         -0.0187    1.5258    0.0104 C.3       1 <0>        -0.1508
      2 C2          0.0021   -0.0041    0.0020 C.3       1 <0>        -0.0911
      3 C3          0.7182   -0.4975   -1.2568 C.3       1 <0>        -0.1567
      4 C4          0.8493   -2.0210   -1.2049 C.3       1 <0>        -0.0532
      5 C5          1.6611   -2.4957   -2.3824 C.ar      1 <0>        -0.0939
      6 C6          1.0312   -2.8160   -3.5711 C.ar      1 <0>         0.0100
      7 C7          1.7730   -3.2518   -4.6516 C.ar      1 <0>        -0.2139
      8 C8          3.1515   -3.3676   -4.5439 C.ar      1 <0>         0.1303
      9 C9          3.7811   -3.0452   -3.3506 C.ar      1 <0>        -0.1635
     10 C10         3.0350   -2.6048   -2.2743 C.ar      1 <0>        -0.0657
     11 C11         5.2780   -3.1699   -3.2301 C.3       1 <0>         0.1808
     12 N1          5.6427   -4.5842   -3.1162 N.am      1 <0>        -0.7099
     13 C12         6.9375   -4.9388   -2.9968 C.2       1 <0>         0.5538
     14 O1          7.8028   -4.0850   -2.9838 O.2       1 <0>        -0.5420
     15 C13         7.3051   -6.3649   -2.8819 C.ar      1 <0>        -0.1270
     16 C14         6.3116   -7.3468   -2.9027 C.ar      1 <0>        -0.0811
     17 C15         6.6554   -8.6756   -2.7960 C.ar      1 <0>        -0.1180
     18 C16         7.9953   -9.0418   -2.6672 C.ar      1 <0>        -0.0251
     19 C17         8.9882   -8.0621   -2.6459 C.ar      1 <0>        -0.1197
     20 C18         8.6472   -6.7331   -2.7582 C.ar      1 <0>        -0.0571
     21 C19         8.3644  -10.4733   -2.5523 C.ar      1 <0>        -0.0489
     22 C20         7.3752  -11.4551   -2.5786 C.ar      1 <0>        -0.1078
     23 C21         7.7247  -12.7859   -2.4718 C.ar      1 <0>        -0.1186
     24 C22         9.0537  -13.1462   -2.3389 C.ar      1 <0>        -0.1180
     25 C23        10.0396  -12.1762   -2.3122 C.ar      1 <0>        -0.1189
     26 C24         9.7024  -10.8427   -2.4235 C.ar      1 <0>        -0.1080
     27 O2          3.8835   -3.7965   -5.6055 O.3       1 <0>        -0.3180
     28 C25         3.1684   -4.1111   -6.8020 C.3       1 <0>         0.0294
     29 C26        -0.0771   -0.1029   -2.4745 C.2       1 <0>         0.4961
     30 O3         -1.1200    0.5157   -2.3473 O.co2     1 <0>        -0.6950
     31 O4          0.3224   -0.4021   -3.5868 O.co2     1 <0>        -0.6880
     32 H1          1.0039    1.9031    0.0027 H         1 <0>         0.0340
     33 H2         -0.5459    1.8868   -0.8726 H         1 <0>         0.0843
     34 H3         -0.5289    1.8773    0.9072 H         1 <0>         0.0342
     35 H4          0.5293   -0.3651    0.8851 H         1 <0>         0.0346
     36 H5         -1.0205   -0.3814    0.0098 H         1 <0>         0.0575
     37 H6          1.7103   -0.0491   -1.3098 H         1 <0>         0.0604
     38 H7          1.3468   -2.3116   -0.2797 H         1 <0>         0.0559
     39 H8         -0.1422   -2.4724   -1.2416 H         1 <0>         0.0609
     40 H9         -0.0418   -2.7257   -3.6545 H         1 <0>         0.1227
     41 H10         1.2805   -3.5025   -5.5795 H         1 <0>         0.1205
     42 H11         3.5251   -2.3499   -1.3463 H         1 <0>         0.1209
     43 H12         5.7506   -2.7430   -4.1148 H         1 <0>         0.0758
     44 H13         5.6170   -2.6347   -2.3431 H         1 <0>         0.0727
     45 H14         4.9522   -5.2655   -3.1266 H         1 <0>         0.3993
     46 H15         5.2741   -7.0636   -3.0020 H         1 <0>         0.1297
     47 H16         5.8874   -9.4348   -2.8117 H         1 <0>         0.1312
     48 H17        10.0253   -8.3466   -2.5457 H         1 <0>         0.1313
     49 H18         9.4164   -5.9750   -2.7462 H         1 <0>         0.1389
     50 H19         6.3373  -11.1749   -2.6820 H         1 <0>         0.1272
     51 H20         6.9592  -13.5474   -2.4917 H         1 <0>         0.1247
     52 H21         9.3225  -14.1889   -2.2553 H         1 <0>         0.1225
     53 H22        11.0755  -12.4634   -2.2078 H         1 <0>         0.1244
     54 H23        10.4733  -10.0865   -2.4066 H         1 <0>         0.1269
     55 H24         2.4527   -4.9076   -6.5988 H         1 <0>         0.0515
     56 H25         2.6372   -3.2256   -7.1512 H         1 <0>         0.0553
     57 H26         3.8699   -4.4398   -7.5688 H         1 <0>         0.0925
@<TRIPOS>BOND
     1    1    2 1
     2    1   32 1
     3    1   33 1
     4    1   34 1
     5    2    3 1
     6    2   35 1
     7    2   36 1
     8    3    4 1
     9    3   29 1
    10    3   37 1
    11    4    5 1
    12    4   38 1
    13    4   39 1
    14    5   10 ar
    15    5    6 ar
    16    6    7 ar
    17    6   40 1
    18    7    8 ar
    19    7   41 1
    20    8    9 ar
    21    8   27 1
    22    9   10 ar
    23    9   11 1
    24   10   42 1
    25   11   12 1
    26   11   43 1
    27   11   44 1
    28   12   13 am
    29   12   45 1
    30   13   14 2
    31   13   15 1
    32   15   20 ar
    33   15   16 ar
    34   16   17 ar
    35   16   46 1
    36   17   18 ar
    37   17   47 1
    38   18   19 ar
    39   18   21 1
    40   19   20 ar
    41   19   48 1
    42   20   49 1
    43   21   26 ar
    44   21   22 ar
    45   22   23 ar
    46   22   50 1
    47   23   24 ar
    48   23   51 1
    49   24   25 ar
    50   24   52 1
    51   25   26 ar
    52   25   53 1
    53   26   54 1
    54   27   28 1
    55   28   55 1
    56   28   56 1
    57   28   57 1
    58   29   30 2
    59   29   31 1
@<TRIPOS>MOLECULE
CHEMBL219610
   53    56     0     0     0
SMALL
USER_CHARGES

@<TRIPOS>ATOM
      1 C1          0.1318    0.9782   -0.2165 C.ar      1 <0>        -0.2082
      2 C2          1.2714    1.7526   -0.1300 C.ar      1 <0>        -0.0706
      3 C3          2.5215    1.1747   -0.2764 C.ar      1 <0>        -0.1073
      4 C4          2.6307   -0.1841   -0.5100 C.ar      1 <0>        -0.0609
      5 C5          1.4903   -0.9630   -0.5966 C.ar      1 <0>        -0.1397
      6 C6          0.2388   -0.3847   -0.4506 C.ar      1 <0>         0.1136
      7 O1         -0.8802   -1.1512   -0.5365 O.3       1 <0>        -0.3151
      8 C7         -2.1353   -0.4872   -0.3758 C.3       1 <0>         0.0657
      9 C8         -3.2707   -1.5048   -0.5034 C.3       1 <0>        -0.1197
     10 C9         -4.6145   -0.7939   -0.3313 C.3       1 <0>         0.0611
     11 O2         -5.6749   -1.7444   -0.4505 O.3       1 <0>        -0.3011
     12 C10        -6.9431   -1.2732   -0.3219 C.ar      1 <0>         0.1950
     13 C11        -7.1596    0.0782   -0.0913 C.ar      1 <0>        -0.2335
     14 C12        -8.4503    0.5546    0.0423 C.ar      1 <0>         0.0148
     15 C13        -9.5194   -0.3108   -0.0539 C.ar      1 <0>        -0.2424
     16 C14        -9.3151   -1.6644   -0.2910 C.ar      1 <0>         0.1316
     17 C15        -8.0167   -2.1416   -0.4267 C.ar      1 <0>        -0.1658
     18 O3        -10.5089   -2.3157   -0.3658 O.3       1 <0>        -0.1156
     19 N1        -11.5362   -1.4678    0.2598 N.3       1 <0>        -0.4513
     20 C16       -11.0147   -0.0928    0.0562 C.3       1 <0>         0.2646
     21 C17       -11.5703    0.5114   -1.2349 C.3       1 <0>         0.4597
     22 F1        -11.3178   -0.3567   -2.3025 F         1 <0>        -0.1586
     23 F2        -12.9503    0.7014   -1.1047 F         1 <0>        -0.1728
     24 F3        -10.9511    1.7421   -1.4781 F         1 <0>        -0.1648
     25 O4        -11.3236    0.7365    1.1782 O.3       1 <0>        -0.5151
     26 C18         4.0903   -0.5664   -0.6324 C.3       1 <0>        -0.0829
     27 C19         4.8358    0.7612   -0.8849 C.3       1 <0>        -0.1020
     28 C20         3.9006    1.7971   -0.2259 C.3       1 <0>        -0.0268
     29 H1          4.1988    1.9723    0.8078 H         1 <0>         0.0890
     30 C21         3.9206    3.1080   -1.0146 C.3       1 <0>        -0.1741
     31 C22         5.2573    3.7808   -0.8369 C.2       1 <0>         0.4909
     32 O5          6.0756    3.3158   -0.0618 O.co2     1 <0>        -0.6953
     33 O6          5.5204    4.7902   -1.4681 O.co2     1 <0>        -0.7080
     34 H2         -0.8410    1.4321   -0.0976 H         1 <0>         0.1233
     35 H3          1.1877    2.8138    0.0524 H         1 <0>         0.1225
     36 H4          1.5754   -2.0240   -0.7793 H         1 <0>         0.1242
     37 H5         -2.1755   -0.0194    0.6079 H         1 <0>         0.0646
     38 H6         -2.2436    0.2765   -1.1459 H         1 <0>         0.0652
     39 H7         -3.2304   -1.9726   -1.4871 H         1 <0>         0.0883
     40 H8         -3.1624   -2.2685    0.2668 H         1 <0>         0.0878
     41 H9         -4.6547   -0.3261    0.6524 H         1 <0>         0.0729
     42 H10        -4.7228   -0.0302   -1.1015 H         1 <0>         0.0735
     43 H11        -6.3218    0.7557   -0.0162 H         1 <0>         0.1454
     44 H12        -8.6215    1.6056    0.2225 H         1 <0>         0.1407
     45 H13        -7.8447   -3.1920   -0.6102 H         1 <0>         0.1500
     46 H14       -11.6289   -1.6776    1.2424 H         1 <0>         0.3751
     47 H15       -12.2685    0.9066    1.2933 H         1 <0>         0.3992
     48 H16         4.4395   -1.0264    0.2920 H         1 <0>         0.0795
     49 H17         4.2340   -1.2464   -1.4720 H         1 <0>         0.0710
     50 H18         5.8116    0.7560   -0.3992 H         1 <0>         0.0856
     51 H19         4.9346    0.9529   -1.9533 H         1 <0>         0.0644
     52 H20         3.7570    2.8985   -2.0717 H         1 <0>         0.0567
     53 H21         3.1316    3.7647   -0.6481 H         1 <0>         0.0557
@<TRIPOS>BOND
     1    1    6 ar
     2    1    2 ar
     3    1   34 1
     4    2    3 ar
     5    2   35 1
     6    3   28 1
     7    3    4 ar
     8    4    5 ar
     9    4   26 1
    10    5    6 ar
    11    5   36 1
    12    6    7 1
    13    7    8 1
    14    8    9 1
    15    8   37 1
    16    8   38 1
    17    9   10 1
    18    9   39 1
    19    9   40 1
    20   10   11 1
    21   10   41 1
    22   10   42 1
    23   11   12 1
    24   12   17 ar
    25   12   13 ar
    26   13   14 ar
    27   13   43 1
    28   14   15 ar
    29   14   44 1
    30   15   20 1
    31   15   16 ar
    32   16   17 ar
    33   16   18 1
    34   17   45 1
    35   18   19 1
    36   19   20 1
    37   19   46 1
    38   20   21 1
    39   20   25 1
    40   21   22 1
    41   21   23 1
    42   21   24 1
    43   25   47 1
    44   26   27 1
    45   26   48 1
    46   26   49 1
    47   27   28 1
    48   27   50 1
    49   27   51 1
    50   28   29 1
    51   28   30 1
    52   30   31 1
    53   30   52 1
    54   30   53 1
    55   31   32 2
    56   31   33 1
@<TRIPOS>MOLECULE
CHEMBL219610__1
   53    56     0     0     0
SMALL
USER_CHARGES

@<TRIPOS>ATOM
      1 C1          0.1318    0.9782   -0.2165 C.ar      1 <0>        -0.2082
      2 C2          1.2714    1.7526   -0.1300 C.ar      1 <0>        -0.0705
      3 C3          2.5215    1.1747   -0.2764 C.ar      1 <0>        -0.1075
      4 C4          2.6307   -0.1841   -0.5100 C.ar      1 <0>        -0.0610
      5 C5          1.4903   -0.9630   -0.5966 C.ar      1 <0>        -0.1398
      6 C6          0.2388   -0.3847   -0.4506 C.ar      1 <0>         0.1138
      7 O1         -0.8802   -1.1512   -0.5365 O.3       1 <0>        -0.3151
      8 C7         -2.1353   -0.4872   -0.3758 C.3       1 <0>         0.0656
      9 C8         -3.2707   -1.5048   -0.5034 C.3       1 <0>        -0.1196
     10 C9         -4.6145   -0.7939   -0.3313 C.3       1 <0>         0.0610
     11 O2         -5.6749   -1.7444   -0.4505 O.3       1 <0>        -0.3012
     12 C10        -6.9431   -1.2732   -0.3219 C.ar      1 <0>         0.1968
     13 C11        -7.1596    0.0782   -0.0913 C.ar      1 <0>        -0.2329
     14 C12        -8.4503    0.5546    0.0423 C.ar      1 <0>         0.0044
     15 C13        -9.5194   -0.3108   -0.0539 C.ar      1 <0>        -0.2201
     16 C14        -9.3151   -1.6644   -0.2910 C.ar      1 <0>         0.1679
     17 C15        -8.0167   -2.1416   -0.4267 C.ar      1 <0>        -0.1701
     18 O3        -10.5089   -2.3157   -0.3658 O.3       1 <0>        -0.1339
     19 N1        -11.5362   -1.4678    0.2598 N.3       1 <0>        -0.4473
     20 C16       -11.0147   -0.0928    0.0562 C.3       1 <0>         0.2564
     21 C17       -11.3454    0.7951    1.2576 C.3       1 <0>         0.4591
     22 F1        -10.7178    2.0363    1.1069 F         1 <0>        -0.1632
     23 F2        -12.7301    0.9790    1.3343 F         1 <0>        -0.1773
     24 F3        -10.8907    0.1819    2.4299 F         1 <0>        -0.1556
     25 O4        -11.5337    0.4715   -1.1497 O.3       1 <0>        -0.5339
     26 C18         4.0903   -0.5664   -0.6324 C.3       1 <0>        -0.0829
     27 C19         4.8358    0.7612   -0.8849 C.3       1 <0>        -0.1020
     28 C20         3.9006    1.7971   -0.2259 C.3       1 <0>        -0.0267
     29 H1          4.1988    1.9723    0.8078 H         1 <0>         0.0890
     30 C21         3.9206    3.1080   -1.0146 C.3       1 <0>        -0.1740
     31 C22         5.2573    3.7808   -0.8369 C.2       1 <0>         0.4909
     32 O5          6.0756    3.3158   -0.0618 O.co2     1 <0>        -0.6953
     33 O6          5.5204    4.7902   -1.4681 O.co2     1 <0>        -0.7081
     34 H2         -0.8410    1.4321   -0.0976 H         1 <0>         0.1235
     35 H3          1.1877    2.8138    0.0524 H         1 <0>         0.1225
     36 H4          1.5754   -2.0240   -0.7793 H         1 <0>         0.1241
     37 H5         -2.1755   -0.0194    0.6079 H         1 <0>         0.0649
     38 H6         -2.2436    0.2765   -1.1459 H         1 <0>         0.0650
     39 H7         -3.2304   -1.9726   -1.4871 H         1 <0>         0.0879
     40 H8         -3.1624   -2.2685    0.2668 H         1 <0>         0.0880
     41 H9         -4.6547   -0.3261    0.6524 H         1 <0>         0.0734
     42 H10        -4.7228   -0.0302   -1.1015 H         1 <0>         0.0731
     43 H11        -6.3218    0.7557   -0.0162 H         1 <0>         0.1455
     44 H12        -8.6215    1.6056    0.2225 H         1 <0>         0.1403
     45 H13        -7.8447   -3.1920   -0.6102 H         1 <0>         0.1496
     46 H14       -12.4292   -1.5868   -0.1946 H         1 <0>         0.3789
     47 H15       -12.4873    0.6308   -1.1308 H         1 <0>         0.3920
     48 H16         4.4395   -1.0264    0.2920 H         1 <0>         0.0795
     49 H17         4.2340   -1.2464   -1.4720 H         1 <0>         0.0709
     50 H18         5.8116    0.7560   -0.3992 H         1 <0>         0.0855
     51 H19         4.9346    0.9529   -1.9533 H         1 <0>         0.0643
     52 H20         3.7570    2.8985   -2.0717 H         1 <0>         0.0567
     53 H21         3.1316    3.7647   -0.6481 H         1 <0>         0.0557
@<TRIPOS>BOND
     1    1    6 ar
     2    1    2 ar
     3    1   34 1
     4    2    3 ar
     5    2   35 1
     6    3   28 1
     7    3    4 ar
     8    4    5 ar
     9    4   26 1
    10    5    6 ar
    11    5   36 1
    12    6    7 1
    13    7    8 1
    14    8    9 1
    15    8   37 1
    16    8   38 1
    17    9   10 1
    18    9   39 1
    19    9   40 1
    20   10   11 1
    21   10   41 1
    22   10   42 1
    23   11   12 1
    24   12   17 ar
    25   12   13 ar
    26   13   14 ar
    27   13   43 1
    28   14   15 ar
    29   14   44 1
    30   15   20 1
    31   15   16 ar
    32   16   17 ar
    33   16   18 1
    34   17   45 1
    35   18   19 1
    36   19   20 1
    37   19   46 1
    38   20   21 1
    39   20   25 1
    40   21   22 1
    41   21   23 1
    42   21   24 1
    43   25   47 1
    44   26   27 1
    45   26   48 1
    46   26   49 1
    47   27   28 1
    48   27   50 1
    49   27   51 1
    50   28   29 1
    51   28   30 1
    52   30   31 1
    53   30   52 1
    54   30   53 1
    55   31   32 2
    56   31   33 1
@<TRIPOS>MOLECULE
CHEMBL435278
   65    67     0     0     0
SMALL
USER_CHARGES

@<TRIPOS>ATOM
      1 C1         -1.3596   -0.8101   -0.2675 C.3       1 <0>        -0.1149
      2 C2          0.1176   -0.4121   -0.2482 C.3       1 <0>         0.0297
      3 C3          0.2658    1.0232   -0.7571 C.3       1 <0>        -0.1726
      4 C4          0.6438   -0.5022    1.1611 C.2       1 <0>         0.4817
      5 O1          1.5687   -1.2533    1.4195 O.co2     1 <0>        -0.6684
      6 O2          0.1445    0.1759    2.0427 O.co2     1 <0>        -0.6864
      7 O3          0.8600   -1.2954   -1.0913 O.3       1 <0>        -0.3048
      8 C5          2.1971   -1.0744   -1.1911 C.ar      1 <0>         0.1649
      9 C6          2.8026   -0.1083   -0.4008 C.ar      1 <0>        -0.1519
     10 C7          4.1622    0.1141   -0.5039 C.ar      1 <0>        -0.0906
     11 C8          4.9193   -0.6249   -1.3940 C.ar      1 <0>        -0.1395
     12 C9          4.3181   -1.5881   -2.1831 C.ar      1 <0>        -0.0928
     13 C10         2.9600   -1.8186   -2.0794 C.ar      1 <0>        -0.1713
     14 C11         6.4021   -0.3799   -1.5047 C.3       1 <0>        -0.0607
     15 C12         7.1435   -1.2845   -0.5184 C.3       1 <0>        -0.1312
     16 C13         8.6490   -1.0357   -0.6308 C.3       1 <0>         0.1312
     17 N1          9.3589   -1.9020    0.3136 N.am      1 <0>        -0.6151
     18 C14         9.7965   -3.2365   -0.1031 C.3       1 <0>         0.1114
     19 C15        11.2071   -3.1508   -0.6894 C.3       1 <0>        -0.1072
     20 C16        11.6572   -4.5236   -1.1181 C.ar      1 <0>        -0.1109
     21 C17        12.3233   -5.3448   -0.2241 C.ar      1 <0>         0.1146
     22 C18        12.7363   -6.6058   -0.6192 C.ar      1 <0>        -0.1458
     23 C19        12.4837   -7.0443   -1.9055 C.ar      1 <0>        -0.0790
     24 C20        11.8189   -6.2247   -2.7978 C.ar      1 <0>        -0.1167
     25 C21        11.4003   -4.9662   -2.4028 C.ar      1 <0>        -0.0061
     26 Cl1        10.5591   -3.9401   -3.5223 Cl        1 <0>        -0.0461
     27 F1         12.5703   -4.9156    1.0329 F         1 <0>        -0.1286
     28 C22         9.6095   -1.4711    1.5658 C.2       1 <0>         0.7096
     29 O4          9.2463   -0.3634    1.9117 O.2       1 <0>        -0.5580
     30 N2         10.2626   -2.2680    2.4346 N.am      1 <0>        -0.6814
     31 C23        10.4226   -1.8683    3.7669 C.ar      1 <0>         0.1935
     32 C24        10.4740   -0.5181    4.0867 C.ar      1 <0>        -0.1154
     33 C25        10.6314   -0.1261    5.4018 C.ar      1 <0>        -0.0802
     34 C26        10.7383   -1.0763    6.4006 C.ar      1 <0>        -0.1212
     35 C27        10.6876   -2.4230    6.0867 C.ar      1 <0>        -0.0100
     36 C28        10.5244   -2.8217    4.7721 C.ar      1 <0>        -0.0704
     37 Cl2        10.4540   -4.5110    4.3784 Cl        1 <0>        -0.0468
     38 Cl3        10.8228   -3.6126    7.3437 Cl        1 <0>        -0.0482
     39 H1         -1.7615   -0.6665   -1.2705 H         1 <0>         0.0500
     40 H2         -1.4573   -1.8579    0.0165 H         1 <0>         0.0563
     41 H3         -1.9124   -0.1894    0.4377 H         1 <0>         0.0779
     42 H4         -0.1839    1.7108   -0.0409 H         1 <0>         0.0741
     43 H5          1.3233    1.2600   -0.8735 H         1 <0>         0.0674
     44 H6         -0.2366    1.1211   -1.7195 H         1 <0>         0.0501
     45 H7          2.2116    0.4698    0.2941 H         1 <0>         0.1383
     46 H8          4.6340    0.8662    0.1111 H         1 <0>         0.1123
     47 H9          4.9116   -2.1638   -2.8779 H         1 <0>         0.1142
     48 H10         2.4916   -2.5741   -2.6927 H         1 <0>         0.1175
     49 H11         6.7322   -0.6014   -2.5196 H         1 <0>         0.0641
     50 H12         6.6163    0.6633   -1.2725 H         1 <0>         0.0672
     51 H13         6.8134   -1.0630    0.4965 H         1 <0>         0.0719
     52 H14         6.9293   -2.3277   -0.7506 H         1 <0>         0.0639
     53 H15         8.9791   -1.2572   -1.6457 H         1 <0>         0.0792
     54 H16         8.8632    0.0075   -0.3986 H         1 <0>         0.0892
     55 H17         9.8013   -3.9031    0.7593 H         1 <0>         0.0745
     56 H18         9.1123   -3.6240   -0.8580 H         1 <0>         0.0954
     57 H19        11.2023   -2.4842   -1.5518 H         1 <0>         0.0962
     58 H20        11.8914   -2.7633    0.0655 H         1 <0>         0.0827
     59 H21        13.2562   -7.2467    0.0775 H         1 <0>         0.1433
     60 H22        12.8064   -8.0279   -2.2134 H         1 <0>         0.1439
     61 H23        11.6224   -6.5681   -3.8027 H         1 <0>         0.1425
     62 H24        10.6219   -3.1184    2.1369 H         1 <0>         0.4101
     63 H25        10.3914    0.2253    3.3076 H         1 <0>         0.1681
     64 H26        10.6714    0.9242    5.6502 H         1 <0>         0.1430
     65 H27        10.8620   -0.7667    7.4279 H         1 <0>         0.1425
@<TRIPOS>BOND
     1    1    2 1
     2    1   39 1
     3    1   40 1
     4    1   41 1
     5    2    3 1
     6    2    4 1
     7    2    7 1
     8    3   42 1
     9    3   43 1
    10    3   44 1
    11    4    5 2
    12    4    6 1
    13    7    8 1
    14    8   13 ar
    15    8    9 ar
    16    9   10 ar
    17    9   45 1
    18   10   11 ar
    19   10   46 1
    20   11   12 ar
    21   11   14 1
    22   12   13 ar
    23   12   47 1
    24   13   48 1
    25   14   15 1
    26   14   49 1
    27   14   50 1
    28   15   16 1
    29   15   51 1
    30   15   52 1
    31   16   17 1
    32   16   53 1
    33   16   54 1
    34   17   18 1
    35   17   28 am
    36   18   19 1
    37   18   55 1
    38   18   56 1
    39   19   20 1
    40   19   57 1
    41   19   58 1
    42   20   25 ar
    43   20   21 ar
    44   21   22 ar
    45   21   27 1
    46   22   23 ar
    47   22   59 1
    48   23   24 ar
    49   23   60 1
    50   24   25 ar
    51   24   61 1
    52   25   26 1
    53   28   29 2
    54   28   30 am
    55   30   31 1
    56   30   62 1
    57   31   36 ar
    58   31   32 ar
    59   32   33 ar
    60   32   63 1
    61   33   34 ar
    62   33   64 1
    63   34   35 ar
    64   34   65 1
    65   35   36 ar
    66   35   38 1
    67   36   37 1
@<TRIPOS>MOLECULE
CHEMBL201880
   69    73     0     0     0
SMALL
USER_CHARGES

@<TRIPOS>ATOM
      1 C1         -0.6540    1.0471    0.5607 C.3       1 <0>        -0.1522
      2 C2         -0.4152   -0.4263    0.2244 C.3       1 <0>        -0.1173
      3 C3          0.5384   -0.5293   -0.9676 C.3       1 <0>        -0.0705
      4 C4          0.7737   -1.9805   -1.2987 C.ar      1 <0>        -0.1245
      5 C5          1.8261   -2.6815   -0.6910 C.ar      1 <0>         0.0161
      6 C6          2.6786   -2.0490    0.2343 C.ar      1 <0>        -0.1228
      7 C7          3.6905   -2.7441    0.8109 C.ar      1 <0>        -0.0615
      8 C8          3.9044   -4.0998    0.4972 C.ar      1 <0>        -0.1747
      9 C9          3.0814   -4.7505   -0.4100 C.ar      1 <0>        -0.0391
     10 C10         2.0309   -4.0474   -1.0158 C.ar      1 <0>        -0.0984
     11 C11         1.1762   -4.6768   -1.9402 C.ar      1 <0>        -0.0586
     12 C12         0.1640   -3.9743   -2.5137 C.ar      1 <0>        -0.1893
     13 C13        -0.0466   -2.6283   -2.1953 C.ar      1 <0>         0.1513
     14 O1         -1.0690   -1.9520   -2.7798 O.3       1 <0>        -0.3027
     15 C14        -1.8847   -2.6786   -3.7011 C.3       1 <0>         0.0611
     16 C15        -2.9751   -1.7581   -4.2528 C.3       1 <0>        -0.1178
     17 C16        -3.8485   -2.5361   -5.2392 C.3       1 <0>         0.0668
     18 O2         -4.8669   -1.6763   -5.7545 O.3       1 <0>        -0.3172
     19 C17        -5.7352   -2.2161   -6.6512 C.ar      1 <0>         0.0855
     20 C18        -5.6083   -3.5527   -7.0211 C.ar      1 <0>        -0.1889
     21 C19        -6.4791   -4.1152   -7.9272 C.ar      1 <0>        -0.0761
     22 C20        -7.4973   -3.3471   -8.4823 C.ar      1 <0>         0.0882
     23 C21        -7.6280   -1.9972   -8.1108 C.ar      1 <0>        -0.0750
     24 C22        -6.7422   -1.4384   -7.1867 C.ar      1 <0>        -0.1116
     25 C23        -8.7757   -1.4798   -8.8598 C.2       1 <0>        -0.2343
     26 C24        -9.2492   -2.4928   -9.6027 C.2       1 <0>         0.0795
     27 N1         -8.4988   -3.6169   -9.3910 N.pl3     1 <0>        -0.4416
     28 C25        -8.7248   -4.9135  -10.0344 C.3       1 <0>         0.0318
     29 C26        -9.5660   -5.7812   -9.1340 C.2       1 <0>         0.4801
     30 O3         -9.9418   -5.3559   -8.0549 O.co2     1 <0>        -0.6713
     31 O4         -9.8707   -6.9084   -9.4846 O.co2     1 <0>        -0.6928
     32 C27         5.0128   -4.8337    1.1379 C.2       1 <0>         0.4398
     33 O5          5.6483   -4.3135    2.0344 O.2       1 <0>        -0.4478
     34 C28         5.3502   -6.2007    0.6899 C.ar      1 <0>        -0.1553
     35 C29         5.2146   -6.5517   -0.6551 C.ar      1 <0>        -0.0877
     36 C30         5.5313   -7.8296   -1.0663 C.ar      1 <0>        -0.1276
     37 C31         5.9821   -8.7632   -0.1496 C.ar      1 <0>        -0.0935
     38 C32         6.1184   -8.4224    1.1847 C.ar      1 <0>        -0.1269
     39 C33         5.8116   -7.1462    1.6086 C.ar      1 <0>        -0.0675
     40 H1          0.2949    1.5207    0.8125 H         1 <0>         0.0525
     41 H2         -1.0936    1.5497   -0.3008 H         1 <0>         0.0559
     42 H3         -1.3334    1.1205    1.4099 H         1 <0>         0.0541
     43 H4          0.0244   -0.9289    1.0860 H         1 <0>         0.0600
     44 H5         -1.3641   -0.8999   -0.0274 H         1 <0>         0.0644
     45 H6          0.0988   -0.0267   -1.8291 H         1 <0>         0.0794
     46 H7          1.4873   -0.0557   -0.7157 H         1 <0>         0.0717
     47 H8          2.5267   -1.0094    0.4848 H         1 <0>         0.1359
     48 H9          4.3403   -2.2515    1.5190 H         1 <0>         0.1335
     49 H10         3.2488   -5.7906   -0.6480 H         1 <0>         0.1437
     50 H11         1.3248   -5.7161   -2.1936 H         1 <0>         0.1348
     51 H12        -0.4886   -4.4625   -3.2223 H         1 <0>         0.1355
     52 H13        -1.2681   -3.0442   -4.5222 H         1 <0>         0.0679
     53 H14        -2.3466   -3.5231   -3.1896 H         1 <0>         0.0687
     54 H15        -3.5917   -1.3925   -3.4317 H         1 <0>         0.0861
     55 H16        -2.5132   -0.9136   -4.7643 H         1 <0>         0.0854
     56 H17        -3.2319   -2.9017   -6.0603 H         1 <0>         0.0612
     57 H18        -4.3104   -3.3806   -4.7277 H         1 <0>         0.0624
     58 H19        -4.8193   -4.1535   -6.5935 H         1 <0>         0.1225
     59 H20        -6.3713   -5.1527   -8.2073 H         1 <0>         0.1178
     60 H21        -6.8420   -0.4031   -6.8959 H         1 <0>         0.1237
     61 H22        -9.1673   -0.4740   -8.8213 H         1 <0>         0.1414
     62 H23       -10.0969   -2.4297  -10.2688 H         1 <0>         0.1607
     63 H24        -9.2426   -4.7637  -10.9818 H         1 <0>         0.0877
     64 H25        -7.7669   -5.4005  -10.2169 H         1 <0>         0.0822
     65 H26         4.8622   -5.8244   -1.3715 H         1 <0>         0.1355
     66 H27         5.4269   -8.1024   -2.1061 H         1 <0>         0.1309
     67 H28         6.2283   -9.7625   -0.4770 H         1 <0>         0.1280
     68 H29         6.4700   -9.1560    1.8949 H         1 <0>         0.1299
     69 H30         5.9231   -6.8801    2.6494 H         1 <0>         0.1310
@<TRIPOS>BOND
     1    1    2 1
     2    1   40 1
     3    1   41 1
     4    1   42 1
     5    2    3 1
     6    2   43 1
     7    2   44 1
     8    3    4 1
     9    3   45 1
    10    3   46 1
    11    4   13 ar
    12    4    5 ar
    13    5   10 ar
    14    5    6 ar
    15    6    7 ar
    16    6   47 1
    17    7    8 ar
    18    7   48 1
    19    8    9 ar
    20    8   32 1
    21    9   10 ar
    22    9   49 1
    23   10   11 ar
    24   11   12 ar
    25   11   50 1
    26   12   13 ar
    27   12   51 1
    28   13   14 1
    29   14   15 1
    30   15   16 1
    31   15   52 1
    32   15   53 1
    33   16   17 1
    34   16   54 1
    35   16   55 1
    36   17   18 1
    37   17   56 1
    38   17   57 1
    39   18   19 1
    40   19   24 ar
    41   19   20 ar
    42   20   21 ar
    43   20   58 1
    44   21   22 ar
    45   21   59 1
    46   22   27 1
    47   22   23 ar
    48   23   24 ar
    49   23   25 1
    50   24   60 1
    51   25   26 2
    52   25   61 1
    53   26   27 1
    54   26   62 1
    55   27   28 1
    56   28   29 1
    57   28   63 1
    58   28   64 1
    59   29   30 2
    60   29   31 1
    61   32   33 2
    62   32   34 1
    63   34   39 ar
    64   34   35 ar
    65   35   36 ar
    66   35   65 1
    67   36   37 ar
    68   36   66 1
    69   37   38 ar
    70   37   67 1
    71   38   39 ar
    72   38   68 1
    73   39   69 1
@<TRIPOS>MOLECULE
CHEMBL118753
   70    73     0     0     0
SMALL
USER_CHARGES

@<TRIPOS>ATOM
      1 C1          0.3997    1.6980   -0.7289 C.3       1 <0>        -0.1525
      2 C2          0.3262    0.1851   -0.5126 C.3       1 <0>        -0.1160
      3 C3          0.9158   -0.5331   -1.7281 C.3       1 <0>        -0.0726
      4 C4          0.8434   -2.0232   -1.5150 C.ar      1 <0>        -0.0696
      5 C5          1.9296   -2.7002   -0.9949 C.ar      1 <0>        -0.1142
      6 C6          1.8629   -4.0713   -0.7984 C.ar      1 <0>         0.1034
      7 C7          0.7055   -4.7631   -1.1240 C.ar      1 <0>        -0.1748
      8 C8         -0.3804   -4.0864   -1.6439 C.ar      1 <0>        -0.1659
      9 C9         -0.3155   -2.7140   -1.8356 C.ar      1 <0>         0.0945
     10 O1         -1.3866   -2.0468   -2.3422 O.3       1 <0>        -0.3067
     11 C10        -2.5473   -2.8216   -2.6500 C.3       1 <0>         0.0646
     12 C11        -3.6398   -1.9053   -3.2047 C.3       1 <0>        -0.1195
     13 C12        -4.8825   -2.7349   -3.5342 C.3       1 <0>         0.0635
     14 O2         -5.9028   -1.8790   -4.0523 O.3       1 <0>        -0.3078
     15 C13        -7.0808   -2.4623   -4.3973 C.ar      1 <0>         0.1361
     16 C14        -7.2532   -3.8295   -4.2350 C.ar      1 <0>        -0.1914
     17 C15        -8.4516   -4.4198   -4.5860 C.ar      1 <0>        -0.0708
     18 C16        -9.4792   -3.6494   -5.0988 C.ar      1 <0>        -0.1323
     19 C17        -9.3098   -2.2871   -5.2619 C.ar      1 <0>        -0.0409
     20 C18        -8.1150   -1.6909   -4.9069 C.ar      1 <0>        -0.1186
     21 C19       -10.4315   -1.4506   -5.8214 C.3       1 <0>        -0.0337
     22 C20       -11.7303   -1.6872   -5.0634 C.2       1 <0>         0.5342
     23 O3        -11.8485   -1.4305   -3.8844 O.2       1 <0>        -0.4481
     24 N1        -12.7205   -2.1924   -5.7795 N.am      1 <0>        -0.6896
     25 C21       -12.6146   -2.4863   -7.0887 C.2       1 <0>         0.5629
     26 O4        -13.4644   -2.9498   -7.8242 O.2       1 <0>        -0.4136
     27 S1        -10.9336   -2.0354   -7.4937 S.3       1 <0>        -0.1363
     28 O5          2.9322   -4.7377   -0.2869 O.3       1 <0>        -0.3131
     29 C22         2.8392   -6.1623   -0.2237 C.3       1 <0>         0.0957
     30 C23         2.0759   -6.5566    1.0572 C.3       1 <0>        -0.1422
     31 C24         1.5370   -7.9506    0.8823 C.3       1 <0>        -0.1188
     32 C25         2.4808   -9.0238    1.4577 C.3       1 <0>        -0.1185
     33 C26         3.9633   -8.7467    1.1425 C.3       1 <0>        -0.1238
     34 C27         4.1721   -8.2669   -0.2683 C.3       1 <0>        -0.1093
     35 C28         4.1810   -6.7245   -0.2653 C.3       1 <0>        -0.1248
     36 H1          1.4400    1.9965   -0.8580 H         1 <0>         0.0538
     37 H2         -0.1684    1.9656   -1.6199 H         1 <0>         0.0549
     38 H3         -0.0203    2.2097    0.1370 H         1 <0>         0.0543
     39 H4          0.8943   -0.0825    0.3784 H         1 <0>         0.0606
     40 H5         -0.7141   -0.1133   -0.3835 H         1 <0>         0.0641
     41 H6          0.3477   -0.2655   -2.6191 H         1 <0>         0.0785
     42 H7          1.9561   -0.2346   -1.8572 H         1 <0>         0.0721
     43 H8          2.8309   -2.1616   -0.7418 H         1 <0>         0.1368
     44 H9          0.6536   -5.8310   -0.9713 H         1 <0>         0.1315
     45 H10        -1.2813   -4.6251   -1.8981 H         1 <0>         0.1286
     46 H11        -2.2935   -3.5763   -3.3943 H         1 <0>         0.0642
     47 H12        -2.9081   -3.3107   -1.7451 H         1 <0>         0.0643
     48 H13        -3.8936   -1.1506   -2.4603 H         1 <0>         0.0882
     49 H14        -3.2790   -1.4163   -4.1096 H         1 <0>         0.0881
     50 H15        -4.6286   -3.4896   -4.2785 H         1 <0>         0.0683
     51 H16        -5.2432   -3.2239   -2.6293 H         1 <0>         0.0681
     52 H17        -6.4508   -4.4316   -3.8349 H         1 <0>         0.1336
     53 H18        -8.5861   -5.4839   -4.4602 H         1 <0>         0.1336
     54 H19       -10.4154   -4.1128   -5.3726 H         1 <0>         0.1208
     55 H20        -7.9847   -0.6259   -5.0303 H         1 <0>         0.1407
     56 H21       -10.1657   -0.3936   -5.8341 H         1 <0>         0.1697
     57 H22       -13.5677   -2.3604   -5.3380 H         1 <0>         0.4203
     58 H23         2.2805   -6.5179   -1.0895 H         1 <0>         0.0677
     59 H24         2.7539   -6.5305    1.9102 H         1 <0>         0.0775
     60 H25         1.2510   -5.8629    1.2201 H         1 <0>         0.0718
     61 H26         0.5731   -8.0219    1.3862 H         1 <0>         0.0646
     62 H27         1.3920   -8.1419   -0.1809 H         1 <0>         0.0604
     63 H28         2.3525   -9.0614    2.5394 H         1 <0>         0.0611
     64 H29         2.2077   -9.9927    1.0397 H         1 <0>         0.0610
     65 H30         4.3345   -7.9882    1.8316 H         1 <0>         0.0635
     66 H31         4.5328   -9.6642    1.2908 H         1 <0>         0.0623
     67 H32         5.1258   -8.6378   -0.6438 H         1 <0>         0.0724
     68 H33         3.3612   -8.6271   -0.9014 H         1 <0>         0.0675
     69 H34         4.6834   -6.3725   -1.1662 H         1 <0>         0.0713
     70 H35         4.7367   -6.3764    0.6055 H         1 <0>         0.0747
@<TRIPOS>BOND
     1    1    2 1
     2    1   36 1
     3    1   37 1
     4    1   38 1
     5    2    3 1
     6    2   39 1
     7    2   40 1
     8    3    4 1
     9    3   41 1
    10    3   42 1
    11    4    9 ar
    12    4    5 ar
    13    5    6 ar
    14    5   43 1
    15    6    7 ar
    16    6   28 1
    17    7    8 ar
    18    7   44 1
    19    8    9 ar
    20    8   45 1
    21    9   10 1
    22   10   11 1
    23   11   12 1
    24   11   46 1
    25   11   47 1
    26   12   13 1
    27   12   48 1
    28   12   49 1
    29   13   14 1
    30   13   50 1
    31   13   51 1
    32   14   15 1
    33   15   20 ar
    34   15   16 ar
    35   16   17 ar
    36   16   52 1
    37   17   18 ar
    38   17   53 1
    39   18   19 ar
    40   18   54 1
    41   19   20 ar
    42   19   21 1
    43   20   55 1
    44   21   27 1
    45   21   22 1
    46   21   56 1
    47   22   23 2
    48   22   24 am
    49   24   25 am
    50   24   57 1
    51   25   26 2
    52   25   27 1
    53   28   29 1
    54   29   35 1
    55   29   30 1
    56   29   58 1
    57   30   31 1
    58   30   59 1
    59   30   60 1
    60   31   32 1
    61   31   61 1
    62   31   62 1
    63   32   33 1
    64   32   63 1
    65   32   64 1
    66   33   34 1
    67   33   65 1
    68   33   66 1
    69   34   35 1
    70   34   67 1
    71   34   68 1
    72   35   69 1
    73   35   70 1
@<TRIPOS>MOLECULE
CHEMBL118753__1
   70    73     0     0     0
SMALL
USER_CHARGES

@<TRIPOS>ATOM
      1 C1         -0.0862    1.4932   -0.5913 C.3       1 <0>        -0.1525
      2 C2         -0.0487   -0.0364   -0.5833 C.3       1 <0>        -0.1160
      3 C3          0.8930   -0.5291   -1.6839 C.3       1 <0>        -0.0726
      4 C4          0.9299   -2.0357   -1.6761 C.ar      1 <0>        -0.0695
      5 C5          1.9219   -2.6987   -0.9796 C.ar      1 <0>        -0.1140
      6 C6          1.9556   -4.0850   -0.9720 C.ar      1 <0>         0.1032
      7 C7          0.9933   -4.8060   -1.6638 C.ar      1 <0>        -0.1752
      8 C8          0.0017   -4.1432   -2.3600 C.ar      1 <0>        -0.1657
      9 C9         -0.0351   -2.7565   -2.3632 C.ar      1 <0>         0.0946
     10 O1         -1.0148   -2.1039   -3.0441 O.3       1 <0>        -0.3066
     11 C10        -1.9757   -2.9095   -3.7294 C.3       1 <0>         0.0647
     12 C11        -2.9907   -2.0058   -4.4321 C.3       1 <0>        -0.1195
     13 C12        -4.0195   -2.8683   -5.1658 C.3       1 <0>         0.0635
     14 O2         -4.9676   -2.0242   -5.8221 O.3       1 <0>        -0.3079
     15 C13        -5.9565   -2.6367   -6.5248 C.ar      1 <0>         0.1362
     16 C14        -6.0166   -4.0220   -6.5766 C.ar      1 <0>        -0.1914
     17 C15        -7.0230   -4.6421   -7.2911 C.ar      1 <0>        -0.0708
     18 C16        -7.9702   -3.8836   -7.9543 C.ar      1 <0>        -0.1324
     19 C17        -7.9122   -2.5033   -7.9045 C.ar      1 <0>        -0.0408
     20 C18        -6.9108   -1.8782   -7.1865 C.ar      1 <0>        -0.1187
     21 C19        -8.9457   -1.6797   -8.6289 C.3       1 <0>        -0.0337
     22 C20        -9.0710   -2.1044  -10.0853 C.2       1 <0>         0.5343
     23 O3         -8.1494   -2.0153  -10.8679 O.2       1 <0>        -0.4481
     24 N1        -10.2545   -2.5775  -10.4379 N.am      1 <0>        -0.6897
     25 C21       -11.2929   -2.6868   -9.5886 C.2       1 <0>         0.5628
     26 O4        -12.4099   -3.1071   -9.8203 O.2       1 <0>        -0.4137
     27 S1        -10.6463   -2.0707   -8.0410 S.3       1 <0>        -0.1364
     28 O5          2.9322   -4.7377   -0.2869 O.3       1 <0>        -0.3105
     29 C22         2.8392   -6.1623   -0.2237 C.3       1 <0>         0.0905
     30 C23         3.4747   -6.7651   -1.4472 C.3       1 <0>        -0.1459
     31 C24         2.7665   -8.0546   -1.9047 C.3       1 <0>        -0.1160
     32 C25         2.3799   -8.9730   -0.7297 C.3       1 <0>        -0.1241
     33 C26         3.4618   -9.0609    0.3125 C.3       1 <0>        -0.1218
     34 C27         3.1721   -8.0152    1.4086 C.3       1 <0>        -0.1182
     35 C28         3.5900   -6.6757    1.0219 C.3       1 <0>        -0.1120
     36 H1          0.9163    1.8821   -0.4127 H         1 <0>         0.0538
     37 H2         -0.4445    1.8428   -1.5595 H         1 <0>         0.0549
     38 H3         -0.7571    1.8442    0.1928 H         1 <0>         0.0543
     39 H4          0.3096   -0.3860    0.3849 H         1 <0>         0.0606
     40 H5         -1.0512   -0.4253   -0.7619 H         1 <0>         0.0641
     41 H6          0.5347   -0.1795   -2.6521 H         1 <0>         0.0785
     42 H7          1.8955   -0.1402   -1.5053 H         1 <0>         0.0722
     43 H8          2.6713   -2.1374   -0.4414 H         1 <0>         0.1370
     44 H9          1.0197   -5.8857   -1.6581 H         1 <0>         0.1315
     45 H10        -0.7471   -4.7045   -2.8991 H         1 <0>         0.1285
     46 H11        -1.4688   -3.5300   -4.4684 H         1 <0>         0.0641
     47 H12        -2.4924   -3.5475   -3.0124 H         1 <0>         0.0642
     48 H13        -3.4976   -1.3853   -3.6930 H         1 <0>         0.0882
     49 H14        -2.4740   -1.3678   -5.1491 H         1 <0>         0.0881
     50 H15        -3.5126   -3.4888   -5.9049 H         1 <0>         0.0681
     51 H16        -4.5363   -3.5063   -4.4488 H         1 <0>         0.0682
     52 H17        -5.2770   -4.6148   -6.0591 H         1 <0>         0.1336
     53 H18        -7.0701   -5.7203   -7.3320 H         1 <0>         0.1336
     54 H19        -8.7563   -4.3704   -8.5124 H         1 <0>         0.1208
     55 H20        -6.8686   -0.7998   -7.1443 H         1 <0>         0.1407
     56 H21        -8.7313   -0.6145   -8.5425 H         1 <0>         0.1697
     57 H22       -10.3809   -2.8603  -11.3571 H         1 <0>         0.4203
     58 H23         1.7918   -6.4586   -0.1679 H         1 <0>         0.0750
     59 H24         3.4399   -6.0370   -2.2577 H         1 <0>         0.0707
     60 H25         4.5171   -6.9946   -1.2264 H         1 <0>         0.0731
     61 H26         1.8631   -7.7844   -2.4516 H         1 <0>         0.0594
     62 H27         3.4301   -8.6013   -2.5747 H         1 <0>         0.0663
     63 H28         1.4726   -8.5876   -0.2646 H         1 <0>         0.0600
     64 H29         2.1792   -9.9728   -1.1148 H         1 <0>         0.0628
     65 H30         3.4677  -10.0588    0.7508 H         1 <0>         0.0661
     66 H31         4.4289   -8.8532   -0.1453 H         1 <0>         0.0685
     67 H32         2.1015   -8.0056    1.6132 H         1 <0>         0.0625
     68 H33         3.7008   -8.3012    2.3179 H         1 <0>         0.0700
     69 H34         4.6592   -6.6870    0.8099 H         1 <0>         0.0714
     70 H35         3.4039   -5.9944    1.8521 H         1 <0>         0.0729
@<TRIPOS>BOND
     1    1    2 1
     2    1   36 1
     3    1   37 1
     4    1   38 1
     5    2    3 1
     6    2   39 1
     7    2   40 1
     8    3    4 1
     9    3   41 1
    10    3   42 1
    11    4    9 ar
    12    4    5 ar
    13    5    6 ar
    14    5   43 1
    15    6    7 ar
    16    6   28 1
    17    7    8 ar
    18    7   44 1
    19    8    9 ar
    20    8   45 1
    21    9   10 1
    22   10   11 1
    23   11   12 1
    24   11   46 1
    25   11   47 1
    26   12   13 1
    27   12   48 1
    28   12   49 1
    29   13   14 1
    30   13   50 1
    31   13   51 1
    32   14   15 1
    33   15   20 ar
    34   15   16 ar
    35   16   17 ar
    36   16   52 1
    37   17   18 ar
    38   17   53 1
    39   18   19 ar
    40   18   54 1
    41   19   20 ar
    42   19   21 1
    43   20   55 1
    44   21   27 1
    45   21   22 1
    46   21   56 1
    47   22   23 2
    48   22   24 am
    49   24   25 am
    50   24   57 1
    51   25   26 2
    52   25   27 1
    53   28   29 1
    54   29   35 1
    55   29   30 1
    56   29   58 1
    57   30   31 1
    58   30   59 1
    59   30   60 1
    60   31   32 1
    61   31   61 1
    62   31   62 1
    63   32   33 1
    64   32   63 1
    65   32   64 1
    66   33   34 1
    67   33   65 1
    68   33   66 1
    69   34   35 1
    70   34   67 1
    71   34   68 1
    72   35   69 1
    73   35   70 1
@<TRIPOS>MOLECULE
CHEMBL1075732
   71    74     0     0     0
SMALL
USER_CHARGES

@<TRIPOS>ATOM
      1 C1         -0.4870    1.2967    0.2281 C.3       1 <0>        -0.1057
      2 C2         -0.4337   -0.2093    0.2423 C.ar      1 <0>        -0.0848
      3 C3         -0.4199   -0.9113   -0.9475 C.ar      1 <0>        -0.1068
      4 C4         -0.3704   -2.2971   -0.9344 C.ar      1 <0>         0.0746
      5 C5         -0.3348   -2.9785    0.2734 C.ar      1 <0>        -0.1690
      6 C6         -0.3487   -2.2767    1.4628 C.ar      1 <0>        -0.1754
      7 C7         -0.3929   -0.8903    1.4497 C.ar      1 <0>         0.1117
      8 O1         -0.4009   -0.1991    2.6207 O.3       1 <0>        -0.2771
      9 C8         -0.3571   -0.9650    3.8264 C.3       1 <0>        -0.0072
     10 C9         -0.3732   -0.0357    5.0126 C.2       1 <0>         0.5012
     11 O2         -0.4181    1.1706    4.8415 O.co2     1 <0>        -0.6703
     12 O3         -0.3414   -0.4902    6.1435 O.co2     1 <0>        -0.6882
     13 O4         -0.3572   -2.9881   -2.1055 O.3       1 <0>        -0.3118
     14 C10        -0.3056   -4.4134   -2.0173 C.3       1 <0>         0.1593
     15 C11        -0.2981   -5.0026   -3.4043 C.2       1 <0>         0.2048
     16 N1          0.7682   -5.2626   -4.1022 N.2       1 <0>        -0.4383
     17 C12         0.3963   -5.7818   -5.2925 C.2       1 <0>         0.0401
     18 C13        -0.9847   -5.8315   -5.2968 C.2       1 <0>         0.0230
     19 O5         -1.3891   -5.3440   -4.1041 O.3       1 <0>        -0.1774
     20 C14        -1.8471   -6.3251   -6.3871 C.ar      1 <0>        -0.0402
     21 C15        -1.5716   -7.5513   -6.9981 C.ar      1 <0>        -0.0444
     22 C16        -2.3799   -8.0084   -8.0163 C.ar      1 <0>        -0.1184
     23 C17        -3.4669   -7.2522   -8.4357 C.ar      1 <0>         0.1226
     24 C18        -3.7446   -6.0329   -7.8313 C.ar      1 <0>        -0.1894
     25 C19        -2.9455   -5.5707   -6.8081 C.ar      1 <0>        -0.0461
     26 O6         -4.2605   -7.7064   -9.4404 O.3       1 <0>        -0.3076
     27 C20        -5.3612   -6.8789   -9.8222 C.3       1 <0>         0.6038
     28 F1         -4.8833   -5.6367  -10.2530 F         1 <0>        -0.1626
     29 F2         -6.0676   -7.4930  -10.8621 F         1 <0>        -0.1290
     30 F3         -6.2104   -6.6971   -8.7254 F         1 <0>        -0.1628
     31 C21         1.2959   -6.2143   -6.3837 C.ar      1 <0>         0.0152
     32 C22         0.9867   -5.9003   -7.7095 C.ar      1 <0>        -0.1035
     33 C23         1.8175   -6.2992   -8.7177 C.ar      1 <0>        -0.0579
     34 C24         2.9774   -7.0218   -8.4228 C.ar      1 <0>        -0.1279
     35 C25         3.2864   -7.3359   -7.0959 C.ar      1 <0>        -0.0938
     36 C26         2.4577   -6.9319   -6.0879 C.ar      1 <0>        -0.0954
     37 C27         3.8752   -7.4535   -9.5117 C.2       1 <0>         0.5609
     38 O7          3.4193   -7.7123  -10.6088 O.2       1 <0>        -0.5344
     39 N2          5.2002   -7.5607   -9.2901 N.am      1 <0>        -0.6068
     40 C28         5.7645   -7.1399   -8.0053 C.3       1 <0>         0.0665
     41 C29         6.0764   -8.0982  -10.3340 C.3       1 <0>         0.1297
     42 C30         7.1200   -7.0463  -10.7154 C.3       1 <0>        -0.1627
     43 C31         6.7823   -9.3512   -9.8122 C.3       1 <0>        -0.1615
     44 H1          0.5271    1.6960    0.2103 H         1 <0>         0.0699
     45 H2         -1.0254    1.6329   -0.6580 H         1 <0>         0.0614
     46 H3         -1.0012    1.6506    1.1217 H         1 <0>         0.0811
     47 H4         -0.4479   -0.3808   -1.8878 H         1 <0>         0.1330
     48 H5         -0.2967   -4.0578    0.2836 H         1 <0>         0.1257
     49 H6         -0.3218   -2.8072    2.4031 H         1 <0>         0.1330
     50 H7         -1.2238   -1.6244    3.8696 H         1 <0>         0.0581
     51 H8          0.5548   -1.5618    3.8447 H         1 <0>         0.0584
     52 H9          0.6008   -4.7122   -1.4906 H         1 <0>         0.1093
     53 H10        -1.1780   -4.7756   -1.4733 H         1 <0>         0.0940
     54 H11        -0.7262   -8.1396   -6.6732 H         1 <0>         0.1440
     55 H12        -2.1677   -8.9559   -8.4891 H         1 <0>         0.1491
     56 H13        -4.5907   -5.4481   -8.1608 H         1 <0>         0.1417
     57 H14        -3.1650   -4.6248   -6.3355 H         1 <0>         0.1416
     58 H15         0.0905   -5.3423   -7.9373 H         1 <0>         0.1304
     59 H16         1.5782   -6.0567   -9.7426 H         1 <0>         0.1366
     60 H17         4.1821   -7.8944   -6.8675 H         1 <0>         0.1420
     61 H18         2.6984   -7.1709   -5.0626 H         1 <0>         0.1354
     62 H19         5.7986   -7.9923   -7.3268 H         1 <0>         0.0617
     63 H20         6.7735   -6.7576   -8.1593 H         1 <0>         0.0743
     64 H21         5.1411   -6.3567   -7.5738 H         1 <0>         0.0830
     65 H22         5.4818   -8.3547  -11.2109 H         1 <0>         0.1023
     66 H23         7.7145   -6.7898   -9.8386 H         1 <0>         0.0598
     67 H24         7.7718   -7.4462  -11.4921 H         1 <0>         0.0695
     68 H25         6.6170   -6.1536  -11.0872 H         1 <0>         0.0598
     69 H26         6.0389  -10.1006   -9.5405 H         1 <0>         0.0589
     70 H27         7.4342   -9.7511  -10.5889 H         1 <0>         0.0695
     71 H28         7.3769   -9.0947   -8.9354 H         1 <0>         0.0594
@<TRIPOS>BOND
     1    1    2 1
     2    1   44 1
     3    1   45 1
     4    1   46 1
     5    2    7 ar
     6    2    3 ar
     7    3    4 ar
     8    3   47 1
     9    4    5 ar
    10    4   13 1
    11    5    6 ar
    12    5   48 1
    13    6    7 ar
    14    6   49 1
    15    7    8 1
    16    8    9 1
    17    9   10 1
    18    9   50 1
    19    9   51 1
    20   10   11 2
    21   10   12 1
    22   13   14 1
    23   14   15 1
    24   14   52 1
    25   14   53 1
    26   15   19 1
    27   15   16 2
    28   16   17 1
    29   17   18 2
    30   17   31 1
    31   18   19 1
    32   18   20 1
    33   20   25 ar
    34   20   21 ar
    35   21   22 ar
    36   21   54 1
    37   22   23 ar
    38   22   55 1
    39   23   24 ar
    40   23   26 1
    41   24   25 ar
    42   24   56 1
    43   25   57 1
    44   26   27 1
    45   27   28 1
    46   27   29 1
    47   27   30 1
    48   31   36 ar
    49   31   32 ar
    50   32   33 ar
    51   32   58 1
    52   33   34 ar
    53   33   59 1
    54   34   35 ar
    55   34   37 1
    56   35   36 ar
    57   35   60 1
    58   36   61 1
    59   37   38 2
    60   37   39 am
    61   39   40 1
    62   39   41 1
    63   40   62 1
    64   40   63 1
    65   40   64 1
    66   41   42 1
    67   41   43 1
    68   41   65 1
    69   42   66 1
    70   42   67 1
    71   42   68 1
    72   43   69 1
    73   43   70 1
    74   43   71 1
@<TRIPOS>MOLECULE
CHEMBL234903
   57    59     0     0     0
SMALL
USER_CHARGES

@<TRIPOS>ATOM
      1 C1         -0.2333    1.6696   -0.2556 C.3       1 <0>        -0.1054
      2 C2         -0.0844    0.1708   -0.2059 C.ar      1 <0>        -0.0851
      3 C3         -0.1169   -0.5657   -1.3743 C.ar      1 <0>        -0.1119
      4 C4          0.0206   -1.9449   -1.3286 C.ar      1 <0>         0.0754
      5 C5          0.1907   -2.5850   -0.1098 C.ar      1 <0>        -0.1712
      6 C6          0.2231   -1.8487    1.0583 C.ar      1 <0>        -0.1760
      7 C7          0.0909   -0.4686    1.0121 C.ar      1 <0>         0.1083
      8 O1          0.1285    0.2569    2.1616 O.3       1 <0>        -0.2778
      9 C8          0.3119   -0.4670    3.3799 C.3       1 <0>        -0.0067
     10 C9          0.3275    0.4960    4.5390 C.2       1 <0>         0.5014
     11 O2          0.1940    1.6914    4.3402 O.co2     1 <0>        -0.6702
     12 O3          0.4738    0.0796    5.6755 O.co2     1 <0>        -0.6884
     13 O4         -0.0118   -2.6699   -2.4786 O.3       1 <0>        -0.3116
     14 C10         0.1360   -4.0860   -2.3572 C.3       1 <0>         0.0782
     15 C11         0.0751   -4.7166   -3.7246 C.2       1 <0>        -0.1273
     16 C12         0.9292   -5.6542   -4.0521 C.2       1 <0>        -0.1400
     17 C13         1.8673   -6.2148   -3.0144 C.3       1 <0>         0.0844
     18 C14         3.2505   -5.8381   -3.3488 C.1       1 <0>        -0.1217
     19 C15         4.3536   -5.5376   -3.6154 C.1       1 <0>        -0.1408
     20 C16         5.6992   -5.1712   -3.9406 C.ar      1 <0>         0.0557
     21 C17         5.9611   -4.4017   -5.0747 C.ar      1 <0>        -0.0964
     22 C18         7.2598   -4.0515   -5.3823 C.ar      1 <0>        -0.0662
     23 C19         8.3010   -4.4617   -4.5690 C.ar      1 <0>        -0.1791
     24 C20         8.0480   -5.2248   -3.4431 C.ar      1 <0>        -0.0682
     25 C21         6.7534   -5.5772   -3.1215 C.ar      1 <0>        -0.0989
     26 C22         9.7171   -4.0760   -4.9112 C.3       1 <0>         0.5085
     27 F1         10.0288   -2.8566   -4.3005 F         1 <0>        -0.1744
     28 F2         10.5937   -5.0650   -4.4522 F         1 <0>        -0.1769
     29 F3          9.8433   -3.9484   -6.2987 F         1 <0>        -0.1758
     30 C23         1.7481   -7.7169   -2.9886 C.ar      1 <0>        -0.0587
     31 C24         2.0347   -8.4524   -4.1235 C.ar      1 <0>        -0.0983
     32 C25         1.9259   -9.8301   -4.1001 C.ar      1 <0>        -0.0890
     33 C26         1.5302  -10.4729   -2.9410 C.ar      1 <0>        -0.0886
     34 C27         1.2435   -9.7365   -1.8056 C.ar      1 <0>        -0.0867
     35 C28         1.3576   -8.3592   -1.8284 C.ar      1 <0>        -0.1021
     36 Br1         1.3805  -12.3577   -2.9085 Br        1 <0>        -0.0501
     37 H1          0.7494    2.1289   -0.3628 H         1 <0>         0.0691
     38 H2         -0.8576    1.9447   -1.1057 H         1 <0>         0.0612
     39 H3         -0.6993    2.0192    0.6656 H         1 <0>         0.0806
     40 H4         -0.2496   -0.0674   -2.3233 H         1 <0>         0.1322
     41 H5          0.2974   -3.6591   -0.0742 H         1 <0>         0.1221
     42 H6          0.3548   -2.3471    2.0073 H         1 <0>         0.1309
     43 H7         -0.5058   -1.1763    3.5078 H         1 <0>         0.0574
     44 H8          1.2583   -1.0065    3.3430 H         1 <0>         0.0573
     45 H9          1.0967   -4.3127   -1.8950 H         1 <0>         0.0690
     46 H10        -0.6680   -4.4834   -1.7377 H         1 <0>         0.0728
     47 H11        -0.6728   -4.3954   -4.4345 H         1 <0>         0.1310
     48 H12         0.9612   -6.0255   -5.0658 H         1 <0>         0.1282
     49 H13         1.6079   -5.8128   -2.0351 H         1 <0>         0.1159
     50 H14         5.1492   -4.0811   -5.7106 H         1 <0>         0.1418
     51 H15         7.4639   -3.4563   -6.2600 H         1 <0>         0.1429
     52 H16         8.8653   -5.5418   -2.8122 H         1 <0>         0.1414
     53 H17         6.5567   -6.1691   -2.2399 H         1 <0>         0.1390
     54 H18         2.3433   -7.9505   -5.0286 H         1 <0>         0.1319
     55 H19         2.1495  -10.4046   -4.9869 H         1 <0>         0.1344
     56 H20         0.9345  -10.2379   -0.9004 H         1 <0>         0.1365
     57 H21         1.1378   -7.7844   -0.9409 H         1 <0>         0.1360
@<TRIPOS>BOND
     1    1    2 1
     2    1   37 1
     3    1   38 1
     4    1   39 1
     5    2    7 ar
     6    2    3 ar
     7    3    4 ar
     8    3   40 1
     9    4    5 ar
    10    4   13 1
    11    5    6 ar
    12    5   41 1
    13    6    7 ar
    14    6   42 1
    15    7    8 1
    16    8    9 1
    17    9   10 1
    18    9   43 1
    19    9   44 1
    20   10   11 2
    21   10   12 1
    22   13   14 1
    23   14   15 1
    24   14   45 1
    25   14   46 1
    26   15   16 2
    27   15   47 1
    28   16   17 1
    29   16   48 1
    30   17   18 1
    31   17   30 1
    32   17   49 1
    33   18   19 3
    34   19   20 1
    35   20   25 ar
    36   20   21 ar
    37   21   22 ar
    38   21   50 1
    39   22   23 ar
    40   22   51 1
    41   23   24 ar
    42   23   26 1
    43   24   25 ar
    44   24   52 1
    45   25   53 1
    46   26   27 1
    47   26   28 1
    48   26   29 1
    49   30   35 ar
    50   30   31 ar
    51   31   32 ar
    52   31   54 1
    53   32   33 ar
    54   32   55 1
    55   33   34 ar
    56   33   36 1
    57   34   35 ar
    58   34   56 1
    59   35   57 1
@<TRIPOS>MOLECULE
CHEMBL234903__1
   57    59     0     0     0
SMALL
USER_CHARGES

@<TRIPOS>ATOM
      1 C1         -4.2486   -2.7413    1.7879 C.3       1 <0>        -0.1055
      2 C2         -2.8647   -2.8824    1.2083 C.ar      1 <0>        -0.0850
      3 C3         -2.6972   -3.3999   -0.0617 C.ar      1 <0>        -0.1120
      4 C4         -1.4237   -3.5294   -0.5952 C.ar      1 <0>         0.0749
      5 C5         -0.3181   -3.1393    0.1462 C.ar      1 <0>        -0.1718
      6 C6         -0.4856   -2.6220    1.4157 C.ar      1 <0>        -0.1760
      7 C7         -1.7597   -2.4876    1.9474 C.ar      1 <0>         0.1082
      8 O1         -1.9250   -1.9730    3.1952 O.3       1 <0>        -0.2778
      9 C8         -0.7431   -1.5871    3.8996 C.3       1 <0>        -0.0065
     10 C9         -1.1202   -1.0435    5.2536 C.2       1 <0>         0.5011
     11 O2         -2.2924   -0.9915    5.5848 O.co2     1 <0>        -0.6702
     12 O3         -0.2530   -0.6559    6.0180 O.co2     1 <0>        -0.6884
     13 O4         -1.2588   -4.0392   -1.8451 O.3       1 <0>        -0.3128
     14 C10         0.0808   -4.1441   -2.3314 C.3       1 <0>         0.0764
     15 C11         0.0664   -4.7256   -3.7216 C.2       1 <0>        -0.1269
     16 C12         0.9292   -5.6542   -4.0521 C.2       1 <0>        -0.1399
     17 C13         1.8673   -6.2148   -3.0144 C.3       1 <0>         0.0802
     18 C14         1.7509   -7.6820   -2.9892 C.1       1 <0>        -0.1160
     19 C15         1.6580   -8.8521   -2.9691 C.1       1 <0>        -0.1450
     20 C16         1.5446  -10.2794   -2.9445 C.ar      1 <0>         0.0578
     21 C17         0.6629  -10.9273   -3.8105 C.ar      1 <0>        -0.0980
     22 C18         0.5588  -12.3028   -3.7822 C.ar      1 <0>        -0.0663
     23 C19         1.3262  -13.0395   -2.8977 C.ar      1 <0>        -0.1798
     24 C20         2.2023  -12.4032   -2.0365 C.ar      1 <0>        -0.0677
     25 C21         2.3197  -11.0287   -2.0585 C.ar      1 <0>        -0.0990
     26 C22         1.2070  -14.5415   -2.8719 C.3       1 <0>         0.5086
     27 F1          2.1253  -15.0977   -3.7688 F         1 <0>        -0.1747
     28 F2          1.4749  -15.0085   -1.5806 F         1 <0>        -0.1766
     29 F3         -0.0900  -14.9128   -3.2423 F         1 <0>        -0.1759
     30 C23         3.2834   -5.8291   -3.3567 C.ar      1 <0>        -0.0603
     31 C24         3.8352   -6.2241   -4.5611 C.ar      1 <0>        -0.0977
     32 C25         5.1338   -5.8703   -4.8756 C.ar      1 <0>        -0.0889
     33 C26         5.8812   -5.1207   -3.9851 C.ar      1 <0>        -0.0884
     34 C27         5.3286   -4.7257   -2.7801 C.ar      1 <0>        -0.0858
     35 C28         4.0282   -5.0756   -2.4687 C.ar      1 <0>        -0.1033
     36 Br1         7.6580   -4.6368   -4.4145 Br        1 <0>        -0.0496
     37 H1         -4.6529   -1.7627    1.5288 H         1 <0>         0.0693
     38 H2         -4.8938   -3.5202    1.3817 H         1 <0>         0.0612
     39 H3         -4.1999   -2.8387    2.8725 H         1 <0>         0.0805
     40 H4         -3.5580   -3.7039   -0.6388 H         1 <0>         0.1322
     41 H5          0.6737   -3.2405   -0.2692 H         1 <0>         0.1224
     42 H6          0.3753   -2.3190    1.9932 H         1 <0>         0.1309
     43 H7         -0.0947   -2.4544    4.0240 H         1 <0>         0.0572
     44 H8         -0.2172   -0.8186    3.3332 H         1 <0>         0.0575
     45 H9          0.5368   -3.1544   -2.3562 H         1 <0>         0.0763
     46 H10         0.6569   -4.7932   -1.6720 H         1 <0>         0.0700
     47 H11        -0.6553   -4.3767   -4.4454 H         1 <0>         0.1314
     48 H12         0.9683   -6.0180   -5.0682 H         1 <0>         0.1275
     49 H13         1.6079   -5.8128   -2.0351 H         1 <0>         0.1195
     50 H14         0.0630  -10.3532   -4.5012 H         1 <0>         0.1408
     51 H15        -0.1235  -12.8054   -4.4517 H         1 <0>         0.1424
     52 H16         2.7986  -12.9840   -1.3484 H         1 <0>         0.1417
     53 H17         3.0072  -10.5335   -1.3889 H         1 <0>         0.1397
     54 H18         3.2518   -6.8096   -5.2562 H         1 <0>         0.1313
     55 H19         5.5650   -6.1792   -5.8164 H         1 <0>         0.1342
     56 H20         5.9117   -4.1405   -2.0845 H         1 <0>         0.1371
     57 H21         3.5952   -4.7638   -1.5297 H         1 <0>         0.1357
@<TRIPOS>BOND
     1    1    2 1
     2    1   37 1
     3    1   38 1
     4    1   39 1
     5    2    7 ar
     6    2    3 ar
     7    3    4 ar
     8    3   40 1
     9    4    5 ar
    10    4   13 1
    11    5    6 ar
    12    5   41 1
    13    6    7 ar
    14    6   42 1
    15    7    8 1
    16    8    9 1
    17    9   10 1
    18    9   43 1
    19    9   44 1
    20   10   11 2
    21   10   12 1
    22   13   14 1
    23   14   15 1
    24   14   45 1
    25   14   46 1
    26   15   16 2
    27   15   47 1
    28   16   17 1
    29   16   48 1
    30   17   18 1
    31   17   30 1
    32   17   49 1
    33   18   19 3
    34   19   20 1
    35   20   25 ar
    36   20   21 ar
    37   21   22 ar
    38   21   50 1
    39   22   23 ar
    40   22   51 1
    41   23   24 ar
    42   23   26 1
    43   24   25 ar
    44   24   52 1
    45   25   53 1
    46   26   27 1
    47   26   28 1
    48   26   29 1
    49   30   35 ar
    50   30   31 ar
    51   31   32 ar
    52   31   54 1
    53   32   33 ar
    54   32   55 1
    55   33   34 ar
    56   33   36 1
    57   34   35 ar
    58   34   56 1
    59   35   57 1
@<TRIPOS>MOLECULE
CHEMBL221101
   58    62     0     0     0
SMALL
USER_CHARGES

@<TRIPOS>ATOM
      1 C1          0.1780    2.4489    0.3970 C.ar      1 <0>        -0.0283
      2 C2          1.4085    3.0610    0.5033 C.ar      1 <0>        -0.1521
      3 C3          2.5715    2.3128    0.3766 C.ar      1 <0>         0.1558
      4 C4          2.5000    0.9457    0.1428 C.ar      1 <0>        -0.2072
      5 C5          1.2734    0.3262    0.0356 C.ar      1 <0>        -0.0469
      6 C6          0.1020    1.0750    0.1620 C.ar      1 <0>        -0.0594
      7 C7         -1.2155    0.4145    0.0478 C.2       1 <0>         0.1765
      8 N1         -2.4244    0.9359    0.1298 N.2       1 <0>        -0.5020
      9 C8         -3.5345    0.2011    0.0035 C.2       1 <0>         0.0384
     10 C9         -3.3725   -1.1297   -0.2126 C.2       1 <0>        -0.2097
     11 S1         -1.6022   -1.3059   -0.2467 S.3       1 <0>         0.0346
     12 C10        -4.6800   -1.8513   -0.3290 C.3       1 <0>        -0.0314
     13 C11        -5.7187   -0.8738    0.2654 C.3       1 <0>        -0.1142
     14 C12        -5.0373    0.4898    0.0376 C.3       1 <0>        -0.0440
     15 O1          3.7824    2.9198    0.4811 O.3       1 <0>        -0.3064
     16 C13         4.9379    2.0910    0.3406 C.3       1 <0>         0.0611
     17 C14         6.1990    2.9449    0.4873 C.3       1 <0>        -0.1193
     18 C15         7.4362    2.0574    0.3368 C.3       1 <0>         0.0656
     19 O2          8.6140    2.8549    0.4738 O.3       1 <0>        -0.3152
     20 C16         9.8082    2.2154    0.3656 C.ar      1 <0>         0.1139
     21 C17         9.8465    0.8492    0.1267 C.ar      1 <0>        -0.2082
     22 C18        11.0617    0.2042    0.0176 C.ar      1 <0>        -0.0704
     23 C19        12.2440    0.9149    0.1461 C.ar      1 <0>        -0.1078
     24 C20        12.2084    2.2763    0.3843 C.ar      1 <0>        -0.0610
     25 C21        10.9912    2.9271    0.4880 C.ar      1 <0>        -0.1400
     26 C22        13.6194    2.8154    0.4838 C.3       1 <0>        -0.0829
     27 C23        14.5097    1.5764    0.7171 C.3       1 <0>        -0.1019
     28 C24        13.6817    0.4466    0.0691 C.3       1 <0>        -0.0266
     29 H1         13.9792    0.3081   -0.9703 H         1 <0>         0.0889
     30 C25        13.8582   -0.8565    0.8511 C.3       1 <0>        -0.1741
     31 C26        15.2569   -1.3791    0.6474 C.2       1 <0>         0.4909
     32 O3         16.0060   -0.8253   -0.1391 O.co2     1 <0>        -0.6953
     33 O4         15.6394   -2.3556    1.2692 O.co2     1 <0>        -0.7082
     34 H2         -0.7260    3.0307    0.4997 H         1 <0>         0.1429
     35 H3          1.4681    4.1239    0.6851 H         1 <0>         0.1413
     36 H4          3.4067    0.3673    0.0444 H         1 <0>         0.1387
     37 H5          1.2186   -0.7369   -0.1465 H         1 <0>         0.1303
     38 H6         -4.9080   -2.0587   -1.3745 H         1 <0>         0.0889
     39 H7         -4.6560   -2.7767    0.2466 H         1 <0>         0.0825
     40 H8         -6.6633   -0.9327   -0.2754 H         1 <0>         0.0895
     41 H9         -5.8676   -1.0624    1.3286 H         1 <0>         0.0795
     42 H10        -5.2716    1.1692    0.8571 H         1 <0>         0.0811
     43 H11        -5.3600    0.9182   -0.9114 H         1 <0>         0.0856
     44 H12         4.9287    1.3210    1.1120 H         1 <0>         0.0704
     45 H13         4.9301    1.6204   -0.6426 H         1 <0>         0.0703
     46 H14         6.2081    3.7148   -0.2842 H         1 <0>         0.0870
     47 H15         6.2068    3.4155    1.4704 H         1 <0>         0.0871
     48 H16         7.4270    1.2874    1.1082 H         1 <0>         0.0647
     49 H17         7.4284    1.5868   -0.6464 H         1 <0>         0.0644
     50 H18         8.9271    0.2914    0.0267 H         1 <0>         0.1234
     51 H19        11.0911   -0.8592   -0.1684 H         1 <0>         0.1224
     52 H20        10.9632    3.9914    0.6692 H         1 <0>         0.1241
     53 H21        13.9003    3.3136   -0.4442 H         1 <0>         0.0794
     54 H22        13.7026    3.5046    1.3241 H         1 <0>         0.0709
     55 H23        15.4705    1.6896    0.2149 H         1 <0>         0.0855
     56 H24        14.6475    1.3935    1.7828 H         1 <0>         0.0643
     57 H25        13.6912   -0.6692    1.9118 H         1 <0>         0.0567
     58 H26        13.1392   -1.5943    0.4949 H         1 <0>         0.0557
@<TRIPOS>BOND
     1    1    6 ar
     2    1    2 ar
     3    1   34 1
     4    2    3 ar
     5    2   35 1
     6    3    4 ar
     7    3   15 1
     8    4    5 ar
     9    4   36 1
    10    5    6 ar
    11    5   37 1
    12    6    7 1
    13    7   11 1
    14    7    8 2
    15    8    9 1
    16    9   14 1
    17    9   10 2
    18   10   11 1
    19   10   12 1
    20   12   13 1
    21   12   38 1
    22   12   39 1
    23   13   14 1
    24   13   40 1
    25   13   41 1
    26   14   42 1
    27   14   43 1
    28   15   16 1
    29   16   17 1
    30   16   44 1
    31   16   45 1
    32   17   18 1
    33   17   46 1
    34   17   47 1
    35   18   19 1
    36   18   48 1
    37   18   49 1
    38   19   20 1
    39   20   25 ar
    40   20   21 ar
    41   21   22 ar
    42   21   50 1
    43   22   23 ar
    44   22   51 1
    45   23   28 1
    46   23   24 ar
    47   24   25 ar
    48   24   26 1
    49   25   52 1
    50   26   27 1
    51   26   53 1
    52   26   54 1
    53   27   28 1
    54   27   55 1
    55   27   56 1
    56   28   29 1
    57   28   30 1
    58   30   31 1
    59   30   57 1
    60   30   58 1
    61   31   32 2
    62   31   33 1
@<TRIPOS>MOLECULE
CHEMBL375748
   52    55     0     0     0
SMALL
USER_CHARGES

@<TRIPOS>ATOM
      1 C1          0.1781    2.4463    0.3969 C.ar      1 <0>        -0.0698
      2 C2          1.4093    3.0593    0.5035 C.ar      1 <0>        -0.1476
      3 C3          2.5718    2.3116    0.3768 C.ar      1 <0>         0.1348
      4 C4          2.4994    0.9454    0.1427 C.ar      1 <0>        -0.2046
      5 C5          1.2712    0.3267    0.0352 C.ar      1 <0>        -0.0682
      6 C6          0.1023    1.0747    0.1623 C.ar      1 <0>        -0.0706
      7 C7         -1.2207    0.4121    0.0477 C.2       1 <0>        -0.0725
      8 C8         -1.3129   -0.9573   -0.1811 C.2       1 <0>        -0.1519
      9 C9         -2.5363   -1.5252   -0.2792 C.2       1 <0>        -0.1692
     10 S1         -3.6216   -0.1272   -0.0487 S.3       1 <0>         0.0377
     11 C10        -2.3757    1.1321    0.1701 C.2       1 <0>        -0.1731
     12 O1          3.7834    2.9185    0.4818 O.3       1 <0>        -0.3107
     13 C11         4.9387    2.0893    0.3412 C.3       1 <0>         0.0635
     14 C12         6.2000    2.9427    0.4885 C.3       1 <0>        -0.1189
     15 C13         7.4369    2.0549    0.3379 C.3       1 <0>         0.0659
     16 O2          8.6150    2.8520    0.4754 O.3       1 <0>        -0.3153
     17 C14         9.8090    2.2121    0.3672 C.ar      1 <0>         0.1140
     18 C15         9.8469    0.8459    0.1279 C.ar      1 <0>        -0.2083
     19 C16        11.0619    0.2006    0.0188 C.ar      1 <0>        -0.0704
     20 C17        12.2445    0.9108    0.1477 C.ar      1 <0>        -0.1079
     21 C18        12.2092    2.2722    0.3864 C.ar      1 <0>        -0.0610
     22 C19        10.9922    2.9233    0.4901 C.ar      1 <0>        -0.1401
     23 C20        13.6204    2.8108    0.4863 C.3       1 <0>        -0.0828
     24 C21        14.5103    1.5714    0.7194 C.3       1 <0>        -0.1019
     25 C22        13.6819    0.4421    0.0709 C.3       1 <0>        -0.0267
     26 H1         13.9796    0.3038   -0.9685 H         1 <0>         0.0889
     27 C23        13.8579   -0.8613    0.8525 C.3       1 <0>        -0.1740
     28 C24        15.2565   -1.3843    0.6489 C.2       1 <0>         0.4908
     29 O3         16.0059   -0.8306   -0.1374 O.co2     1 <0>        -0.6952
     30 O4         15.6385   -2.3611    1.2704 O.co2     1 <0>        -0.7081
     31 H2         -0.7260    3.0280    0.4997 H         1 <0>         0.1304
     32 H3          1.4688    4.1223    0.6853 H         1 <0>         0.1342
     33 H4          3.4057    0.3663    0.0442 H         1 <0>         0.1313
     34 H5          1.2155   -0.7362   -0.1477 H         1 <0>         0.1275
     35 H6         -0.4207   -1.5578   -0.2793 H         1 <0>         0.1367
     36 H7         -2.7914   -2.5601   -0.4529 H         1 <0>         0.1873
     37 H8         -2.5019    2.1894    0.3509 H         1 <0>         0.1868
     38 H9          4.9291    1.3190    1.1124 H         1 <0>         0.0678
     39 H10         4.9309    1.6190   -0.6421 H         1 <0>         0.0677
     40 H11         6.2096    3.7129   -0.2827 H         1 <0>         0.0863
     41 H12         6.2078    3.4130    1.4718 H         1 <0>         0.0865
     42 H13         7.4274    1.2847    1.1091 H         1 <0>         0.0644
     43 H14         7.4292    1.5846   -0.6454 H         1 <0>         0.0641
     44 H15         8.9273    0.2885    0.0275 H         1 <0>         0.1232
     45 H16        11.0910   -0.8628   -0.1676 H         1 <0>         0.1224
     46 H17        10.9645    3.9876    0.6716 H         1 <0>         0.1241
     47 H18        13.9016    3.3091   -0.4414 H         1 <0>         0.0794
     48 H19        13.7037    3.4997    1.3269 H         1 <0>         0.0708
     49 H20        15.4712    1.6844    0.2175 H         1 <0>         0.0855
     50 H21        14.6478    1.3881    1.7851 H         1 <0>         0.0643
     51 H22        13.6907   -0.6743    1.9132 H         1 <0>         0.0566
     52 H23        13.1387   -1.5987    0.4959 H         1 <0>         0.0556
@<TRIPOS>BOND
     1    1    6 ar
     2    1    2 ar
     3    1   31 1
     4    2    3 ar
     5    2   32 1
     6    3    4 ar
     7    3   12 1
     8    4    5 ar
     9    4   33 1
    10    5    6 ar
    11    5   34 1
    12    6    7 1
    13    7   11 2
    14    7    8 1
    15    8    9 2
    16    8   35 1
    17    9   10 1
    18    9   36 1
    19   10   11 1
    20   11   37 1
    21   12   13 1
    22   13   14 1
    23   13   38 1
    24   13   39 1
    25   14   15 1
    26   14   40 1
    27   14   41 1
    28   15   16 1
    29   15   42 1
    30   15   43 1
    31   16   17 1
    32   17   22 ar
    33   17   18 ar
    34   18   19 ar
    35   18   44 1
    36   19   20 ar
    37   19   45 1
    38   20   25 1
    39   20   21 ar
    40   21   22 ar
    41   21   23 1
    42   22   46 1
    43   23   24 1
    44   23   47 1
    45   23   48 1
    46   24   25 1
    47   24   49 1
    48   24   50 1
    49   25   26 1
    50   25   27 1
    51   27   28 1
    52   27   51 1
    53   27   52 1
    54   28   29 2
    55   28   30 1
@<TRIPOS>MOLECULE
CHEMBL265868
   46    49     0     0     0
SMALL
USER_CHARGES

@<TRIPOS>ATOM
      1 C1         -0.0184    1.5028    0.0103 C.3       1 <0>        -0.0890
      2 C2          0.0021   -0.0041    0.0020 C.2       1 <0>         0.0861
      3 C3          0.0052   -0.6786   -1.1785 C.2       1 <0>        -0.1740
      4 S1          0.0311   -2.3682   -0.5929 S.3       1 <0>         0.0509
      5 C4          0.0349   -1.9927    1.1552 C.2       1 <0>         0.1360
      6 N1          0.0223   -0.6673    1.1341 N.2       1 <0>        -0.4845
      7 C5          0.0529   -2.9127    2.3127 C.ar      1 <0>         0.0232
      8 C6          0.0759   -4.2933    2.1102 C.ar      1 <0>        -0.0948
      9 C7          0.0925   -5.1463    3.1944 C.ar      1 <0>        -0.0660
     10 C8          0.0860   -4.6357    4.4803 C.ar      1 <0>        -0.1706
     11 C9          0.0628   -3.2680    4.6878 C.ar      1 <0>        -0.0684
     12 C10         0.0527   -2.4041    3.6122 C.ar      1 <0>        -0.0729
     13 C11         0.1038   -5.5733    5.6599 C.3       1 <0>         0.5087
     14 F1          1.4281   -5.8412    6.0228 F         1 <0>        -0.1742
     15 F2         -0.5641   -4.9806    6.7369 F         1 <0>        -0.1752
     16 F3         -0.5362   -6.7686    5.3152 F         1 <0>        -0.1754
     17 C12        -0.0096   -0.1491   -2.5894 C.3       1 <0>         0.1522
     18 O1          1.3328    0.0369   -3.0424 O.3       1 <0>        -0.3072
     19 C13         1.4977    0.5128   -4.3050 C.ar      1 <0>         0.1418
     20 C14         0.3813    0.7987   -5.0859 C.ar      1 <0>        -0.2249
     21 C15         0.5318    1.2777   -6.3570 C.ar      1 <0>        -0.0159
     22 C16         1.8107    1.4808   -6.8738 C.ar      1 <0>        -0.1379
     23 C17         2.9430    1.1949   -6.0927 C.ar      1 <0>         0.0892
     24 C18         2.7731    0.7140   -4.8008 C.ar      1 <0>        -0.1473
     25 O2          4.0279    1.4831   -6.8394 O.3       1 <0>        -0.1956
     26 C19         3.6677    1.9371   -8.0533 C.2       1 <0>        -0.0322
     27 C20         2.3326    1.9671   -8.1574 C.2       1 <0>        -0.0974
     28 C21         1.5278    2.4103   -9.3519 C.3       1 <0>        -0.1286
     29 C22         1.1452    3.8589   -9.1905 C.2       1 <0>         0.4952
     30 O3          1.4938    4.4745   -8.1974 O.co2     1 <0>        -0.6856
     31 O4          0.4872    4.4154  -10.0529 O.co2     1 <0>        -0.7023
     32 H1          1.0042    1.8801    0.0026 H         1 <0>         0.0825
     33 H2         -0.5455    1.8639   -0.8728 H         1 <0>         0.0780
     34 H3         -0.5286    1.8543    0.9071 H         1 <0>         0.0778
     35 H4          0.0803   -4.6931    1.1069 H         1 <0>         0.1408
     36 H5          0.1103   -6.2149    3.0391 H         1 <0>         0.1456
     37 H6          0.0575   -2.8757    5.6941 H         1 <0>         0.1453
     38 H7          0.0398   -1.3366    3.7755 H         1 <0>         0.1498
     39 H8         -0.5171   -0.8618   -3.2395 H         1 <0>         0.0826
     40 H9         -0.5369    0.8045   -2.6141 H         1 <0>         0.0949
     41 H10        -0.6091    0.6409   -4.6852 H         1 <0>         0.1297
     42 H11        -0.3372    1.4979   -6.9593 H         1 <0>         0.1297
     43 H12         3.6340    0.4942   -4.1869 H         1 <0>         0.1346
     44 H13         4.3553    2.2346   -8.8311 H         1 <0>         0.2023
     45 H14         2.1241    2.2906  -10.2565 H         1 <0>         0.0724
     46 H15         0.6260    1.8027   -9.4282 H         1 <0>         0.0707
@<TRIPOS>BOND
     1    1    2 1
     2    1   32 1
     3    1   33 1
     4    1   34 1
     5    2    6 1
     6    2    3 2
     7    3    4 1
     8    3   17 1
     9    4    5 1
    10    5    6 2
    11    5    7 1
    12    7   12 ar
    13    7    8 ar
    14    8    9 ar
    15    8   35 1
    16    9   10 ar
    17    9   36 1
    18   10   11 ar
    19   10   13 1
    20   11   12 ar
    21   11   37 1
    22   12   38 1
    23   13   14 1
    24   13   15 1
    25   13   16 1
    26   17   18 1
    27   17   39 1
    28   17   40 1
    29   18   19 1
    30   19   24 ar
    31   19   20 ar
    32   20   21 ar
    33   20   41 1
    34   21   22 ar
    35   21   42 1
    36   22   27 1
    37   22   23 ar
    38   23   24 ar
    39   23   25 1
    40   24   43 1
    41   25   26 1
    42   26   27 2
    43   26   44 1
    44   27   28 1
    45   28   29 1
    46   28   45 1
    47   28   46 1
    48   29   30 2
    49   29   31 1
@<TRIPOS>MOLECULE
CHEMBL237710
   69    72     0     0     0
SMALL
USER_CHARGES

@<TRIPOS>ATOM
      1 C1          4.5131   -3.0224   -1.4590 C.3       1 <0>        -0.0966
      2 C2          3.2584   -2.2104   -1.6528 C.ar      1 <0>        -0.1050
      3 C3          2.0476   -2.8460   -1.8480 C.ar      1 <0>        -0.1677
      4 C4          0.8928   -2.0986   -2.0263 C.ar      1 <0>         0.0658
      5 C5          0.9540   -0.7126   -2.0086 C.ar      1 <0>        -0.1189
      6 C6          2.1646   -0.0774   -1.8134 C.ar      1 <0>        -0.1192
      7 C7          3.3186   -0.8251   -1.6294 C.ar      1 <0>         0.1460
      8 O1          4.5096   -0.1995   -1.4312 O.3       1 <0>        -0.2986
      9 C8          4.4802    1.2222   -1.2906 C.3       1 <0>         0.0293
     10 C9          3.6005    1.5985   -0.0967 C.3       1 <0>        -0.1714
     11 C10         5.9009    1.7415   -1.0610 C.3       1 <0>        -0.1132
     12 C11         3.9163    1.8394   -2.5444 C.2       1 <0>         0.4806
     13 O2          3.5715    1.1278   -3.4724 O.co2     1 <0>        -0.6690
     14 O3          3.8048    3.0505   -2.6308 O.co2     1 <0>        -0.6852
     15 O4         -0.2989   -2.7241   -2.2190 O.3       1 <0>        -0.2652
     16 C12        -0.2988   -4.0789   -2.3228 C.ar      1 <0>         0.1020
     17 C13        -0.1632   -4.8632   -1.1859 C.ar      1 <0>        -0.1256
     18 C14        -0.1634   -6.2400   -1.2942 C.ar      1 <0>        -0.1073
     19 C15        -0.2981   -6.8373   -2.5342 C.ar      1 <0>        -0.1061
     20 C16        -0.4334   -6.0584   -3.6683 C.ar      1 <0>        -0.1002
     21 C17        -0.4401   -4.6807   -3.5649 C.ar      1 <0>        -0.1054
     22 C18        -0.5795   -6.7127   -5.0180 C.3       1 <0>         0.1647
     23 N1         -1.9993   -6.9376   -5.3005 N.am      1 <0>        -0.7214
     24 C19        -2.3725   -7.5152   -6.4596 C.2       1 <0>         0.5566
     25 O5         -1.5308   -7.8497   -7.2709 O.2       1 <0>        -0.5075
     26 C20        -3.8023   -7.7417   -6.7441 C.ar      1 <0>        -0.1325
     27 C21        -4.7731   -7.3538   -5.8174 C.ar      1 <0>        -0.0487
     28 C22        -6.1069   -7.5677   -6.0893 C.ar      1 <0>        -0.1139
     29 C23        -6.4907   -8.1667   -7.2783 C.ar      1 <0>        -0.1201
     30 C24        -5.5420   -8.5550   -8.2029 C.ar      1 <0>        -0.1565
     31 C25        -4.1949   -8.3421   -7.9483 C.ar      1 <0>         0.1824
     32 O6         -3.2619   -8.7180   -8.8582 O.3       1 <0>        -0.2154
     33 C26        -3.6937   -9.1928  -10.0559 C.ar      1 <0>         0.0699
     34 C27        -4.1768   -8.3168  -11.0175 C.ar      1 <0>        -0.1306
     35 C28        -4.6152   -8.8020  -12.2342 C.ar      1 <0>        -0.1043
     36 C29        -4.5731  -10.1594  -12.4943 C.ar      1 <0>        -0.1153
     37 C30        -4.0926  -11.0345  -11.5377 C.ar      1 <0>        -0.1054
     38 C31        -3.6472  -10.5539  -10.3216 C.ar      1 <0>        -0.1173
     39 C32        -7.9526   -8.3962   -7.5636 C.3       1 <0>         0.5079
     40 F1         -8.7167   -7.9251   -6.4906 F         1 <0>        -0.1721
     41 F2         -8.3133   -7.7115   -8.7291 F         1 <0>        -0.1723
     42 F3         -8.1848   -9.7649   -7.7360 F         1 <0>        -0.1730
     43 H1          4.6524   -3.2283   -0.3977 H         1 <0>         0.0609
     44 H2          4.4248   -3.9629   -2.0030 H         1 <0>         0.0566
     45 H3          5.3695   -2.4635   -1.8362 H         1 <0>         0.0703
     46 H4          2.0001   -3.9249   -1.8622 H         1 <0>         0.1238
     47 H5          0.0550   -0.1305   -2.1478 H         1 <0>         0.1247
     48 H6          2.2123    1.0015   -1.7996 H         1 <0>         0.1500
     49 H7          3.9617    1.0880    0.7960 H         1 <0>         0.0515
     50 H8          3.6416    2.6765    0.0594 H         1 <0>         0.0725
     51 H9          2.5713    1.2992   -0.2951 H         1 <0>         0.0663
     52 H10         6.5050    1.5515   -1.9482 H         1 <0>         0.0560
     53 H11         5.8689    2.8134   -0.8660 H         1 <0>         0.0762
     54 H12         6.3410    1.2295   -0.2053 H         1 <0>         0.0511
     55 H13        -0.0572   -4.3972   -0.2173 H         1 <0>         0.1322
     56 H14        -0.0579   -6.8508   -0.4098 H         1 <0>         0.1302
     57 H15        -0.2973   -7.9141   -2.6168 H         1 <0>         0.1273
     58 H16        -0.5502   -4.0727   -4.4506 H         1 <0>         0.1339
     59 H17        -0.1550   -6.0640   -5.7842 H         1 <0>         0.0825
     60 H18        -0.0534   -7.6673   -5.0178 H         1 <0>         0.0823
     61 H19        -2.6708   -6.6708   -4.6533 H         1 <0>         0.4007
     62 H20        -4.4786   -6.8872   -4.8890 H         1 <0>         0.1488
     63 H21        -6.8565   -7.2674   -5.3722 H         1 <0>         0.1502
     64 H22        -5.8490   -9.0213   -9.1274 H         1 <0>         0.1466
     65 H23        -4.2103   -7.2565  -10.8146 H         1 <0>         0.1322
     66 H24        -4.9916   -8.1206  -12.9828 H         1 <0>         0.1323
     67 H25        -4.9163  -10.5367  -13.4463 H         1 <0>         0.1298
     68 H26        -4.0611  -12.0943  -11.7432 H         1 <0>         0.1329
     69 H27        -3.2672  -11.2373   -9.5767 H         1 <0>         0.1341
@<TRIPOS>BOND
     1    1    2 1
     2    1   43 1
     3    1   44 1
     4    1   45 1
     5    2    7 ar
     6    2    3 ar
     7    3    4 ar
     8    3   46 1
     9    4    5 ar
    10    4   15 1
    11    5    6 ar
    12    5   47 1
    13    6    7 ar
    14    6   48 1
    15    7    8 1
    16    8    9 1
    17    9   10 1
    18    9   11 1
    19    9   12 1
    20   10   49 1
    21   10   50 1
    22   10   51 1
    23   11   52 1
    24   11   53 1
    25   11   54 1
    26   12   13 2
    27   12   14 1
    28   15   16 1
    29   16   21 ar
    30   16   17 ar
    31   17   18 ar
    32   17   55 1
    33   18   19 ar
    34   18   56 1
    35   19   20 ar
    36   19   57 1
    37   20   21 ar
    38   20   22 1
    39   21   58 1
    40   22   23 1
    41   22   59 1
    42   22   60 1
    43   23   24 am
    44   23   61 1
    45   24   25 2
    46   24   26 1
    47   26   31 ar
    48   26   27 ar
    49   27   28 ar
    50   27   62 1
    51   28   29 ar
    52   28   63 1
    53   29   30 ar
    54   29   39 1
    55   30   31 ar
    56   30   64 1
    57   31   32 1
    58   32   33 1
    59   33   38 ar
    60   33   34 ar
    61   34   35 ar
    62   34   65 1
    63   35   36 ar
    64   35   66 1
    65   36   37 ar
    66   36   67 1
    67   37   38 ar
    68   37   68 1
    69   38   69 1
    70   39   40 1
    71   39   41 1
    72   39   42 1
@<TRIPOS>MOLECULE
CHEMBL219688
   56    59     0     0     0
SMALL
USER_CHARGES

@<TRIPOS>ATOM
      1 C1         -0.7729    2.4321    0.3697 C.3       1 <0>        -0.1084
      2 C2         -0.5073    0.9528    0.2595 C.ar      1 <0>        -0.1145
      3 C3         -0.3905    0.3650   -0.9820 C.ar      1 <0>        -0.0450
      4 C4         -0.1440   -1.0050   -1.0830 C.ar      1 <0>        -0.0803
      5 C5         -0.0167   -1.7750    0.0745 C.ar      1 <0>        -0.0164
      6 C6         -0.1346   -1.1803    1.3120 C.ar      1 <0>        -0.2095
      7 C7         -0.3747    0.1845    1.4086 C.ar      1 <0>         0.1696
      8 O1         -0.4848    0.7682    2.6302 O.3       1 <0>        -0.3006
      9 C8         -0.3378   -0.0805    3.7704 C.3       1 <0>         0.0595
     10 C9         -0.4921    0.7488    5.0468 C.3       1 <0>        -0.1187
     11 C10        -0.3347   -0.1599    6.2676 C.3       1 <0>         0.0653
     12 O2         -0.4789    0.6147    7.4597 O.3       1 <0>        -0.3152
     13 C11        -0.3658   -0.0458    8.6421 C.ar      1 <0>         0.1133
     14 C12        -0.1154   -1.4104    8.6555 C.ar      1 <0>        -0.2080
     15 C13        -0.0014   -2.0767    9.8586 C.ar      1 <0>        -0.0704
     16 C14        -0.1363   -1.3890   11.0538 C.ar      1 <0>        -0.1072
     17 C15        -0.3859   -0.0291   11.0430 C.ar      1 <0>        -0.0610
     18 C16        -0.4946    0.6430    9.8379 C.ar      1 <0>        -0.1398
     19 C17        -0.4905    0.4831   12.4637 C.3       1 <0>        -0.0829
     20 C18        -0.7138   -0.7739   13.3309 C.3       1 <0>        -0.1020
     21 C19        -0.0560   -1.8828   12.4826 C.3       1 <0>        -0.0269
     22 H1          0.9845   -2.0181   12.7781 H         1 <0>         0.0891
     23 C20        -0.8271   -3.1955   12.6347 C.3       1 <0>        -0.1740
     24 C21        -0.6196   -3.7420   14.0237 C.2       1 <0>         0.4907
     25 O3          0.1620   -3.1955   14.7833 O.co2     1 <0>        -0.6953
     26 O4         -1.2333   -4.7305   14.3879 O.co2     1 <0>        -0.7079
     27 C22        -0.0186   -1.6393   -2.4125 C.2       1 <0>         0.1195
     28 N1          0.2066   -2.9120   -2.7071 N.2       1 <0>        -0.5013
     29 C23         0.2772   -3.2402   -3.9748 C.2       1 <0>         0.1789
     30 N2          0.1217   -2.2953   -4.8710 N.2       1 <0>        -0.4402
     31 S1         -0.1330   -0.9301   -3.9319 S.3       1 <0>         0.3638
     32 C24         0.5310   -4.6662   -4.3911 C.3       1 <0>         0.5677
     33 F1         -0.6584   -5.2335   -4.8610 F         1 <0>        -0.1589
     34 F2          1.4928   -4.6914   -5.4067 F         1 <0>        -0.1569
     35 F3          0.9940   -5.3975   -3.2920 F         1 <0>        -0.1498
     36 H2          0.1746    2.9701    0.4008 H         1 <0>         0.0739
     37 H3         -1.3504    2.7629   -0.4936 H         1 <0>         0.0696
     38 H4         -1.3351    2.6333    1.2816 H         1 <0>         0.0763
     39 H5         -0.4900    0.9638   -1.8752 H         1 <0>         0.1379
     40 H6          0.1737   -2.8355    0.0003 H         1 <0>         0.1427
     41 H7         -0.0362   -1.7753    2.2079 H         1 <0>         0.1420
     42 H8         -1.1027   -0.8567    3.7466 H         1 <0>         0.0721
     43 H9          0.6493   -0.5426    3.7545 H         1 <0>         0.0720
     44 H10         0.2728    1.5249    5.0705 H         1 <0>         0.0874
     45 H11        -1.4792    1.2109    5.0627 H         1 <0>         0.0874
     46 H12        -1.0997   -0.9361    6.2438 H         1 <0>         0.0648
     47 H13         0.6524   -0.6220    6.2517 H         1 <0>         0.0646
     48 H14        -0.0103   -1.9503    7.7260 H         1 <0>         0.1233
     49 H15         0.1936   -3.1389    9.8686 H         1 <0>         0.1226
     50 H16        -0.6847    1.7061    9.8293 H         1 <0>         0.1241
     51 H17         0.4331    0.9838   12.7541 H         1 <0>         0.0795
     52 H18        -1.3367    1.1636   12.5590 H         1 <0>         0.0709
     53 H19        -0.2130   -0.6742   14.2939 H         1 <0>         0.0856
     54 H20        -1.7779   -0.9683   13.4647 H         1 <0>         0.0644
     55 H21        -1.8893   -3.0141   12.4706 H         1 <0>         0.0567
     56 H22        -0.4643   -3.9169   11.9025 H         1 <0>         0.0557
@<TRIPOS>BOND
     1    1    2 1
     2    1   36 1
     3    1   37 1
     4    1   38 1
     5    2    7 ar
     6    2    3 ar
     7    3    4 ar
     8    3   39 1
     9    4    5 ar
    10    4   27 1
    11    5    6 ar
    12    5   40 1
    13    6    7 ar
    14    6   41 1
    15    7    8 1
    16    8    9 1
    17    9   10 1
    18    9   42 1
    19    9   43 1
    20   10   11 1
    21   10   44 1
    22   10   45 1
    23   11   12 1
    24   11   46 1
    25   11   47 1
    26   12   13 1
    27   13   18 ar
    28   13   14 ar
    29   14   15 ar
    30   14   48 1
    31   15   16 ar
    32   15   49 1
    33   16   21 1
    34   16   17 ar
    35   17   18 ar
    36   17   19 1
    37   18   50 1
    38   19   20 1
    39   19   51 1
    40   19   52 1
    41   20   21 1
    42   20   53 1
    43   20   54 1
    44   21   22 1
    45   21   23 1
    46   23   24 1
    47   23   55 1
    48   23   56 1
    49   24   25 2
    50   24   26 1
    51   27   31 1
    52   27   28 2
    53   28   29 1
    54   29   30 2
    55   29   32 1
    56   30   31 1
    57   32   33 1
    58   32   34 1
    59   32   35 1
@<TRIPOS>MOLECULE
CHEMBL1076175
   65    69     0     0     0
SMALL
USER_CHARGES

@<TRIPOS>ATOM
      1 C1         -0.4936    2.0094   -0.7890 C.3       1 <0>        -0.1054
      2 C2         -0.3850    0.5151   -0.6268 C.ar      1 <0>        -0.0850
      3 C3         -0.3225   -0.2980   -1.7420 C.ar      1 <0>        -0.1081
      4 C4         -0.2221   -1.6731   -1.5927 C.ar      1 <0>         0.0751
      5 C5         -0.1845   -2.2321   -0.3237 C.ar      1 <0>        -0.1696
      6 C6         -0.2469   -1.4192    0.7911 C.ar      1 <0>        -0.1755
      7 C7         -0.3421   -0.0433    0.6418 C.ar      1 <0>         0.1106
      8 O1         -0.3979    0.7574    1.7394 O.3       1 <0>        -0.2774
      9 C8         -0.3489    0.1145    3.0147 C.3       1 <0>        -0.0069
     10 C9         -0.4220    1.1532    4.1040 C.2       1 <0>         0.5011
     11 O2         -0.5081    2.3346    3.8152 O.co2     1 <0>        -0.6703
     12 O3         -0.3950    0.8122    5.2743 O.co2     1 <0>        -0.6883
     13 O4         -0.1610   -2.4734   -2.6904 O.3       1 <0>        -0.3104
     14 C10        -0.0585   -3.8804   -2.4624 C.3       1 <0>         0.1517
     15 C11        -0.0028   -4.6008   -3.7849 C.2       1 <0>         0.0469
     16 N1          1.0537   -4.9154   -4.4871 N.2       1 <0>        -0.4811
     17 C12         0.9545   -5.5549   -5.6422 C.2       1 <0>         0.1202
     18 C13        -0.3399   -5.8667   -6.0546 C.2       1 <0>        -0.1610
     19 S1         -1.2855   -5.1938   -4.6976 S.3       1 <0>         0.1738
     20 C14        -0.8005   -6.5637   -7.2718 C.ar      1 <0>        -0.0184
     21 C15        -0.2003   -7.7633   -7.6616 C.ar      1 <0>        -0.0483
     22 C16        -0.6335   -8.4107   -8.7988 C.ar      1 <0>        -0.1176
     23 C17        -1.6650   -7.8720   -9.5566 C.ar      1 <0>         0.1143
     24 C18        -2.2645   -6.6797   -9.1729 C.ar      1 <0>        -0.1868
     25 C19        -1.8416   -6.0285   -8.0340 C.ar      1 <0>        -0.0575
     26 O5         -2.0886   -8.5133  -10.6773 O.3       1 <0>        -0.3088
     27 C20        -3.1535   -7.9042  -11.4100 C.3       1 <0>         0.6037
     28 F1         -2.7598   -6.6299  -11.8322 F         1 <0>        -0.1635
     29 F2         -3.4616   -8.6905  -12.5253 F         1 <0>        -0.1301
     30 F3         -4.2816   -7.7958  -10.5898 F         1 <0>        -0.1634
     31 C21         2.1439   -5.9157   -6.4457 C.ar      1 <0>        -0.0182
     32 C22         2.1314   -5.7376   -7.8304 C.ar      1 <0>        -0.0894
     33 C23         3.2385   -6.0730   -8.5773 C.ar      1 <0>        -0.1095
     34 C24         4.3722   -6.5906   -7.9508 C.ar      1 <0>        -0.0370
     35 C25         4.3851   -6.7692   -6.5675 C.ar      1 <0>        -0.1113
     36 C26         3.2808   -6.4288   -5.8187 C.ar      1 <0>        -0.0804
     37 C27         5.5641   -6.9516   -8.7558 C.ar      1 <0>        -0.0458
     38 C28         5.5563   -6.7694  -10.1378 C.ar      1 <0>        -0.1099
     39 C29         6.6683   -7.1072  -10.8819 C.ar      1 <0>        -0.1182
     40 C30         7.7892   -7.6261  -10.2589 C.ar      1 <0>        -0.1192
     41 C31         7.8024   -7.8095   -8.8879 C.ar      1 <0>        -0.1178
     42 C32         6.6986   -7.4691   -8.1328 C.ar      1 <0>        -0.1097
     43 H1          0.5052    2.4440   -0.8301 H         1 <0>         0.0695
     44 H2         -1.0271    2.2369   -1.7119 H         1 <0>         0.0613
     45 H3         -1.0375    2.4282    0.0577 H         1 <0>         0.0809
     46 H4         -0.3522    0.1372   -2.7300 H         1 <0>         0.1325
     47 H5         -0.1066   -3.3030   -0.2075 H         1 <0>         0.1249
     48 H6         -0.2184   -1.8545    1.7790 H         1 <0>         0.1324
     49 H7         -1.1913   -0.5707    3.1088 H         1 <0>         0.0579
     50 H8          0.5840   -0.4421    3.1053 H         1 <0>         0.0580
     51 H9          0.8481   -4.0915   -1.8953 H         1 <0>         0.0964
     52 H10        -0.9271   -4.2215   -1.8992 H         1 <0>         0.0897
     53 H11         0.6021   -8.1828   -7.0729 H         1 <0>         0.1416
     54 H12        -0.1698   -9.3380   -9.1011 H         1 <0>         0.1452
     55 H13        -3.0664   -6.2643   -9.7652 H         1 <0>         0.1394
     56 H14        -2.3114   -5.1035   -7.7338 H         1 <0>         0.1384
     57 H15         1.2536   -5.3372   -8.3156 H         1 <0>         0.1253
     58 H16         3.2288   -5.9356   -9.6485 H         1 <0>         0.1285
     59 H17         5.2631   -7.1703   -6.0831 H         1 <0>         0.1289
     60 H18         3.2926   -6.5626   -4.7471 H         1 <0>         0.1293
     61 H19         4.6815   -6.3651  -10.6253 H         1 <0>         0.1255
     62 H20         6.6634   -6.9665  -11.9527 H         1 <0>         0.1239
     63 H21         8.6571   -7.8894  -10.8453 H         1 <0>         0.1222
     64 H22         8.6801   -8.2153   -8.4069 H         1 <0>         0.1242
     65 H23         6.7120   -7.6078   -7.0618 H         1 <0>         0.1261
@<TRIPOS>BOND
     1    1    2 1
     2    1   43 1
     3    1   44 1
     4    1   45 1
     5    2    7 ar
     6    2    3 ar
     7    3    4 ar
     8    3   46 1
     9    4    5 ar
    10    4   13 1
    11    5    6 ar
    12    5   47 1
    13    6    7 ar
    14    6   48 1
    15    7    8 1
    16    8    9 1
    17    9   10 1
    18    9   49 1
    19    9   50 1
    20   10   11 2
    21   10   12 1
    22   13   14 1
    23   14   15 1
    24   14   51 1
    25   14   52 1
    26   15   19 1
    27   15   16 2
    28   16   17 1
    29   17   18 2
    30   17   31 1
    31   18   19 1
    32   18   20 1
    33   20   25 ar
    34   20   21 ar
    35   21   22 ar
    36   21   53 1
    37   22   23 ar
    38   22   54 1
    39   23   24 ar
    40   23   26 1
    41   24   25 ar
    42   24   55 1
    43   25   56 1
    44   26   27 1
    45   27   28 1
    46   27   29 1
    47   27   30 1
    48   31   36 ar
    49   31   32 ar
    50   32   33 ar
    51   32   57 1
    52   33   34 ar
    53   33   58 1
    54   34   35 ar
    55   34   37 1
    56   35   36 ar
    57   35   59 1
    58   36   60 1
    59   37   42 ar
    60   37   38 ar
    61   38   39 ar
    62   38   61 1
    63   39   40 ar
    64   39   62 1
    65   40   41 ar
    66   40   63 1
    67   41   42 ar
    68   41   64 1
    69   42   65 1
@<TRIPOS>MOLECULE
CHEMBL214289
   52    54     0     0     0
SMALL
USER_CHARGES

@<TRIPOS>ATOM
      1 C1         -0.0126    1.4920   -0.2466 C.3       1 <0>        -0.0862
      2 C2          0.0048   -0.0090   -0.1134 C.2       1 <0>         0.0871
      3 C3         -1.0681   -0.8174   -0.1695 C.2       1 <0>        -0.2432
      4 C4         -0.6223   -2.1504   -0.0005 C.2       1 <0>         0.1818
      5 N1          0.6798   -2.1212    0.1508 N.2       1 <0>        -0.2987
      6 O1          1.0944   -0.7692    0.0758 O.3       1 <0>        -0.0827
      7 C5         -1.4763   -3.3641    0.0051 C.ar      1 <0>        -0.0621
      8 C6         -2.6316   -3.4028    0.7832 C.ar      1 <0>        -0.0775
      9 C7         -3.4224   -4.5336    0.7844 C.ar      1 <0>        -0.1131
     10 C8         -3.0704   -5.6285    0.0153 C.ar      1 <0>         0.0192
     11 C9         -1.9252   -5.5970   -0.7587 C.ar      1 <0>        -0.1028
     12 C10        -1.1289   -4.4678   -0.7726 C.ar      1 <0>         0.0102
     13 Cl1         0.3050   -4.4264   -1.7504 Cl        1 <0>        -0.0699
     14 C11        -3.9384   -6.8605    0.0216 C.3       1 <0>        -0.1646
     15 C12        -4.9777   -6.7483   -1.0638 C.2       1 <0>         0.4956
     16 O2         -5.0106   -5.7596   -1.7765 O.co2     1 <0>        -0.6694
     17 O3         -5.7857   -7.6462   -1.2293 O.co2     1 <0>        -0.7029
     18 C13        -2.4956   -0.3809   -0.3763 C.3       1 <0>         0.1347
     19 O4         -2.7532   -0.2416   -1.7750 O.3       1 <0>        -0.3707
     20 C14        -4.0864    0.1712   -2.0821 C.3       1 <0>         0.0614
     21 C15        -4.2478    0.2869   -3.5991 C.3       1 <0>         0.0518
     22 O5         -4.1056   -1.0049   -4.1932 O.3       1 <0>        -0.2544
     23 C16        -4.2223   -1.0785   -5.5452 C.ar      1 <0>         0.2294
     24 C17        -4.4628    0.0701   -6.2855 C.ar      1 <0>        -0.2178
     25 C18        -4.5805   -0.0072   -7.6596 C.ar      1 <0>         0.0117
     26 C19        -4.4588   -1.2281   -8.2975 C.ar      1 <0>        -0.2328
     27 C20        -4.2196   -2.3741   -7.5621 C.ar      1 <0>         0.0326
     28 C21        -4.0954   -2.3011   -6.1880 C.ar      1 <0>        -0.0857
     29 N2         -3.8332   -3.5275   -5.4019 N.pl3     1 <0>         0.0261
     30 O6         -3.7227   -4.5928   -5.9626 O.2       1 <0>        -0.1756
     31 O7         -3.7296   -3.4638   -4.1990 O.3       1 <0>        -0.0747
     32 C22        -4.5876   -1.3096   -9.7967 C.3       1 <0>         0.5202
     33 F1         -4.8264   -0.0320  -10.3144 F         1 <0>        -0.1747
     34 F2         -3.4031   -1.8188  -10.3396 F         1 <0>        -0.1719
     35 F3         -5.6530   -2.1536  -10.1280 F         1 <0>        -0.1710
     36 H1          1.0043    1.8758   -0.1651 H         1 <0>         0.0836
     37 H2         -0.4277    1.7660   -1.2165 H         1 <0>         0.0960
     38 H3         -0.6270    1.9200    0.5456 H         1 <0>         0.0932
     39 H4         -2.9074   -2.5492    1.3847 H         1 <0>         0.1265
     40 H5         -4.3180   -4.5642    1.3873 H         1 <0>         0.1282
     41 H6         -1.6548   -6.4548   -1.3566 H         1 <0>         0.1328
     42 H7         -3.3209   -7.7409   -0.1562 H         1 <0>         0.0731
     43 H8         -4.4319   -6.9522    0.9892 H         1 <0>         0.0731
     44 H9         -3.1685   -1.1280    0.0445 H         1 <0>         0.0714
     45 H10        -2.6586    0.5757    0.1202 H         1 <0>         0.0593
     46 H11        -4.7924   -0.5645   -1.6967 H         1 <0>         0.0736
     47 H12        -4.2824    1.1392   -1.6210 H         1 <0>         0.0758
     48 H13        -5.2353    0.6864   -3.8301 H         1 <0>         0.0877
     49 H14        -3.4836    0.9553   -3.9959 H         1 <0>         0.0797
     50 H15        -4.5583    1.0238   -5.7877 H         1 <0>         0.1609
     51 H16        -4.7680    0.8865   -8.2362 H         1 <0>         0.1575
     52 H17        -4.1253   -3.3264   -8.0626 H         1 <0>         0.1684
@<TRIPOS>BOND
     1    1    2 1
     2    1   36 1
     3    1   37 1
     4    1   38 1
     5    2    6 1
     6    2    3 2
     7    3    4 1
     8    3   18 1
     9    4    5 2
    10    4    7 1
    11    5    6 1
    12    7   12 ar
    13    7    8 ar
    14    8    9 ar
    15    8   39 1
    16    9   10 ar
    17    9   40 1
    18   10   11 ar
    19   10   14 1
    20   11   12 ar
    21   11   41 1
    22   12   13 1
    23   14   15 1
    24   14   42 1
    25   14   43 1
    26   15   16 2
    27   15   17 1
    28   18   19 1
    29   18   44 1
    30   18   45 1
    31   19   20 1
    32   20   21 1
    33   20   46 1
    34   20   47 1
    35   21   22 1
    36   21   48 1
    37   21   49 1
    38   22   23 1
    39   23   28 ar
    40   23   24 ar
    41   24   25 ar
    42   24   50 1
    43   25   26 ar
    44   25   51 1
    45   26   27 ar
    46   26   32 1
    47   27   28 ar
    48   27   52 1
    49   28   29 1
    50   29   30 2
    51   29   31 1
    52   32   33 1
    53   32   34 1
    54   32   35 1
@<TRIPOS>MOLECULE
CHEMBL221399
   49    51     0     0     0
SMALL
USER_CHARGES

@<TRIPOS>ATOM
      1 C1         -0.0184    1.5028    0.0103 C.3       1 <0>        -0.1050
      2 C2          0.0021   -0.0041    0.0020 C.ar      1 <0>        -0.1064
      3 C3          0.0057   -0.6878   -1.1980 C.ar      1 <0>        -0.0603
      4 C4          0.0246   -2.0766   -1.2053 C.ar      1 <0>        -0.1346
      5 C5          0.0397   -2.7765   -0.0051 C.ar      1 <0>        -0.0925
      6 C6          0.0360   -2.0909    1.1933 C.ar      1 <0>        -0.1959
      7 C7          0.0229   -0.7036    1.1994 C.ar      1 <0>         0.1409
      8 O1          0.0254   -0.0293    2.3804 O.3       1 <0>        -0.2750
      9 C8          0.0474   -0.8131    3.5751 C.3       1 <0>        -0.0081
     10 C9          0.0468    0.0992    4.7746 C.2       1 <0>         0.5016
     11 O2          0.0293    1.3085    4.6207 O.co2     1 <0>        -0.6697
     12 O3          0.0640   -0.3721    5.8989 O.co2     1 <0>        -0.6871
     13 S1          0.0286   -2.9502   -2.7355 S.3       1 <0>        -0.1189
     14 C10         0.0549   -4.6962   -2.2439 C.3       1 <0>        -0.0894
     15 C11         0.0604   -5.5647   -3.4755 C.2       1 <0>        -0.0926
     16 C12         1.1201   -6.3364   -3.7454 C.2       1 <0>        -0.0467
     17 C13         1.1255   -7.1910   -4.9572 C.ar      1 <0>        -0.0263
     18 C14         1.1392   -8.5795   -4.8338 C.ar      1 <0>        -0.0950
     19 C15         1.1443   -9.3701   -5.9646 C.ar      1 <0>        -0.0894
     20 C16         1.1362   -8.7869   -7.2199 C.ar      1 <0>        -0.0888
     21 C17         1.1230   -7.4086   -7.3481 C.ar      1 <0>        -0.0888
     22 C18         1.1111   -6.6088   -6.2237 C.ar      1 <0>        -0.0979
     23 Br1         1.1438   -9.8767   -8.7652 Br        1 <0>        -0.0517
     24 C19         2.2887   -6.3367   -2.8326 C.ar      1 <0>        -0.0298
     25 C20         3.5205   -5.8552   -3.2732 C.ar      1 <0>        -0.0924
     26 C21         4.6048   -5.8578   -2.4198 C.ar      1 <0>        -0.0865
     27 C22         4.4711   -6.3378   -1.1284 C.ar      1 <0>        -0.0862
     28 C23         3.2503   -6.8175   -0.6860 C.ar      1 <0>        -0.0881
     29 C24         2.1580   -6.8132   -1.5291 C.ar      1 <0>        -0.1051
     30 Br2         5.9615   -6.3388    0.0354 Br        1 <0>        -0.0478
     31 H1          1.0042    1.8801    0.0026 H         1 <0>         0.0682
     32 H2         -0.5455    1.8639   -0.8728 H         1 <0>         0.0606
     33 H3         -0.5286    1.8543    0.9071 H         1 <0>         0.0798
     34 H4         -0.0064   -0.1428   -2.1303 H         1 <0>         0.1289
     35 H5          0.0540   -3.8564   -0.0097 H         1 <0>         0.1174
     36 H6          0.0478   -2.6347    2.1263 H         1 <0>         0.1314
     37 H7         -0.8339   -1.4538    3.6055 H         1 <0>         0.0589
     38 H8          0.9458   -1.4302    3.5883 H         1 <0>         0.0592
     39 H9          0.9506   -4.8945   -1.6554 H         1 <0>         0.0998
     40 H10        -0.8291   -4.9187   -1.6464 H         1 <0>         0.0995
     41 H11        -0.7908   -5.5645   -4.1402 H         1 <0>         0.1329
     42 H12         1.1463   -9.0355   -3.8548 H         1 <0>         0.1331
     43 H13         1.1549  -10.4459   -5.8701 H         1 <0>         0.1344
     44 H14         1.1175   -6.9585   -8.3298 H         1 <0>         0.1354
     45 H15         1.0956   -5.5337   -6.3247 H         1 <0>         0.1363
     46 H16         3.6260   -5.4811   -4.2808 H         1 <0>         0.1329
     47 H17         5.5595   -5.4849   -2.7602 H         1 <0>         0.1351
     48 H18         3.1515   -7.1915    0.3224 H         1 <0>         0.1360
     49 H19         1.2047   -7.1828   -1.1813 H         1 <0>         0.1336
@<TRIPOS>BOND
     1    1    2 1
     2    1   31 1
     3    1   32 1
     4    1   33 1
     5    2    7 ar
     6    2    3 ar
     7    3    4 ar
     8    3   34 1
     9    4    5 ar
    10    4   13 1
    11    5    6 ar
    12    5   35 1
    13    6    7 ar
    14    6   36 1
    15    7    8 1
    16    8    9 1
    17    9   10 1
    18    9   37 1
    19    9   38 1
    20   10   11 2
    21   10   12 1
    22   13   14 1
    23   14   15 1
    24   14   39 1
    25   14   40 1
    26   15   16 2
    27   15   41 1
    28   16   17 1
    29   16   24 1
    30   17   22 ar
    31   17   18 ar
    32   18   19 ar
    33   18   42 1
    34   19   20 ar
    35   19   43 1
    36   20   21 ar
    37   20   23 1
    38   21   22 ar
    39   21   44 1
    40   22   45 1
    41   24   29 ar
    42   24   25 ar
    43   25   26 ar
    44   25   46 1
    45   26   27 ar
    46   26   47 1
    47   27   28 ar
    48   27   30 1
    49   28   29 ar
    50   28   48 1
    51   29   49 1
@<TRIPOS>MOLECULE
CHEMBL122418
   69    72     0     0     0
SMALL
USER_CHARGES

@<TRIPOS>ATOM
      1 C1         -0.0187    1.5258    0.0104 C.3       1 <0>        -0.1526
      2 C2          0.0021   -0.0041    0.0020 C.3       1 <0>        -0.1153
      3 C3         -1.4333   -0.5336    0.0129 C.3       1 <0>        -0.0720
      4 C4         -1.4129   -2.0405    0.0046 C.ar      1 <0>        -0.1076
      5 C5         -1.5134   -2.7268   -1.1904 C.ar      1 <0>        -0.0758
      6 C6         -1.4953   -4.1091   -1.1986 C.ar      1 <0>        -0.1090
      7 C7         -1.3760   -4.8084   -0.0116 C.ar      1 <0>        -0.0826
      8 C8         -1.2747   -4.1270    1.1856 C.ar      1 <0>        -0.2033
      9 C9         -1.2874   -2.7396    1.1961 C.ar      1 <0>         0.1263
     10 O1         -1.1822   -2.0667    2.3721 O.3       1 <0>        -0.3075
     11 C10        -1.0560   -2.8517    3.5596 C.3       1 <0>         0.0645
     12 C11        -0.9506   -1.9266    4.7737 C.3       1 <0>        -0.1197
     13 C12        -0.8154   -2.7670    6.0450 C.3       1 <0>         0.0636
     14 O2         -0.7169   -1.9030    7.1789 O.3       1 <0>        -0.3080
     15 C13        -0.5904   -2.4943    8.3960 C.ar      1 <0>         0.1360
     16 C14        -0.5559   -3.8777    8.4963 C.ar      1 <0>        -0.1914
     17 C15        -0.4268   -4.4763    9.7344 C.ar      1 <0>        -0.0708
     18 C16        -0.3320   -3.6979   10.8734 C.ar      1 <0>        -0.1323
     19 C17        -0.3666   -2.3193   10.7763 C.ar      1 <0>        -0.0409
     20 C18        -0.4899   -1.7156    9.5396 C.ar      1 <0>        -0.1186
     21 C19        -0.2636   -1.4741   12.0197 C.3       1 <0>        -0.0337
     22 C20         0.9442   -1.8676   12.8585 C.2       1 <0>         0.5342
     23 O3          2.0799   -1.7685   12.4458 O.2       1 <0>        -0.4481
     24 N1          0.6692   -2.3255   14.0682 N.am      1 <0>        -0.6896
     25 C21        -0.5820   -2.4455   14.5494 C.2       1 <0>         0.5628
     26 O4         -0.9297   -2.8528   15.6409 O.2       1 <0>        -0.4137
     27 S1         -1.6128   -1.8659   13.2099 S.3       1 <0>        -0.1361
     28 C22        -1.6061   -4.8551   -2.5033 C.3       1 <0>        -0.0737
     29 C23        -0.2074   -5.0878   -3.0781 C.3       1 <0>        -0.0802
     30 C24         0.4282   -3.7423   -3.4339 C.3       1 <0>        -0.1160
     31 C25         1.8268   -3.9751   -4.0087 C.3       1 <0>        -0.1200
     32 C26         1.7237   -4.8391   -5.2672 C.3       1 <0>        -0.1206
     33 C27         1.0881   -6.1846   -4.9114 C.3       1 <0>        -0.1200
     34 C28        -0.3105   -5.9519   -4.3366 C.3       1 <0>        -0.1150
     35 H1          1.0039    1.9031    0.0027 H         1 <0>         0.0539
     36 H2         -0.5459    1.8868   -0.8726 H         1 <0>         0.0533
     37 H3         -0.5289    1.8773    0.9072 H         1 <0>         0.0546
     38 H4          0.5123   -0.3556   -0.8948 H         1 <0>         0.0593
     39 H5          0.5293   -0.3651    0.8851 H         1 <0>         0.0628
     40 H6         -1.9435   -0.1821    0.9097 H         1 <0>         0.0749
     41 H7         -1.9605   -0.1726   -0.8702 H         1 <0>         0.0691
     42 H8         -1.6067   -2.1829   -2.1187 H         1 <0>         0.1272
     43 H9         -1.3624   -5.8883   -0.0206 H         1 <0>         0.1223
     44 H10        -1.1816   -4.6736    2.1124 H         1 <0>         0.1253
     45 H11        -1.9311   -3.4927    3.6661 H         1 <0>         0.0652
     46 H12        -0.1596   -3.4684    3.4938 H         1 <0>         0.0652
     47 H13        -0.0755   -1.2855    4.6671 H         1 <0>         0.0880
     48 H14        -1.8469   -1.3099    4.8394 H         1 <0>         0.0880
     49 H15        -1.6905   -3.4081    6.1515 H         1 <0>         0.0685
     50 H16         0.0810   -3.3837    5.9792 H         1 <0>         0.0682
     51 H17        -0.6302   -4.4861    7.6070 H         1 <0>         0.1337
     52 H18        -0.4001   -5.5531    9.8129 H         1 <0>         0.1337
     53 H19        -0.2311   -4.1678   11.8406 H         1 <0>         0.1208
     54 H20        -0.5124   -0.6385    9.4637 H         1 <0>         0.1406
     55 H21        -0.2476   -0.4124   11.7736 H         1 <0>         0.1697
     56 H22         1.4082   -2.5890   14.6387 H         1 <0>         0.4203
     57 H23        -2.0932   -5.8151   -2.3326 H         1 <0>         0.0709
     58 H24        -2.1956   -4.2687   -3.2081 H         1 <0>         0.0712
     59 H25         0.4097   -5.5967   -2.3376 H         1 <0>         0.0696
     60 H26        -0.1889   -3.2335   -4.1744 H         1 <0>         0.0603
     61 H27         0.5016   -3.1268   -2.5373 H         1 <0>         0.0658
     62 H28         2.2796   -3.0166   -4.2622 H         1 <0>         0.0600
     63 H29         2.4439   -4.4840   -3.2682 H         1 <0>         0.0595
     64 H30         1.1066   -4.3303   -6.0077 H         1 <0>         0.0608
     65 H31         2.7202   -5.0050   -5.6767 H         1 <0>         0.0594
     66 H32         1.0147   -6.8002   -5.8079 H         1 <0>         0.0607
     67 H33         1.7052   -6.6935   -4.1709 H         1 <0>         0.0603
     68 H34        -0.7633   -6.9104   -4.0831 H         1 <0>         0.0610
     69 H35        -0.9276   -5.4430   -5.0771 H         1 <0>         0.0623
@<TRIPOS>BOND
     1    1    2 1
     2    1   35 1
     3    1   36 1
     4    1   37 1
     5    2    3 1
     6    2   38 1
     7    2   39 1
     8    3    4 1
     9    3   40 1
    10    3   41 1
    11    4    9 ar
    12    4    5 ar
    13    5    6 ar
    14    5   42 1
    15    6    7 ar
    16    6   28 1
    17    7    8 ar
    18    7   43 1
    19    8    9 ar
    20    8   44 1
    21    9   10 1
    22   10   11 1
    23   11   12 1
    24   11   45 1
    25   11   46 1
    26   12   13 1
    27   12   47 1
    28   12   48 1
    29   13   14 1
    30   13   49 1
    31   13   50 1
    32   14   15 1
    33   15   20 ar
    34   15   16 ar
    35   16   17 ar
    36   16   51 1
    37   17   18 ar
    38   17   52 1
    39   18   19 ar
    40   18   53 1
    41   19   20 ar
    42   19   21 1
    43   20   54 1
    44   21   27 1
    45   21   22 1
    46   21   55 1
    47   22   23 2
    48   22   24 am
    49   24   25 am
    50   24   56 1
    51   25   26 2
    52   25   27 1
    53   28   29 1
    54   28   57 1
    55   28   58 1
    56   29   34 1
    57   29   30 1
    58   29   59 1
    59   30   31 1
    60   30   60 1
    61   30   61 1
    62   31   32 1
    63   31   62 1
    64   31   63 1
    65   32   33 1
    66   32   64 1
    67   32   65 1
    68   33   34 1
    69   33   66 1
    70   33   67 1
    71   34   68 1
    72   34   69 1
@<TRIPOS>MOLECULE
CHEMBL122418__1
   69    72     0     0     0
SMALL
USER_CHARGES

@<TRIPOS>ATOM
      1 C1         -0.0187    1.5258    0.0104 C.3       1 <0>        -0.1526
      2 C2          0.0021   -0.0041    0.0020 C.3       1 <0>        -0.1154
      3 C3         -1.4333   -0.5336    0.0129 C.3       1 <0>        -0.0720
      4 C4         -1.4129   -2.0405    0.0046 C.ar      1 <0>        -0.1071
      5 C5         -1.5134   -2.7268   -1.1904 C.ar      1 <0>        -0.0779
      6 C6         -1.4953   -4.1091   -1.1986 C.ar      1 <0>        -0.1089
      7 C7         -1.3760   -4.8084   -0.0116 C.ar      1 <0>        -0.0804
      8 C8         -1.2747   -4.1270    1.1856 C.ar      1 <0>        -0.2040
      9 C9         -1.2874   -2.7396    1.1961 C.ar      1 <0>         0.1264
     10 O1         -1.1822   -2.0667    2.3721 O.3       1 <0>        -0.3075
     11 C10        -1.0560   -2.8517    3.5596 C.3       1 <0>         0.0646
     12 C11        -0.9506   -1.9266    4.7737 C.3       1 <0>        -0.1197
     13 C12        -0.8154   -2.7670    6.0450 C.3       1 <0>         0.0636
     14 O2         -0.7169   -1.9030    7.1789 O.3       1 <0>        -0.3080
     15 C13        -0.5904   -2.4943    8.3960 C.ar      1 <0>         0.1360
     16 C14        -0.5559   -3.8777    8.4963 C.ar      1 <0>        -0.1914
     17 C15        -0.4268   -4.4763    9.7344 C.ar      1 <0>        -0.0707
     18 C16        -0.3320   -3.6979   10.8734 C.ar      1 <0>        -0.1323
     19 C17        -0.3666   -2.3193   10.7763 C.ar      1 <0>        -0.0408
     20 C18        -0.4899   -1.7156    9.5396 C.ar      1 <0>        -0.1187
     21 C19        -0.2636   -1.4741   12.0197 C.3       1 <0>        -0.0337
     22 C20        -1.2760   -1.9085   13.0702 C.2       1 <0>         0.5343
     23 O3         -2.4720   -1.8523   12.8799 O.2       1 <0>        -0.4481
     24 N1         -0.7608   -2.3518   14.2046 N.am      1 <0>        -0.6896
     25 C21         0.5624   -2.4244   14.4403 C.2       1 <0>         0.5629
     26 O4          1.1247   -2.8156   15.4447 O.2       1 <0>        -0.4136
     27 S1          1.2996   -1.8123   12.9321 S.3       1 <0>        -0.1364
     28 C22        -1.6061   -4.8551   -2.5033 C.3       1 <0>        -0.0736
     29 C23        -0.2074   -5.0878   -3.0781 C.3       1 <0>        -0.0803
     30 C24         0.5786   -6.0139   -2.1479 C.3       1 <0>        -0.1156
     31 C25         1.9773   -6.2467   -2.7227 C.3       1 <0>        -0.1202
     32 C26         1.8597   -6.8923   -4.1048 C.3       1 <0>        -0.1205
     33 C27         1.0737   -5.9662   -5.0351 C.3       1 <0>        -0.1201
     34 C28        -0.3250   -5.7334   -4.4602 C.3       1 <0>        -0.1150
     35 H1          1.0039    1.9031    0.0027 H         1 <0>         0.0539
     36 H2         -0.5459    1.8868   -0.8726 H         1 <0>         0.0533
     37 H3         -0.5289    1.8773    0.9072 H         1 <0>         0.0546
     38 H4          0.5123   -0.3556   -0.8948 H         1 <0>         0.0593
     39 H5          0.5293   -0.3651    0.8851 H         1 <0>         0.0628
     40 H6         -1.9435   -0.1821    0.9097 H         1 <0>         0.0749
     41 H7         -1.9605   -0.1726   -0.8702 H         1 <0>         0.0692
     42 H8         -1.6067   -2.1829   -2.1187 H         1 <0>         0.1268
     43 H9         -1.3624   -5.8883   -0.0206 H         1 <0>         0.1227
     44 H10        -1.1816   -4.6736    2.1124 H         1 <0>         0.1253
     45 H11        -1.9311   -3.4927    3.6661 H         1 <0>         0.0652
     46 H12        -0.1596   -3.4684    3.4938 H         1 <0>         0.0652
     47 H13        -0.0755   -1.2855    4.6671 H         1 <0>         0.0880
     48 H14        -1.8469   -1.3099    4.8394 H         1 <0>         0.0880
     49 H15        -1.6905   -3.4081    6.1515 H         1 <0>         0.0683
     50 H16         0.0810   -3.3837    5.9792 H         1 <0>         0.0684
     51 H17        -0.6302   -4.4861    7.6070 H         1 <0>         0.1337
     52 H18        -0.4001   -5.5531    9.8129 H         1 <0>         0.1337
     53 H19        -0.2311   -4.1678   11.8406 H         1 <0>         0.1208
     54 H20        -0.5124   -0.6385    9.4637 H         1 <0>         0.1406
     55 H21        -0.3645   -0.4145   11.7848 H         1 <0>         0.1697
     56 H22        -1.3685   -2.6395   14.9037 H         1 <0>         0.4203
     57 H23        -2.0932   -5.8151   -2.3326 H         1 <0>         0.0706
     58 H24        -2.1956   -4.2687   -3.2081 H         1 <0>         0.0715
     59 H25         0.3128   -4.1340   -3.1657 H         1 <0>         0.0705
     60 H26         0.6624   -5.5540   -1.1632 H         1 <0>         0.0649
     61 H27         0.0584   -6.9678   -2.0603 H         1 <0>         0.0597
     62 H28         2.4975   -5.2929   -2.8102 H         1 <0>         0.0600
     63 H29         2.5373   -6.9065   -2.0599 H         1 <0>         0.0594
     64 H30         2.8562   -7.0581   -4.5143 H         1 <0>         0.0595
     65 H31         1.3395   -7.8461   -4.0172 H         1 <0>         0.0605
     66 H32         1.5939   -5.0123   -5.1226 H         1 <0>         0.0608
     67 H33         0.9899   -6.4261   -6.0197 H         1 <0>         0.0608
     68 H34        -0.8452   -6.6873   -4.3727 H         1 <0>         0.0619
     69 H35        -0.8850   -5.0736   -5.1230 H         1 <0>         0.0615
@<TRIPOS>BOND
     1    1    2 1
     2    1   35 1
     3    1   36 1
     4    1   37 1
     5    2    3 1
     6    2   38 1
     7    2   39 1
     8    3    4 1
     9    3   40 1
    10    3   41 1
    11    4    9 ar
    12    4    5 ar
    13    5    6 ar
    14    5   42 1
    15    6    7 ar
    16    6   28 1
    17    7    8 ar
    18    7   43 1
    19    8    9 ar
    20    8   44 1
    21    9   10 1
    22   10   11 1
    23   11   12 1
    24   11   45 1
    25   11   46 1
    26   12   13 1
    27   12   47 1
    28   12   48 1
    29   13   14 1
    30   13   49 1
    31   13   50 1
    32   14   15 1
    33   15   20 ar
    34   15   16 ar
    35   16   17 ar
    36   16   51 1
    37   17   18 ar
    38   17   52 1
    39   18   19 ar
    40   18   53 1
    41   19   20 ar
    42   19   21 1
    43   20   54 1
    44   21   27 1
    45   21   22 1
    46   21   55 1
    47   22   23 2
    48   22   24 am
    49   24   25 am
    50   24   56 1
    51   25   26 2
    52   25   27 1
    53   28   29 1
    54   28   57 1
    55   28   58 1
    56   29   34 1
    57   29   30 1
    58   29   59 1
    59   30   31 1
    60   30   60 1
    61   30   61 1
    62   31   32 1
    63   31   62 1
    64   31   63 1
    65   32   33 1
    66   32   64 1
    67   32   65 1
    68   33   34 1
    69   33   66 1
    70   33   67 1
    71   34   68 1
    72   34   69 1
@<TRIPOS>MOLECULE
CHEMBL207449
   61    64     0     0     0
SMALL
USER_CHARGES

@<TRIPOS>ATOM
      1 C1         -0.0184    1.5028    0.0103 C.3       1 <0>        -0.1055
      2 C2          0.0021   -0.0041    0.0020 C.ar      1 <0>        -0.1062
      3 C3          0.0057   -0.6878   -1.1980 C.ar      1 <0>        -0.0595
      4 C4          0.0246   -2.0766   -1.2053 C.ar      1 <0>        -0.1384
      5 C5          0.0397   -2.7765   -0.0051 C.ar      1 <0>        -0.0937
      6 C6          0.0360   -2.0909    1.1933 C.ar      1 <0>        -0.1965
      7 C7          0.0229   -0.7036    1.1994 C.ar      1 <0>         0.1414
      8 O1          0.0254   -0.0293    2.3804 O.3       1 <0>        -0.2748
      9 C8          0.0474   -0.8131    3.5751 C.3       1 <0>        -0.0083
     10 C9          0.0468    0.0992    4.7746 C.2       1 <0>         0.5014
     11 O2          0.0293    1.3085    4.6207 O.co2     1 <0>        -0.6695
     12 O3          0.0640   -0.3721    5.8989 O.co2     1 <0>        -0.6869
     13 S1          0.0286   -2.9502   -2.7355 S.3       1 <0>        -0.1152
     14 C10         0.0549   -4.6962   -2.2439 C.3       1 <0>        -0.0707
     15 C11         0.0604   -5.5647   -3.4755 C.ar      1 <0>        -0.0629
     16 C12        -1.1345   -5.9728   -4.0348 C.ar      1 <0>        -0.0747
     17 C13        -1.1354   -6.7763   -5.1740 C.ar      1 <0>        -0.0533
     18 C14         0.0706   -7.1667   -5.7477 C.ar      1 <0>        -0.0831
     19 C15         1.2715   -6.7523   -5.1802 C.ar      1 <0>        -0.0534
     20 C16         1.2603   -5.9449   -4.0437 C.ar      1 <0>        -0.0747
     21 C17         2.5617   -7.1651   -5.7861 C.ar      1 <0>        -0.0065
     22 C18         2.5742   -7.9637   -6.9278 C.ar      1 <0>        -0.1144
     23 C19         3.7770   -8.3447   -7.4873 C.ar      1 <0>        -0.0653
     24 C20         4.9686   -7.9356   -6.9163 C.ar      1 <0>        -0.1852
     25 C21         4.9621   -7.1431   -5.7826 C.ar      1 <0>        -0.0634
     26 C22         3.7649   -6.7508   -5.2188 C.ar      1 <0>        -0.1113
     27 C23         6.2788   -8.3553   -7.5314 C.3       1 <0>         0.5081
     28 F1          6.6755   -7.4044   -8.4778 F         1 <0>        -0.1758
     29 F2          7.2530   -8.4531   -6.5321 F         1 <0>        -0.1762
     30 F3          6.1243   -9.5979   -8.1553 F         1 <0>        -0.1773
     31 C24        -2.4202   -7.2148   -5.7735 C.ar      1 <0>        -0.0065
     32 C25        -2.4225   -8.0225   -6.9087 C.ar      1 <0>        -0.1144
     33 C26        -3.6203   -8.4274   -7.4621 C.ar      1 <0>        -0.0653
     34 C27        -4.8170   -8.0323   -6.8920 C.ar      1 <0>        -0.1852
     35 C28        -4.8206   -7.2301   -5.7652 C.ar      1 <0>        -0.0634
     36 C29        -3.6286   -6.8249   -5.1997 C.ar      1 <0>        -0.1113
     37 C30        -6.1217   -8.4772   -7.5010 C.3       1 <0>         0.5081
     38 F4         -6.5160   -9.6895   -6.9248 F         1 <0>        -0.1762
     39 F5         -7.1018   -7.5075   -7.2637 F         1 <0>        -0.1760
     40 F6         -5.9586   -8.6475   -8.8800 F         1 <0>        -0.1772
     41 H1          1.0042    1.8801    0.0026 H         1 <0>         0.0685
     42 H2         -0.5455    1.8639   -0.8728 H         1 <0>         0.0608
     43 H3         -0.5286    1.8543    0.9071 H         1 <0>         0.0800
     44 H4         -0.0064   -0.1428   -2.1303 H         1 <0>         0.1290
     45 H5          0.0540   -3.8564   -0.0097 H         1 <0>         0.1188
     46 H6          0.0478   -2.6347    2.1263 H         1 <0>         0.1319
     47 H7         -0.8339   -1.4538    3.6055 H         1 <0>         0.0593
     48 H8          0.9458   -1.4302    3.5883 H         1 <0>         0.0594
     49 H9          0.9506   -4.8945   -1.6554 H         1 <0>         0.0989
     50 H10        -0.8291   -4.9187   -1.6464 H         1 <0>         0.0990
     51 H11        -2.0700   -5.6691   -3.5887 H         1 <0>         0.1345
     52 H12         0.0746   -7.7894   -6.6301 H         1 <0>         0.1331
     53 H13         2.1917   -5.6193   -3.6047 H         1 <0>         0.1345
     54 H14         1.6443   -8.2842   -7.3740 H         1 <0>         0.1370
     55 H15         3.7878   -8.9637   -8.3722 H         1 <0>         0.1386
     56 H16         5.8954   -6.8271   -5.3405 H         1 <0>         0.1399
     57 H17         3.7609   -6.1277   -4.3366 H         1 <0>         0.1403
     58 H18        -1.4886   -8.3310   -7.3550 H         1 <0>         0.1370
     59 H19        -3.6232   -9.0536   -8.3421 H         1 <0>         0.1386
     60 H20        -5.7579   -6.9239   -5.3246 H         1 <0>         0.1399
     61 H21        -3.6325   -6.2027   -4.3169 H         1 <0>         0.1404
@<TRIPOS>BOND
     1    1    2 1
     2    1   41 1
     3    1   42 1
     4    1   43 1
     5    2    7 ar
     6    2    3 ar
     7    3    4 ar
     8    3   44 1
     9    4    5 ar
    10    4   13 1
    11    5    6 ar
    12    5   45 1
    13    6    7 ar
    14    6   46 1
    15    7    8 1
    16    8    9 1
    17    9   10 1
    18    9   47 1
    19    9   48 1
    20   10   11 2
    21   10   12 1
    22   13   14 1
    23   14   15 1
    24   14   49 1
    25   14   50 1
    26   15   20 ar
    27   15   16 ar
    28   16   17 ar
    29   16   51 1
    30   17   18 ar
    31   17   31 1
    32   18   19 ar
    33   18   52 1
    34   19   20 ar
    35   19   21 1
    36   20   53 1
    37   21   26 ar
    38   21   22 ar
    39   22   23 ar
    40   22   54 1
    41   23   24 ar
    42   23   55 1
    43   24   25 ar
    44   24   27 1
    45   25   26 ar
    46   25   56 1
    47   26   57 1
    48   27   28 1
    49   27   29 1
    50   27   30 1
    51   31   36 ar
    52   31   32 ar
    53   32   33 ar
    54   32   58 1
    55   33   34 ar
    56   33   59 1
    57   34   35 ar
    58   34   37 1
    59   35   36 ar
    60   35   60 1
    61   36   61 1
    62   37   38 1
    63   37   39 1
    64   37   40 1
@<TRIPOS>MOLECULE
CHEMBL499312
   69    72     0     0     0
SMALL
USER_CHARGES

@<TRIPOS>ATOM
      1 C1          0.2498    1.1178    1.6612 C.ar      1 <0>        -0.0286
      2 C2          1.3914    1.8566    1.4174 C.ar      1 <0>        -0.1507
      3 C3          2.6222    1.2220    1.3334 C.ar      1 <0>         0.1654
      4 C4          2.7031   -0.1536    1.4945 C.ar      1 <0>        -0.2135
      5 C5          1.5587   -0.8879    1.7381 C.ar      1 <0>        -0.0281
      6 C6          0.3332   -0.2530    1.8213 C.ar      1 <0>        -0.2260
      7 C7         -0.9137   -1.0564    2.0876 C.3       1 <0>         0.5123
      8 F1         -1.4722   -1.4672    0.8725 F         1 <0>        -0.1777
      9 F2         -0.5893   -2.1801    2.8552 F         1 <0>        -0.1790
     10 F3         -1.8371   -0.2678    2.7824 F         1 <0>        -0.1772
     11 O1          3.7466    1.9465    1.0932 O.3       1 <0>        -0.2982
     12 C8          4.9788    1.2266    1.0197 C.3       1 <0>         0.0970
     13 C9          6.1071    2.1884    0.7492 C.ar      1 <0>        -0.0364
     14 C10         6.4628    2.4850   -0.5537 C.ar      1 <0>        -0.1381
     15 C11         7.4965    3.3661   -0.8079 C.ar      1 <0>        -0.0298
     16 C12         8.1803    3.9557    0.2464 C.ar      1 <0>        -0.1551
     17 C13         7.8209    3.6561    1.5592 C.ar      1 <0>         0.1739
     18 C14         6.7800    2.7762    1.8049 C.ar      1 <0>        -0.1937
     19 O2          8.4874    4.2302    2.5964 O.3       1 <0>        -0.2855
     20 C15         8.0644    3.8763    3.9147 C.3       1 <0>         0.1779
     21 C16         8.8918    4.5875    4.9029 C.1       1 <0>        -0.1901
     22 C17         9.5517    5.1546    5.6911 C.1       1 <0>        -0.1286
     23 C18        10.3790    5.8658    6.6792 C.3       1 <0>        -0.0125
     24 C19         9.9262    5.4869    8.0907 C.3       1 <0>         0.0822
     25 O3         10.7294    6.1773    9.0501 O.3       1 <0>        -0.5719
     26 S1          9.4992    5.0792   -0.0741 S.3       1 <0>         0.0027
     27 C20         8.7965    6.6634    0.2442 C.ar      1 <0>        -0.1479
     28 C21         7.4448    6.7710    0.5342 C.ar      1 <0>        -0.0761
     29 C22         6.8941    8.0125    0.7825 C.ar      1 <0>        -0.2065
     30 C23         7.6943    9.1416    0.7373 C.ar      1 <0>         0.1412
     31 C24         9.0528    9.0370    0.4447 C.ar      1 <0>        -0.0984
     32 C25         9.6057    7.7999    0.2081 C.ar      1 <0>        -0.0190
     33 C26        11.0694    7.6096   -0.0922 C.3       1 <0>        -0.0778
     34 C27        11.7074    8.9310   -0.5158 C.3       1 <0>        -0.1170
     35 C28        11.3549    9.9956    0.5297 C.3       1 <0>        -0.1179
     36 C29         9.8611   10.3075    0.4046 C.3       1 <0>        -0.0706
     37 O4          7.1494   10.3637    0.9803 O.3       1 <0>        -0.2758
     38 C30         5.7515   10.4041    1.2737 C.3       1 <0>        -0.0068
     39 C31         5.3294   11.8308    1.5131 C.2       1 <0>         0.5020
     40 O5          6.1497   12.7298    1.4392 O.co2     1 <0>        -0.6697
     41 O6          4.1676   12.0862    1.7806 O.co2     1 <0>        -0.6881
     42 H1         -0.7079    1.6119    1.7311 H         1 <0>         0.1440
     43 H2          1.3257    2.9273    1.2920 H         1 <0>         0.1461
     44 H3          3.6601   -0.6500    1.4292 H         1 <0>         0.1402
     45 H4          1.6212   -1.9587    1.8636 H         1 <0>         0.1384
     46 H5          5.1571    0.7140    1.9649 H         1 <0>         0.0777
     47 H6          4.9244    0.4946    0.2139 H         1 <0>         0.0810
     48 H7          5.9316    2.0265   -1.3747 H         1 <0>         0.1334
     49 H8          7.7725    3.5957   -1.8265 H         1 <0>         0.1446
     50 H9          6.4963    2.5459    2.8212 H         1 <0>         0.1356
     51 H10         7.0191    4.1552    4.0480 H         1 <0>         0.0884
     52 H11         8.1744    2.8010    4.0552 H         1 <0>         0.0879
     53 H12        11.4243    5.5869    6.5459 H         1 <0>         0.1017
     54 H13        10.2691    6.9411    6.5387 H         1 <0>         0.1001
     55 H14         8.8809    5.7657    8.2240 H         1 <0>         0.0504
     56 H15        10.0361    4.4116    8.2312 H         1 <0>         0.0506
     57 H16        10.4976    5.9844    9.9688 H         1 <0>         0.3841
     58 H17         6.8250    5.8870    0.5655 H         1 <0>         0.1139
     59 H18         5.8424    8.1027    1.0109 H         1 <0>         0.1283
     60 H19        11.5736    7.2366    0.7993 H         1 <0>         0.0795
     61 H20        11.1797    6.8829   -0.8971 H         1 <0>         0.0757
     62 H21        12.7898    8.8150   -0.5710 H         1 <0>         0.0649
     63 H22        11.3197    9.2303   -1.4896 H         1 <0>         0.0660
     64 H23        11.5767    9.6175    1.5278 H         1 <0>         0.0638
     65 H24        11.9335   10.9001    0.3422 H         1 <0>         0.0667
     66 H25         9.6678   10.8271   -0.5339 H         1 <0>         0.0763
     67 H26         9.5664   10.9474    1.2363 H         1 <0>         0.0830
     68 H27         5.1917    9.9959    0.4323 H         1 <0>         0.0581
     69 H28         5.5502    9.8111    2.1659 H         1 <0>         0.0571
@<TRIPOS>BOND
     1    1    6 ar
     2    1    2 ar
     3    1   42 1
     4    2    3 ar
     5    2   43 1
     6    3    4 ar
     7    3   11 1
     8    4    5 ar
     9    4   44 1
    10    5    6 ar
    11    5   45 1
    12    6    7 1
    13    7    8 1
    14    7    9 1
    15    7   10 1
    16   11   12 1
    17   12   13 1
    18   12   46 1
    19   12   47 1
    20   13   18 ar
    21   13   14 ar
    22   14   15 ar
    23   14   48 1
    24   15   16 ar
    25   15   49 1
    26   16   17 ar
    27   16   26 1
    28   17   18 ar
    29   17   19 1
    30   18   50 1
    31   19   20 1
    32   20   21 1
    33   20   51 1
    34   20   52 1
    35   21   22 3
    36   22   23 1
    37   23   24 1
    38   23   53 1
    39   23   54 1
    40   24   25 1
    41   24   55 1
    42   24   56 1
    43   25   57 1
    44   26   27 1
    45   27   32 ar
    46   27   28 ar
    47   28   29 ar
    48   28   58 1
    49   29   30 ar
    50   29   59 1
    51   30   31 ar
    52   30   37 1
    53   31   36 1
    54   31   32 ar
    55   32   33 1
    56   33   34 1
    57   33   60 1
    58   33   61 1
    59   34   35 1
    60   34   62 1
    61   34   63 1
    62   35   36 1
    63   35   64 1
    64   35   65 1
    65   36   66 1
    66   36   67 1
    67   37   38 1
    68   38   39 1
    69   38   68 1
    70   38   69 1
    71   39   40 2
    72   39   41 1
@<TRIPOS>MOLECULE
CHEMBL1080369
   58    62     0     0     0
SMALL
USER_CHARGES

@<TRIPOS>ATOM
      1 C1         -0.4935    2.0090   -0.7883 C.3       1 <0>        -0.1054
      2 C2         -0.3848    0.5147   -0.6263 C.ar      1 <0>        -0.0850
      3 C3         -0.3224   -0.2983   -1.7415 C.ar      1 <0>        -0.1079
      4 C4         -0.2220   -1.6734   -1.5924 C.ar      1 <0>         0.0751
      5 C5         -0.1842   -2.2325   -0.3235 C.ar      1 <0>        -0.1696
      6 C6         -0.2467   -1.4198    0.7914 C.ar      1 <0>        -0.1755
      7 C7         -0.3418   -0.0439    0.6423 C.ar      1 <0>         0.1107
      8 O1         -0.3976    0.7567    1.7400 O.3       1 <0>        -0.2774
      9 C8         -0.3484    0.1137    3.0152 C.3       1 <0>        -0.0070
     10 C9         -0.4215    1.1523    4.1047 C.2       1 <0>         0.5012
     11 O2         -0.5077    2.3337    3.8159 O.co2     1 <0>        -0.6703
     12 O3         -0.3944    0.8112    5.2749 O.co2     1 <0>        -0.6883
     13 O4         -0.1610   -2.4737   -2.6901 O.3       1 <0>        -0.3103
     14 C10        -0.0584   -3.8807   -2.4623 C.3       1 <0>         0.1511
     15 C11        -0.0027   -4.6009   -3.7849 C.2       1 <0>         0.0481
     16 N1          1.0539   -4.9156   -4.4875 N.2       1 <0>        -0.4809
     17 C12         0.9542   -5.5550   -5.6421 C.2       1 <0>         0.1228
     18 C13        -0.3393   -5.8671   -6.0544 C.2       1 <0>        -0.1582
     19 S1         -1.2854   -5.1939   -4.6978 S.3       1 <0>         0.1799
     20 C14        -0.7996   -6.5641   -7.2719 C.ar      1 <0>        -0.0203
     21 C15        -0.1990   -7.7634   -7.6617 C.ar      1 <0>        -0.0492
     22 C16        -0.6319   -8.4108   -8.7991 C.ar      1 <0>        -0.1178
     23 C17        -1.6634   -7.8723   -9.5570 C.ar      1 <0>         0.1153
     24 C18        -2.2630   -6.6800   -9.1734 C.ar      1 <0>        -0.1866
     25 C19        -1.8407   -6.0291   -8.0340 C.ar      1 <0>        -0.0560
     26 O5         -2.0870   -8.5138  -10.6776 O.3       1 <0>        -0.3089
     27 C20        -3.1520   -7.9049  -11.4103 C.3       1 <0>         0.6038
     28 F1         -2.7584   -6.6306  -11.8328 F         1 <0>        -0.1632
     29 F2         -3.4601   -8.6914  -12.5255 F         1 <0>        -0.1301
     30 F3         -4.2801   -7.7965  -10.5901 F         1 <0>        -0.1633
     31 C21         2.1445   -5.9160   -6.4465 C.ar      1 <0>        -0.0095
     32 C22         2.1331   -5.7389   -7.8299 C.ar      1 <0>        -0.0824
     33 C23         3.2427   -6.0752   -8.5778 C.ar      1 <0>        -0.0985
     34 C24         4.3716   -6.5902   -7.9584 C.ar      1 <0>         0.0411
     35 C25         4.3887   -6.7699   -6.5762 C.ar      1 <0>         0.0315
     36 C26         3.2810   -6.4284   -5.8215 C.ar      1 <0>        -0.0664
     37 O6          5.6015   -7.2848   -6.2185 O.3       1 <0>        -0.3062
     38 C27         6.1742   -7.8002   -7.4347 C.3       1 <0>         0.2128
     39 O7          5.5743   -6.9927   -8.4647 O.3       1 <0>        -0.3076
     40 H1          0.5053    2.4435   -0.8294 H         1 <0>         0.0695
     41 H2         -1.0270    2.2366   -1.7112 H         1 <0>         0.0613
     42 H3         -1.0373    2.4277    0.0585 H         1 <0>         0.0809
     43 H4         -0.3521    0.1370   -2.7295 H         1 <0>         0.1327
     44 H5         -0.1064   -3.3035   -0.2074 H         1 <0>         0.1250
     45 H6         -0.2180   -1.8552    1.7794 H         1 <0>         0.1324
     46 H7         -1.1909   -0.5715    3.1093 H         1 <0>         0.0579
     47 H8          0.5844   -0.4429    3.1057 H         1 <0>         0.0580
     48 H9          0.8482   -4.0918   -1.8952 H         1 <0>         0.0969
     49 H10        -0.9270   -4.2218   -1.8991 H         1 <0>         0.0902
     50 H11         0.6035   -8.1827   -7.0731 H         1 <0>         0.1416
     51 H12        -0.1679   -9.3379   -9.1015 H         1 <0>         0.1453
     52 H13        -3.0647   -6.2646   -9.7659 H         1 <0>         0.1398
     53 H14        -2.3108   -5.1043   -7.7338 H         1 <0>         0.1392
     54 H15         1.2557   -5.3382   -8.3158 H         1 <0>         0.1394
     55 H16         3.2319   -5.9373   -9.6489 H         1 <0>         0.1402
     56 H17         3.2948   -6.5623   -4.7499 H         1 <0>         0.1401
     57 H18         7.2569   -7.6745   -7.4315 H         1 <0>         0.1327
     58 H19         5.9099   -8.8493   -7.5680 H         1 <0>         0.0854
@<TRIPOS>BOND
     1    1    2 1
     2    1   40 1
     3    1   41 1
     4    1   42 1
     5    2    7 ar
     6    2    3 ar
     7    3    4 ar
     8    3   43 1
     9    4    5 ar
    10    4   13 1
    11    5    6 ar
    12    5   44 1
    13    6    7 ar
    14    6   45 1
    15    7    8 1
    16    8    9 1
    17    9   10 1
    18    9   46 1
    19    9   47 1
    20   10   11 2
    21   10   12 1
    22   13   14 1
    23   14   15 1
    24   14   48 1
    25   14   49 1
    26   15   19 1
    27   15   16 2
    28   16   17 1
    29   17   18 2
    30   17   31 1
    31   18   19 1
    32   18   20 1
    33   20   25 ar
    34   20   21 ar
    35   21   22 ar
    36   21   50 1
    37   22   23 ar
    38   22   51 1
    39   23   24 ar
    40   23   26 1
    41   24   25 ar
    42   24   52 1
    43   25   53 1
    44   26   27 1
    45   27   28 1
    46   27   29 1
    47   27   30 1
    48   31   36 ar
    49   31   32 ar
    50   32   33 ar
    51   32   54 1
    52   33   34 ar
    53   33   55 1
    54   34   39 1
    55   34   35 ar
    56   35   36 ar
    57   35   37 1
    58   36   56 1
    59   37   38 1
    60   38   39 1
    61   38   57 1
    62   38   58 1
@<TRIPOS>MOLECULE
CHEMBL1076162
   71    75     0     0     0
SMALL
USER_CHARGES

@<TRIPOS>ATOM
      1 C1         -2.5308    1.0618   -1.1424 C.3       1 <0>        -0.1052
      2 C2         -2.1653   -0.3849   -0.9315 C.ar      1 <0>        -0.0850
      3 C3         -1.9367   -1.2053   -2.0193 C.ar      1 <0>        -0.1085
      4 C4         -1.5999   -2.5365   -1.8253 C.ar      1 <0>         0.0758
      5 C5         -1.4926   -3.0443   -0.5389 C.ar      1 <0>        -0.1698
      6 C6         -1.7211   -2.2242    0.5486 C.ar      1 <0>        -0.1753
      7 C7         -2.0528   -0.8913    0.3546 C.ar      1 <0>         0.1101
      8 O1         -2.2723   -0.0825    1.4254 O.3       1 <0>        -0.2775
      9 C8         -2.1391   -0.6707    2.7209 C.3       1 <0>        -0.0070
     10 C9         -2.4172    0.3691    3.7757 C.2       1 <0>         0.5013
     11 O2         -2.7029    1.5082    3.4484 O.co2     1 <0>        -0.6704
     12 O3         -2.3564    0.0711    4.9564 O.co2     1 <0>        -0.6885
     13 O4         -1.3753   -3.3441   -2.8960 O.3       1 <0>        -0.3105
     14 C10        -1.0326   -4.7041   -2.6223 C.3       1 <0>         0.1527
     15 C11        -0.8224   -5.4402   -3.9204 C.2       1 <0>         0.0436
     16 N1          0.2886   -5.5840   -4.5949 N.2       1 <0>        -0.4822
     17 C12         0.3282   -6.2622   -5.7302 C.2       1 <0>         0.1251
     18 C13        -0.8821   -6.8077   -6.1549 C.2       1 <0>        -0.1620
     19 S1         -1.9609   -6.2746   -4.8356 S.3       1 <0>         0.1670
     20 C14        -1.1859   -7.6078   -7.3564 C.ar      1 <0>        -0.0004
     21 C15        -0.3729   -8.6922   -7.6988 C.ar      1 <0>        -0.0801
     22 C16        -0.6576   -9.4378   -8.8202 C.ar      1 <0>        -0.1072
     23 C17        -1.7569   -9.1118   -9.6150 C.ar      1 <0>        -0.0357
     24 C18        -2.5690   -8.0295   -9.2747 C.ar      1 <0>        -0.1076
     25 C19        -2.2904   -7.2859   -8.1505 C.ar      1 <0>        -0.0960
     26 C20        -2.0622   -9.9159  -10.8227 C.ar      1 <0>        -0.0469
     27 C21        -1.2561  -11.0012  -11.1628 C.ar      1 <0>        -0.1094
     28 C22        -1.5451  -11.7460  -12.2881 C.ar      1 <0>        -0.1180
     29 C23        -2.6322  -11.4175  -13.0779 C.ar      1 <0>        -0.1183
     30 C24        -3.4354  -10.3413  -12.7455 C.ar      1 <0>        -0.1178
     31 C25        -3.1598   -9.5930  -11.6192 C.ar      1 <0>        -0.1094
     32 C26         1.5808   -6.4308   -6.5023 C.ar      1 <0>        -0.0589
     33 C27         1.5693   -6.2985   -7.8910 C.ar      1 <0>        -0.0491
     34 C28         2.7374   -6.4562   -8.6066 C.ar      1 <0>        -0.2103
     35 C29         3.9240   -6.7462   -7.9467 C.ar      1 <0>         0.1419
     36 C30         3.9392   -6.8786   -6.5647 C.ar      1 <0>        -0.1552
     37 C31         2.7760   -6.7165   -5.8421 C.ar      1 <0>        -0.0440
     38 O5          5.0732   -6.9014   -8.6552 O.3       1 <0>        -0.3093
     39 C32         5.0117   -6.6350  -10.0578 C.3       1 <0>         0.0757
     40 C33         6.4016   -6.2445  -10.5643 C.3       1 <0>        -0.1496
     41 C34         4.5339   -7.8881  -10.7944 C.3       1 <0>        -0.1806
     42 H1         -1.6230    1.6640   -1.1805 H         1 <0>         0.0694
     43 H2         -3.0755    1.1659   -2.0807 H         1 <0>         0.0612
     44 H3         -3.1581    1.4019   -0.3184 H         1 <0>         0.0808
     45 H4         -2.0206   -0.8100   -3.0209 H         1 <0>         0.1324
     46 H5         -1.2306   -4.0811   -0.3877 H         1 <0>         0.1250
     47 H6         -1.6382   -2.6198    1.5501 H         1 <0>         0.1322
     48 H7         -2.8502   -1.4905    2.8225 H         1 <0>         0.0578
     49 H8         -1.1254   -1.0516    2.8445 H         1 <0>         0.0580
     50 H9         -0.1157   -4.7363   -2.0338 H         1 <0>         0.0957
     51 H10        -1.8400   -5.1768   -2.0631 H         1 <0>         0.0889
     52 H11         0.4783   -8.9446   -7.0839 H         1 <0>         0.1286
     53 H12        -0.0294  -10.2754   -9.0852 H         1 <0>         0.1298
     54 H13        -3.4192   -7.7778   -9.8913 H         1 <0>         0.1308
     55 H14        -2.9221   -6.4513   -7.8845 H         1 <0>         0.1290
     56 H15        -0.4069  -11.2584  -10.5471 H         1 <0>         0.1257
     57 H16        -0.9211  -12.5868  -12.5528 H         1 <0>         0.1241
     58 H17        -2.8546  -12.0032  -13.9576 H         1 <0>         0.1225
     59 H18        -4.2825  -10.0890  -13.3662 H         1 <0>         0.1245
     60 H19        -3.7904   -8.7560  -11.3580 H         1 <0>         0.1263
     61 H20         0.6466   -6.0733   -8.4050 H         1 <0>         0.1249
     62 H21         2.7292   -6.3543   -9.6818 H         1 <0>         0.1319
     63 H22         4.8640   -7.1042   -6.0547 H         1 <0>         0.1334
     64 H23         2.7895   -6.8149   -4.7667 H         1 <0>         0.1329
     65 H24         4.3148   -5.8174  -10.2421 H         1 <0>         0.0743
     66 H25         7.0984   -7.0622  -10.3800 H         1 <0>         0.0671
     67 H26         6.3546   -6.0413  -11.6341 H         1 <0>         0.0769
     68 H27         6.7419   -5.3518  -10.0395 H         1 <0>         0.0656
     69 H28         4.4870   -7.6849  -11.8643 H         1 <0>         0.0717
     70 H29         5.2308   -8.7057  -10.6101 H         1 <0>         0.0675
     71 H30         3.5437   -8.1663  -10.4336 H         1 <0>         0.0639
@<TRIPOS>BOND
     1    1    2 1
     2    1   42 1
     3    1   43 1
     4    1   44 1
     5    2    7 ar
     6    2    3 ar
     7    3    4 ar
     8    3   45 1
     9    4    5 ar
    10    4   13 1
    11    5    6 ar
    12    5   46 1
    13    6    7 ar
    14    6   47 1
    15    7    8 1
    16    8    9 1
    17    9   10 1
    18    9   48 1
    19    9   49 1
    20   10   11 2
    21   10   12 1
    22   13   14 1
    23   14   15 1
    24   14   50 1
    25   14   51 1
    26   15   19 1
    27   15   16 2
    28   16   17 1
    29   17   18 2
    30   17   32 1
    31   18   19 1
    32   18   20 1
    33   20   25 ar
    34   20   21 ar
    35   21   22 ar
    36   21   52 1
    37   22   23 ar
    38   22   53 1
    39   23   24 ar
    40   23   26 1
    41   24   25 ar
    42   24   54 1
    43   25   55 1
    44   26   31 ar
    45   26   27 ar
    46   27   28 ar
    47   27   56 1
    48   28   29 ar
    49   28   57 1
    50   29   30 ar
    51   29   58 1
    52   30   31 ar
    53   30   59 1
    54   31   60 1
    55   32   37 ar
    56   32   33 ar
    57   33   34 ar
    58   33   61 1
    59   34   35 ar
    60   34   62 1
    61   35   36 ar
    62   35   38 1
    63   36   37 ar
    64   36   63 1
    65   37   64 1
    66   38   39 1
    67   39   40 1
    68   39   41 1
    69   39   65 1
    70   40   66 1
    71   40   67 1
    72   40   68 1
    73   41   69 1
    74   41   70 1
    75   41   71 1
@<TRIPOS>MOLECULE
CHEMBL214295
   52    54     0     0     0
SMALL
USER_CHARGES

@<TRIPOS>ATOM
      1 C1         -0.0184    1.5028    0.0103 C.3       1 <0>        -0.0957
      2 C2          0.0021   -0.0041    0.0020 C.2       1 <0>         0.1235
      3 C3         -1.0924   -0.8180    0.0026 C.2       1 <0>        -0.3019
      4 C4         -0.5925   -2.2012   -0.0077 C.2       1 <0>         0.1894
      5 N1          0.7147   -2.1331   -0.0136 N.2       1 <0>        -0.2834
      6 O1          1.0949   -0.7716   -0.0130 O.3       1 <0>        -0.0814
      7 C5         -1.4126   -3.4367   -0.0109 C.ar      1 <0>        -0.0712
      8 C6         -2.8040   -3.3530   -0.0095 C.ar      1 <0>        -0.0675
      9 C7         -3.5621   -4.5058   -0.0124 C.ar      1 <0>        -0.1151
     10 C8         -2.9444   -5.7440   -0.0167 C.ar      1 <0>         0.0231
     11 C9         -1.5647   -5.8344   -0.0177 C.ar      1 <0>        -0.1120
     12 C10        -0.7948   -4.6871   -0.0211 C.ar      1 <0>         0.0061
     13 Cl1         0.9374   -4.8016   -0.0301 Cl        1 <0>        -0.0490
     14 C11        -3.7788   -6.9989   -0.0199 C.3       1 <0>        -0.1648
     15 C12        -4.0581   -7.4129   -1.4417 C.2       1 <0>         0.4977
     16 O2         -3.6202   -6.7503   -2.3668 O.co2     1 <0>        -0.6829
     17 O3         -4.7219   -8.4104   -1.6670 O.co2     1 <0>        -0.6957
     18 C13        -2.5027   -0.3936    0.0126 C.2       1 <0>         0.6025
     19 O4         -3.0906   -0.2123   -1.0366 O.2       1 <0>        -0.5161
     20 N2         -3.1418   -0.2063    1.1843 N.am      1 <0>        -0.7226
     21 C14        -4.5446    0.2158    1.1942 C.3       1 <0>         0.1226
     22 C15        -5.0253    0.3543    2.6401 C.3       1 <0>         0.0330
     23 O5         -4.3081    1.4109    3.2813 O.3       1 <0>        -0.2705
     24 C16        -4.6168    1.6669    4.5798 C.ar      1 <0>         0.2297
     25 C17        -5.5862    0.9126    5.2253 C.ar      1 <0>        -0.2119
     26 C18        -5.8978    1.1744    6.5452 C.ar      1 <0>         0.0192
     27 C19        -5.2447    2.1872    7.2233 C.ar      1 <0>        -0.2262
     28 C20        -4.2788    2.9405    6.5823 C.ar      1 <0>         0.0333
     29 C21        -3.9594    2.6788    5.2638 C.ar      1 <0>        -0.0895
     30 N3         -2.9209    3.4816    4.5799 N.pl3     1 <0>         0.0402
     31 O6         -2.3482    4.3634    5.1766 O.2       1 <0>        -0.1703
     32 O7         -2.6453    3.2554    3.4247 O.3       1 <0>        -0.1201
     33 C22        -5.5866    2.4707    8.6634 C.3       1 <0>         0.5191
     34 F1         -6.5839    1.5864    9.0886 F         1 <0>        -0.1713
     35 F2         -4.4457    2.3027    9.4554 F         1 <0>        -0.1703
     36 F3         -6.0478    3.7860    8.7830 F         1 <0>        -0.1710
     37 H1          1.0042    1.8801    0.0026 H         1 <0>         0.0910
     38 H2         -0.5455    1.8639   -0.8728 H         1 <0>         0.1004
     39 H3         -0.5286    1.8543    0.9071 H         1 <0>         0.1036
     40 H4         -3.2877   -2.3874   -0.0058 H         1 <0>         0.1273
     41 H5         -4.6402   -4.4417   -0.0109 H         1 <0>         0.1306
     42 H6         -1.0880   -6.8035   -0.0203 H         1 <0>         0.1359
     43 H7         -3.2384   -7.7958    0.4911 H         1 <0>         0.0767
     44 H8         -4.7206   -6.8103    0.4953 H         1 <0>         0.0771
     45 H9         -2.6729   -0.3509    2.0210 H         1 <0>         0.4059
     46 H10        -4.6388    1.1757    0.6864 H         1 <0>         0.0899
     47 H11        -5.1517   -0.5288    0.6792 H         1 <0>         0.1026
     48 H12        -6.0914    0.5815    2.6483 H         1 <0>         0.0956
     49 H13        -4.8489   -0.5801    3.1727 H         1 <0>         0.0864
     50 H14        -6.0968    0.1217    4.6961 H         1 <0>         0.1665
     51 H15        -6.6525    0.5878    7.0480 H         1 <0>         0.1623
     52 H16        -3.7703    3.7312    7.1140 H         1 <0>         0.1697
@<TRIPOS>BOND
     1    1    2 1
     2    1   37 1
     3    1   38 1
     4    1   39 1
     5    2    6 1
     6    2    3 2
     7    3    4 1
     8    3   18 1
     9    4    5 2
    10    4    7 1
    11    5    6 1
    12    7   12 ar
    13    7    8 ar
    14    8    9 ar
    15    8   40 1
    16    9   10 ar
    17    9   41 1
    18   10   11 ar
    19   10   14 1
    20   11   12 ar
    21   11   42 1
    22   12   13 1
    23   14   15 1
    24   14   43 1
    25   14   44 1
    26   15   16 2
    27   15   17 1
    28   18   19 2
    29   18   20 am
    30   20   21 1
    31   20   45 1
    32   21   22 1
    33   21   46 1
    34   21   47 1
    35   22   23 1
    36   22   48 1
    37   22   49 1
    38   23   24 1
    39   24   29 ar
    40   24   25 ar
    41   25   26 ar
    42   25   50 1
    43   26   27 ar
    44   26   51 1
    45   27   28 ar
    46   27   33 1
    47   28   29 ar
    48   28   52 1
    49   29   30 1
    50   30   31 2
    51   30   32 1
    52   33   34 1
    53   33   35 1
    54   33   36 1
@<TRIPOS>MOLECULE
CHEMBL219817
   58    61     0     0     0
SMALL
USER_CHARGES

@<TRIPOS>ATOM
      1 C1         -0.3361    0.5369    0.1519 C.3       1 <0>        -0.1702
      2 C2         -0.3425   -0.9651    0.0297 C.2       1 <0>         0.5101
      3 O1          0.1024   -1.6485    0.9276 O.2       1 <0>        -0.5217
      4 N1         -0.8424   -1.5491   -1.0773 N.am      1 <0>        -0.6645
      5 C3         -0.7598   -2.9390   -1.2345 C.ar      1 <0>         0.1367
      6 C4         -0.8517   -3.7695   -0.1282 C.ar      1 <0>        -0.0702
      7 C5         -0.7694   -5.1455   -0.2870 C.ar      1 <0>         0.0994
      8 C6         -0.5949   -5.6898   -1.5523 C.ar      1 <0>        -0.0880
      9 C7         -0.5032   -4.8634   -2.6557 C.ar      1 <0>        -0.1702
     10 C8         -0.5909   -3.4889   -2.5033 C.ar      1 <0>         0.1212
     11 O2         -0.5066   -2.6769   -3.5911 O.3       1 <0>        -0.3069
     12 C9         -0.3337   -3.3093   -4.8608 C.3       1 <0>         0.0623
     13 C10        -0.2605   -2.2432   -5.9558 C.3       1 <0>        -0.1186
     14 C11        -0.0754   -2.9202   -7.3153 C.3       1 <0>         0.0654
     15 O3         -0.0070   -1.9245   -8.3379 O.3       1 <0>        -0.3153
     16 C12         0.1574   -2.3612   -9.6143 C.ar      1 <0>         0.1131
     17 C13         0.2454   -3.7204   -9.8786 C.ar      1 <0>        -0.2080
     18 C14         0.4123   -4.1591  -11.1764 C.ar      1 <0>        -0.0705
     19 C15         0.4930   -3.2480  -12.2170 C.ar      1 <0>        -0.1068
     20 C16         0.4057   -1.8930  -11.9562 C.ar      1 <0>        -0.0608
     21 C17         0.2320   -1.4503  -10.6563 C.ar      1 <0>        -0.1397
     22 C18         0.5211   -1.1146  -13.2493 C.3       1 <0>        -0.0830
     23 C19         1.1235   -2.1073  -14.2660 C.3       1 <0>        -0.1020
     24 C20         0.6728   -3.4720  -13.7034 C.3       1 <0>        -0.0269
     25 H1         -0.2708   -3.7752  -14.1571 H         1 <0>         0.0892
     26 C21         1.7482   -4.5310  -13.9543 C.3       1 <0>        -0.1741
     27 C22         1.8114   -4.8436  -15.4272 C.2       1 <0>         0.4908
     28 O4          1.0005   -4.3479  -16.1909 O.co2     1 <0>        -0.6952
     29 O5          2.6735   -5.5920  -15.8551 O.co2     1 <0>        -0.7078
     30 N2         -0.8622   -5.9874    0.8319 N.pl3     1 <0>        -0.2356
     31 C23        -0.7922   -7.3464    0.8170 C.2       1 <0>        -0.0521
     32 C24        -0.9278   -7.7424    2.1046 C.2       1 <0>        -0.0440
     33 N3         -1.0715   -6.6292    2.8321 N.2       1 <0>        -0.2653
     34 N4         -1.0229   -5.6082    2.0516 N.2       1 <0>        -0.0740
     35 H2          0.5953    0.9306   -0.2553 H         1 <0>         0.1002
     36 H3         -1.1785    0.9502   -0.4028 H         1 <0>         0.0846
     37 H4         -0.4203    0.8164    1.2020 H         1 <0>         0.0992
     38 H5         -1.2595   -1.0071   -1.7653 H         1 <0>         0.4194
     39 H6         -0.9867   -3.3460    0.8561 H         1 <0>         0.1692
     40 H7         -0.5304   -6.7609   -1.6741 H         1 <0>         0.1414
     41 H8         -0.3675   -5.2895   -3.6388 H         1 <0>         0.1495
     42 H9          0.5896   -3.8887   -4.8555 H         1 <0>         0.0717
     43 H10        -1.1773   -3.9718   -5.0546 H         1 <0>         0.0718
     44 H11        -1.1837   -1.6638   -5.9611 H         1 <0>         0.0871
     45 H12         0.5831   -1.5807   -5.7620 H         1 <0>         0.0871
     46 H13         0.8479   -3.4996   -7.3099 H         1 <0>         0.0648
     47 H14        -0.9189   -3.5827   -7.5091 H         1 <0>         0.0646
     48 H15         0.1837   -4.4339   -9.0701 H         1 <0>         0.1231
     49 H16         0.4807   -5.2172  -11.3817 H         1 <0>         0.1227
     50 H17         0.1589   -0.3922  -10.4529 H         1 <0>         0.1240
     51 H18        -0.4632   -0.7841  -13.5810 H         1 <0>         0.0796
     52 H19         1.1838   -0.2591  -13.1179 H         1 <0>         0.0710
     53 H20         0.7092   -1.9424  -15.2607 H         1 <0>         0.0857
     54 H21         2.2109   -2.0345  -14.2811 H         1 <0>         0.0645
     55 H22         2.7149   -4.1532  -13.6213 H         1 <0>         0.0567
     56 H23         1.5020   -5.4372  -13.4009 H         1 <0>         0.0557
     57 H24        -0.6565   -7.9804   -0.0467 H         1 <0>         0.1942
     58 H25        -0.9215   -8.7579    2.4721 H         1 <0>         0.1955
@<TRIPOS>BOND
     1    1    2 1
     2    1   35 1
     3    1   36 1
     4    1   37 1
     5    2    3 2
     6    2    4 am
     7    4    5 1
     8    4   38 1
     9    5   10 ar
    10    5    6 ar
    11    6    7 ar
    12    6   39 1
    13    7    8 ar
    14    7   30 1
    15    8    9 ar
    16    8   40 1
    17    9   10 ar
    18    9   41 1
    19   10   11 1
    20   11   12 1
    21   12   13 1
    22   12   42 1
    23   12   43 1
    24   13   14 1
    25   13   44 1
    26   13   45 1
    27   14   15 1
    28   14   46 1
    29   14   47 1
    30   15   16 1
    31   16   21 ar
    32   16   17 ar
    33   17   18 ar
    34   17   48 1
    35   18   19 ar
    36   18   49 1
    37   19   24 1
    38   19   20 ar
    39   20   21 ar
    40   20   22 1
    41   21   50 1
    42   22   23 1
    43   22   51 1
    44   22   52 1
    45   23   24 1
    46   23   53 1
    47   23   54 1
    48   24   25 1
    49   24   26 1
    50   26   27 1
    51   26   55 1
    52   26   56 1
    53   27   28 2
    54   27   29 1
    55   30   34 1
    56   30   31 1
    57   31   32 2
    58   31   57 1
    59   32   33 1
    60   32   58 1
    61   33   34 2
@<TRIPOS>MOLECULE
CHEMBL485155
   51    51     0     0     0
SMALL
USER_CHARGES

@<TRIPOS>ATOM
      1 C1         -0.0187    1.5258    0.0104 C.3       1 <0>        -0.1536
      2 C2          0.0021   -0.0041    0.0020 C.3       1 <0>        -0.1263
      3 C3         -1.4333   -0.5336    0.0129 C.3       1 <0>        -0.1207
      4 C4         -1.4126   -2.0635    0.0045 C.3       1 <0>        -0.1209
      5 C5         -2.8479   -2.5931    0.0153 C.3       1 <0>        -0.1182
      6 C6         -2.8272   -4.1229    0.0069 C.3       1 <0>        -0.1278
      7 C7         -4.2626   -4.6525    0.0178 C.3       1 <0>        -0.1009
      8 C8         -4.2418   -6.1823    0.0094 C.3       1 <0>        -0.1434
      9 H1         -3.6488   -6.5513   -0.8275 H         1 <0>         0.1303
     10 C9         -5.6753   -6.7421   -0.0555 C.3       1 <0>         0.1221
     11 H2         -6.3997   -5.9282   -0.0856 H         1 <0>         0.0968
     12 C10        -5.8340   -7.5407    1.2162 C.2       1 <0>        -0.0788
     13 C11        -4.7166   -7.4866    1.9304 C.2       1 <0>        -0.1820
     14 C12        -3.7004   -6.7135    1.3191 C.2       1 <0>         0.4005
     15 O1         -2.5903   -6.5106    1.7654 O.2       1 <0>        -0.4239
     16 I1         -7.5649   -8.5819    1.7721 I         1 <0>         0.0035
     17 O2         -5.8288   -7.5861   -1.1983 O.3       1 <0>        -0.3588
     18 C13        -7.1537   -7.6045   -1.7336 C.3       1 <0>         0.0505
     19 C14        -7.2007   -8.5354   -2.9469 C.3       1 <0>        -0.1154
     20 C15        -8.6191   -8.5551   -3.5200 C.3       1 <0>        -0.1169
     21 C16        -8.6661   -9.4861   -4.7333 C.3       1 <0>        -0.0918
     22 C17       -10.0846   -9.5057   -5.3064 C.3       1 <0>        -0.1837
     23 C18       -10.1309  -10.4227   -6.5014 C.2       1 <0>         0.4873
     24 O3         -9.1228  -11.0064   -6.8613 O.co2     1 <0>        -0.6992
     25 O4        -11.1764  -10.5809   -7.1083 O.co2     1 <0>        -0.7094
     26 H3          1.0039    1.9031    0.0027 H         1 <0>         0.0524
     27 H4         -0.5459    1.8868   -0.8726 H         1 <0>         0.0533
     28 H5         -0.5289    1.8773    0.9072 H         1 <0>         0.0527
     29 H6          0.5123   -0.3556   -0.8948 H         1 <0>         0.0607
     30 H7          0.5293   -0.3651    0.8851 H         1 <0>         0.0601
     31 H8         -1.9435   -0.1821    0.9097 H         1 <0>         0.0598
     32 H9         -1.9605   -0.1726   -0.8702 H         1 <0>         0.0608
     33 H10        -0.9024   -2.4150   -0.8923 H         1 <0>         0.0618
     34 H11        -0.8854   -2.4246    0.8875 H         1 <0>         0.0615
     35 H12        -3.3581   -2.2415    0.9121 H         1 <0>         0.0598
     36 H13        -3.3751   -2.2320   -0.8677 H         1 <0>         0.0617
     37 H14        -2.3170   -4.4744   -0.8899 H         1 <0>         0.0662
     38 H15        -2.3000   -4.4840    0.8900 H         1 <0>         0.0770
     39 H16        -4.7728   -4.3010    0.9146 H         1 <0>         0.0672
     40 H17        -4.7898   -4.2914   -0.8653 H         1 <0>         0.0798
     41 H18        -4.5940   -7.9833    2.8815 H         1 <0>         0.1499
     42 H19        -7.8477   -7.9630   -0.9735 H         1 <0>         0.0562
     43 H20        -7.4367   -6.5968   -2.0377 H         1 <0>         0.0536
     44 H21        -6.5066   -8.1769   -3.7070 H         1 <0>         0.0713
     45 H22        -6.9177   -9.5432   -2.6428 H         1 <0>         0.0713
     46 H23        -9.3132   -8.9136   -2.7598 H         1 <0>         0.0578
     47 H24        -8.9021   -7.5474   -3.8241 H         1 <0>         0.0573
     48 H25        -7.9721   -9.1275   -5.4934 H         1 <0>         0.0595
     49 H26        -8.3831  -10.4938   -4.4292 H         1 <0>         0.0597
     50 H27       -10.7787   -9.8642   -4.5462 H         1 <0>         0.0547
     51 H28       -10.3676   -8.4980   -5.6105 H         1 <0>         0.0546
@<TRIPOS>BOND
     1    1    2 1
     2    1   26 1
     3    1   27 1
     4    1   28 1
     5    2    3 1
     6    2   29 1
     7    2   30 1
     8    3    4 1
     9    3   31 1
    10    3   32 1
    11    4    5 1
    12    4   33 1
    13    4   34 1
    14    5    6 1
    15    5   35 1
    16    5   36 1
    17    6    7 1
    18    6   37 1
    19    6   38 1
    20    7    8 1
    21    7   39 1
    22    7   40 1
    23    8    9 1
    24    8   14 1
    25    8   10 1
    26   10   11 1
    27   10   12 1
    28   10   17 1
    29   12   13 2
    30   12   16 1
    31   13   14 1
    32   13   41 1
    33   14   15 2
    34   17   18 1
    35   18   19 1
    36   18   42 1
    37   18   43 1
    38   19   20 1
    39   19   44 1
    40   19   45 1
    41   20   21 1
    42   20   46 1
    43   20   47 1
    44   21   22 1
    45   21   48 1
    46   21   49 1
    47   22   23 1
    48   22   50 1
    49   22   51 1
    50   23   24 2
    51   23   25 1
@<TRIPOS>MOLECULE
CHEMBL427299
   59    62     0     0     0
SMALL
USER_CHARGES

@<TRIPOS>ATOM
      1 C1         -0.0187    1.5258    0.0104 C.3       1 <0>        -0.1513
      2 C2          0.0021   -0.0041    0.0020 C.3       1 <0>        -0.1158
      3 C3         -1.4333   -0.5336    0.0129 C.3       1 <0>        -0.0677
      4 C4         -1.4129   -2.0405    0.0046 C.ar      1 <0>        -0.1252
      5 C5         -1.4091   -2.7284   -1.1962 C.ar      1 <0>         0.1935
      6 C6         -1.3902   -4.1207   -1.2118 C.ar      1 <0>        -0.2266
      7 C7         -1.3752   -4.8252   -0.0419 C.ar      1 <0>        -0.0040
      8 C8         -1.3783   -4.1476    1.1779 C.ar      1 <0>        -0.2233
      9 C9         -1.3920   -2.7435    1.2015 C.ar      1 <0>         0.1287
     10 O1         -1.3848   -2.3644    2.4958 O.3       1 <0>        -0.0819
     11 N1         -1.3608   -3.5099    3.3232 N.2       1 <0>        -0.2849
     12 C10        -1.3652   -4.5862    2.5826 C.2       1 <0>         0.1807
     13 C11        -1.3448   -5.9876    3.0666 C.ar      1 <0>        -0.0393
     14 C12        -2.0229   -6.9811    2.3621 C.ar      1 <0>        -0.0865
     15 C13        -2.0005   -8.2836    2.8174 C.ar      1 <0>        -0.1198
     16 C14        -1.3069   -8.6042    3.9706 C.ar      1 <0>        -0.1000
     17 C15        -0.6322   -7.6225    4.6738 C.ar      1 <0>        -0.1196
     18 C16        -0.6428   -6.3176    4.2248 C.ar      1 <0>        -0.0812
     19 O2         -1.4243   -2.0408   -2.3676 O.3       1 <0>        -0.2897
     20 C17        -1.4194   -2.8103   -3.5717 C.3       1 <0>         0.0595
     21 C18        -1.4384   -1.8697   -4.7782 C.3       1 <0>         0.0613
     22 O3         -0.2279   -1.1108   -4.8096 O.3       1 <0>        -0.3112
     23 C19        -0.0839   -0.2209   -5.8265 C.ar      1 <0>         0.1080
     24 C20        -1.0894   -0.0768   -6.7714 C.ar      1 <0>        -0.2054
     25 C21        -0.9407    0.8288   -7.8040 C.ar      1 <0>        -0.0824
     26 C22         0.2092    1.5910   -7.8964 C.ar      1 <0>        -0.0960
     27 C23         1.2130    1.4490   -6.9562 C.ar      1 <0>        -0.0818
     28 C24         1.0665    0.5491   -5.9183 C.ar      1 <0>        -0.1455
     29 C25         0.3689    2.5779   -9.0241 C.3       1 <0>        -0.0573
     30 C26        -0.1908    3.9360   -8.5964 C.3       1 <0>        -0.1753
     31 C27        -0.0310    4.9229   -9.7240 C.2       1 <0>         0.4889
     32 O4          0.4829    4.5724  -10.7726 O.co2     1 <0>        -0.6990
     33 O5         -0.4157    6.0718   -9.5878 O.co2     1 <0>        -0.7062
     34 H1          1.0039    1.9031    0.0027 H         1 <0>         0.0550
     35 H2         -0.5459    1.8868   -0.8726 H         1 <0>         0.0574
     36 H3         -0.5289    1.8773    0.9072 H         1 <0>         0.0526
     37 H4          0.5123   -0.3556   -0.8948 H         1 <0>         0.0663
     38 H5          0.5293   -0.3651    0.8851 H         1 <0>         0.0574
     39 H6         -1.9435   -0.1821    0.9097 H         1 <0>         0.0725
     40 H7         -1.9605   -0.1726   -0.8702 H         1 <0>         0.0829
     41 H8         -1.3878   -4.6467   -2.1550 H         1 <0>         0.1422
     42 H9         -1.3613   -5.9050   -0.0608 H         1 <0>         0.1371
     43 H10        -2.5650   -6.7318    1.4619 H         1 <0>         0.1301
     44 H11        -2.5257   -9.0541    2.2726 H         1 <0>         0.1317
     45 H12        -1.2924   -9.6249    4.3233 H         1 <0>         0.1287
     46 H13        -0.0926   -7.8785    5.5737 H         1 <0>         0.1311
     47 H14        -0.1118   -5.5528    4.7720 H         1 <0>         0.1304
     48 H15        -0.5209   -3.4265   -3.6054 H         1 <0>         0.0794
     49 H16        -2.3007   -3.4513   -3.5968 H         1 <0>         0.0880
     50 H17        -1.5242   -2.4548   -5.6938 H         1 <0>         0.0859
     51 H18        -2.2893   -1.1932   -4.6982 H         1 <0>         0.0749
     52 H19        -1.9875   -0.6724   -6.7001 H         1 <0>         0.1217
     53 H20        -1.7232    0.9414   -8.5398 H         1 <0>         0.1239
     54 H21         2.1104    2.0452   -7.0308 H         1 <0>         0.1288
     55 H22         1.8489    0.4417   -5.1816 H         1 <0>         0.1258
     56 H23         1.4259    2.6814   -9.2693 H         1 <0>         0.0702
     57 H24        -0.1738    2.2205   -9.8992 H         1 <0>         0.0693
     58 H25        -1.2478    3.8325   -8.3511 H         1 <0>         0.0561
     59 H26         0.3519    4.2934   -7.7212 H         1 <0>         0.0570
@<TRIPOS>BOND
     1    1    2 1
     2    1   34 1
     3    1   35 1
     4    1   36 1
     5    2    3 1
     6    2   37 1
     7    2   38 1
     8    3    4 1
     9    3   39 1
    10    3   40 1
    11    4    9 ar
    12    4    5 ar
    13    5    6 ar
    14    5   19 1
    15    6    7 ar
    16    6   41 1
    17    7    8 ar
    18    7   42 1
    19    8   12 1
    20    8    9 ar
    21    9   10 1
    22   10   11 1
    23   11   12 2
    24   12   13 1
    25   13   18 ar
    26   13   14 ar
    27   14   15 ar
    28   14   43 1
    29   15   16 ar
    30   15   44 1
    31   16   17 ar
    32   16   45 1
    33   17   18 ar
    34   17   46 1
    35   18   47 1
    36   19   20 1
    37   20   21 1
    38   20   48 1
    39   20   49 1
    40   21   22 1
    41   21   50 1
    42   21   51 1
    43   22   23 1
    44   23   28 ar
    45   23   24 ar
    46   24   25 ar
    47   24   52 1
    48   25   26 ar
    49   25   53 1
    50   26   27 ar
    51   26   29 1
    52   27   28 ar
    53   27   54 1
    54   28   55 1
    55   29   30 1
    56   29   56 1
    57   29   57 1
    58   30   31 1
    59   30   58 1
    60   30   59 1
    61   31   32 2
    62   31   33 1
@<TRIPOS>MOLECULE
CHEMBL234908
   59    62     0     0     0
SMALL
USER_CHARGES

@<TRIPOS>ATOM
      1 C1         -0.2333    1.6696   -0.2556 C.3       1 <0>        -0.1051
      2 C2         -0.0844    0.1708   -0.2059 C.ar      1 <0>        -0.0852
      3 C3         -0.1169   -0.5657   -1.3743 C.ar      1 <0>        -0.1121
      4 C4          0.0206   -1.9449   -1.3286 C.ar      1 <0>         0.0763
      5 C5          0.1906   -2.5850   -0.1098 C.ar      1 <0>        -0.1715
      6 C6          0.2231   -1.8487    1.0583 C.ar      1 <0>        -0.1760
      7 C7          0.0909   -0.4686    1.0121 C.ar      1 <0>         0.1078
      8 O1          0.1284    0.2569    2.1616 O.3       1 <0>        -0.2779
      9 C8          0.3119   -0.4671    3.3799 C.3       1 <0>        -0.0065
     10 C9          0.3275    0.4959    4.5390 C.2       1 <0>         0.5013
     11 O2          0.1939    1.6914    4.3402 O.co2     1 <0>        -0.6703
     12 O3          0.4737    0.0796    5.6756 O.co2     1 <0>        -0.6886
     13 O4         -0.0118   -2.6699   -2.4786 O.3       1 <0>        -0.3113
     14 C10         0.1360   -4.0860   -2.3572 C.3       1 <0>         0.0788
     15 C11         0.0751   -4.7166   -3.7246 C.2       1 <0>        -0.1296
     16 C12         0.9292   -5.6542   -4.0521 C.2       1 <0>        -0.1389
     17 C13         1.8673   -6.2148   -3.0144 C.3       1 <0>         0.0956
     18 C14         3.2505   -5.8381   -3.3488 C.1       1 <0>        -0.1501
     19 C15         4.3536   -5.5376   -3.6154 C.1       1 <0>        -0.1223
     20 C16         5.6992   -5.1712   -3.9406 C.ar      1 <0>         0.0145
     21 C17         5.9611   -4.4017   -5.0747 C.ar      1 <0>        -0.0934
     22 C18         7.2598   -4.0515   -5.3823 C.ar      1 <0>        -0.1182
     23 C19         8.3010   -4.4617   -4.5690 C.ar      1 <0>        -0.1111
     24 C20         8.0480   -5.2248   -3.4431 C.ar      1 <0>        -0.1203
     25 C21         6.7534   -5.5772   -3.1215 C.ar      1 <0>        -0.0961
     26 C22         1.7481   -7.7169   -2.9886 C.ar      1 <0>        -0.1273
     27 C23         1.3569   -8.3521   -1.8442 C.ar      1 <0>        -0.0462
     28 C24         1.2582   -9.7558   -1.8644 C.ar      1 <0>        -0.0997
     29 C25         0.8620  -10.4777   -0.7269 C.ar      1 <0>        -0.0937
     30 C26         0.7784  -11.8351   -0.7869 C.ar      1 <0>        -0.1167
     31 C27         1.0813  -12.5190   -1.9628 C.ar      1 <0>        -0.0997
     32 C28         1.4688  -11.8514   -3.0835 C.ar      1 <0>        -0.0945
     33 C29         1.5662  -10.4490   -3.0615 C.ar      1 <0>         0.1253
     34 N1          1.9428   -9.7665   -4.1471 N.ar      1 <0>        -0.4710
     35 C30         2.0311   -8.4584   -4.1332 C.ar      1 <0>         0.1494
     36 H1          0.7493    2.1289   -0.3627 H         1 <0>         0.0690
     37 H2         -0.8576    1.9447   -1.1057 H         1 <0>         0.0612
     38 H3         -0.6993    2.0192    0.6656 H         1 <0>         0.0804
     39 H4         -0.2497   -0.0674   -2.3232 H         1 <0>         0.1323
     40 H5          0.2973   -3.6591   -0.0742 H         1 <0>         0.1220
     41 H6          0.3548   -2.3471    2.0073 H         1 <0>         0.1306
     42 H7         -0.5059   -1.1763    3.5078 H         1 <0>         0.0572
     43 H8          1.2583   -1.0066    3.3430 H         1 <0>         0.0572
     44 H9          1.0967   -4.3127   -1.8950 H         1 <0>         0.0694
     45 H10        -0.6680   -4.4834   -1.7377 H         1 <0>         0.0717
     46 H11        -0.6728   -4.3954   -4.4345 H         1 <0>         0.1306
     47 H12         0.9612   -6.0255   -5.0658 H         1 <0>         0.1286
     48 H13         1.6079   -5.8128   -2.0351 H         1 <0>         0.1129
     49 H14         5.1492   -4.0811   -5.7106 H         1 <0>         0.1283
     50 H15         7.4639   -3.4563   -6.2600 H         1 <0>         0.1287
     51 H16         9.3158   -4.1853   -4.8142 H         1 <0>         0.1254
     52 H17         8.8653   -5.5418   -2.8122 H         1 <0>         0.1270
     53 H18         6.5567   -6.1691   -2.2399 H         1 <0>         0.1247
     54 H19         1.1299   -7.7926   -0.9487 H         1 <0>         0.1425
     55 H20         0.6253   -9.9590    0.1904 H         1 <0>         0.1324
     56 H21         0.4736  -12.3895    0.0884 H         1 <0>         0.1289
     57 H22         1.0077  -13.5962   -1.9849 H         1 <0>         0.1303
     58 H23         1.7007  -12.3968   -3.9864 H         1 <0>         0.1354
     59 H24         2.3353   -7.9425   -5.0319 H         1 <0>         0.1575
@<TRIPOS>BOND
     1    1    2 1
     2    1   36 1
     3    1   37 1
     4    1   38 1
     5    2    7 ar
     6    2    3 ar
     7    3    4 ar
     8    3   39 1
     9    4    5 ar
    10    4   13 1
    11    5    6 ar
    12    5   40 1
    13    6    7 ar
    14    6   41 1
    15    7    8 1
    16    8    9 1
    17    9   10 1
    18    9   42 1
    19    9   43 1
    20   10   11 2
    21   10   12 1
    22   13   14 1
    23   14   15 1
    24   14   44 1
    25   14   45 1
    26   15   16 2
    27   15   46 1
    28   16   17 1
    29   16   47 1
    30   17   18 1
    31   17   26 1
    32   17   48 1
    33   18   19 3
    34   19   20 1
    35   20   25 ar
    36   20   21 ar
    37   21   22 ar
    38   21   49 1
    39   22   23 ar
    40   22   50 1
    41   23   24 ar
    42   23   51 1
    43   24   25 ar
    44   24   52 1
    45   25   53 1
    46   26   35 ar
    47   26   27 ar
    48   27   28 ar
    49   27   54 1
    50   28   33 ar
    51   28   29 ar
    52   29   30 ar
    53   29   55 1
    54   30   31 ar
    55   30   56 1
    56   31   32 ar
    57   31   57 1
    58   32   33 ar
    59   32   58 1
    60   33   34 ar
    61   34   35 ar
    62   35   59 1
@<TRIPOS>MOLECULE
CHEMBL234908__1
   59    62     0     0     0
SMALL
USER_CHARGES

@<TRIPOS>ATOM
      1 C1         -4.2486   -2.7413    1.7879 C.3       1 <0>        -0.1053
      2 C2         -2.8647   -2.8825    1.2083 C.ar      1 <0>        -0.0850
      3 C3         -2.6972   -3.3999   -0.0617 C.ar      1 <0>        -0.1121
      4 C4         -1.4238   -3.5294   -0.5952 C.ar      1 <0>         0.0758
      5 C5         -0.3181   -3.1394    0.1462 C.ar      1 <0>        -0.1722
      6 C6         -0.4856   -2.6220    1.4157 C.ar      1 <0>        -0.1760
      7 C7         -1.7598   -2.4876    1.9474 C.ar      1 <0>         0.1077
      8 O1         -1.9250   -1.9731    3.1952 O.3       1 <0>        -0.2779
      9 C8         -0.7431   -1.5872    3.8996 C.3       1 <0>        -0.0065
     10 C9         -1.1202   -1.0436    5.2537 C.2       1 <0>         0.5013
     11 O2         -2.2924   -0.9915    5.5848 O.co2     1 <0>        -0.6702
     12 O3         -0.2530   -0.6559    6.0180 O.co2     1 <0>        -0.6887
     13 O4         -1.2589   -4.0392   -1.8451 O.3       1 <0>        -0.3124
     14 C10         0.0808   -4.1441   -2.3314 C.3       1 <0>         0.0769
     15 C11         0.0664   -4.7256   -3.7216 C.2       1 <0>        -0.1294
     16 C12         0.9292   -5.6542   -4.0521 C.2       1 <0>        -0.1384
     17 C13         1.8673   -6.2148   -3.0144 C.3       1 <0>         0.0914
     18 C14         1.7509   -7.6820   -2.9892 C.1       1 <0>        -0.1445
     19 C15         1.6580   -8.8521   -2.9691 C.1       1 <0>        -0.1264
     20 C16         1.5446  -10.2794   -2.9445 C.ar      1 <0>         0.0163
     21 C17         0.6629  -10.9273   -3.8105 C.ar      1 <0>        -0.0956
     22 C18         0.5588  -12.3028   -3.7822 C.ar      1 <0>        -0.1186
     23 C19         1.3262  -13.0395   -2.8977 C.ar      1 <0>        -0.1119
     24 C20         2.2023  -12.4032   -2.0365 C.ar      1 <0>        -0.1197
     25 C21         2.3197  -11.0287   -2.0585 C.ar      1 <0>        -0.0957
     26 C22         3.2834   -5.8291   -3.3567 C.ar      1 <0>        -0.1291
     27 C23         4.0220   -5.0893   -2.4773 C.ar      1 <0>        -0.0472
     28 C24         5.3401   -4.7518   -2.8369 C.ar      1 <0>        -0.0992
     29 C25         6.1597   -3.9944   -1.9845 C.ar      1 <0>        -0.0935
     30 C26         7.4295   -3.6889   -2.3685 C.ar      1 <0>        -0.1162
     31 C27         7.9276   -4.1175   -3.5975 C.ar      1 <0>        -0.0990
     32 C28         7.1611   -4.8526   -4.4482 C.ar      1 <0>        -0.0952
     33 C29         5.8446   -5.1892   -4.0869 C.ar      1 <0>         0.1256
     34 N1          5.0690   -5.9112   -4.9013 N.ar      1 <0>        -0.4709
     35 C30         3.8422   -6.2315   -4.5674 C.ar      1 <0>         0.1497
     36 H1         -4.6529   -1.7628    1.5288 H         1 <0>         0.0692
     37 H2         -4.8939   -3.5202    1.3817 H         1 <0>         0.0612
     38 H3         -4.1999   -2.8388    2.8725 H         1 <0>         0.0804
     39 H4         -3.5580   -3.7040   -0.6388 H         1 <0>         0.1324
     40 H5          0.6736   -3.2405   -0.2692 H         1 <0>         0.1219
     41 H6          0.3753   -2.3190    1.9933 H         1 <0>         0.1306
     42 H7         -0.0947   -2.4545    4.0240 H         1 <0>         0.0571
     43 H8         -0.2172   -0.8186    3.3332 H         1 <0>         0.0573
     44 H9          0.5368   -3.1544   -2.3562 H         1 <0>         0.0751
     45 H10         0.6569   -4.7932   -1.6720 H         1 <0>         0.0699
     46 H11        -0.6553   -4.3767   -4.4454 H         1 <0>         0.1312
     47 H12         0.9683   -6.0180   -5.0682 H         1 <0>         0.1282
     48 H13         1.6079   -5.8128   -2.0351 H         1 <0>         0.1167
     49 H14         0.0630  -10.3532   -4.5012 H         1 <0>         0.1266
     50 H15        -0.1235  -12.8054   -4.4517 H         1 <0>         0.1280
     51 H16         1.2407  -14.1159   -2.8792 H         1 <0>         0.1253
     52 H17         2.7986  -12.9840   -1.3484 H         1 <0>         0.1276
     53 H18         3.0072  -10.5335   -1.3889 H         1 <0>         0.1266
     54 H19         3.6059   -4.7720   -1.5326 H         1 <0>         0.1420
     55 H20         5.7847   -3.6560   -1.0299 H         1 <0>         0.1330
     56 H21         8.0591   -3.1063   -1.7123 H         1 <0>         0.1295
     57 H22         8.9383   -3.8618   -3.8795 H         1 <0>         0.1304
     58 H23         7.5623   -5.1761   -5.3972 H         1 <0>         0.1352
     59 H24         3.2478   -6.8195   -5.2511 H         1 <0>         0.1568
@<TRIPOS>BOND
     1    1    2 1
     2    1   36 1
     3    1   37 1
     4    1   38 1
     5    2    7 ar
     6    2    3 ar
     7    3    4 ar
     8    3   39 1
     9    4    5 ar
    10    4   13 1
    11    5    6 ar
    12    5   40 1
    13    6    7 ar
    14    6   41 1
    15    7    8 1
    16    8    9 1
    17    9   10 1
    18    9   42 1
    19    9   43 1
    20   10   11 2
    21   10   12 1
    22   13   14 1
    23   14   15 1
    24   14   44 1
    25   14   45 1
    26   15   16 2
    27   15   46 1
    28   16   17 1
    29   16   47 1
    30   17   18 1
    31   17   26 1
    32   17   48 1
    33   18   19 3
    34   19   20 1
    35   20   25 ar
    36   20   21 ar
    37   21   22 ar
    38   21   49 1
    39   22   23 ar
    40   22   50 1
    41   23   24 ar
    42   23   51 1
    43   24   25 ar
    44   24   52 1
    45   25   53 1
    46   26   35 ar
    47   26   27 ar
    48   27   28 ar
    49   27   54 1
    50   28   33 ar
    51   28   29 ar
    52   29   30 ar
    53   29   55 1
    54   30   31 ar
    55   30   56 1
    56   31   32 ar
    57   31   57 1
    58   32   33 ar
    59   32   58 1
    60   33   34 ar
    61   34   35 ar
    62   35   59 1
@<TRIPOS>MOLECULE
CHEMBL437364
   60    63     0     0     0
SMALL
USER_CHARGES

@<TRIPOS>ATOM
      1 C1         -0.2333    1.6696   -0.2556 C.3       1 <0>        -0.1051
      2 C2         -0.0844    0.1708   -0.2059 C.ar      1 <0>        -0.0854
      3 C3         -0.1169   -0.5657   -1.3743 C.ar      1 <0>        -0.1124
      4 C4          0.0206   -1.9449   -1.3286 C.ar      1 <0>         0.0765
      5 C5          0.1907   -2.5850   -0.1098 C.ar      1 <0>        -0.1714
      6 C6          0.2231   -1.8487    1.0583 C.ar      1 <0>        -0.1758
      7 C7          0.0909   -0.4686    1.0121 C.ar      1 <0>         0.1075
      8 O1          0.1284    0.2569    2.1616 O.3       1 <0>        -0.2780
      9 C8          0.3119   -0.4671    3.3799 C.3       1 <0>        -0.0065
     10 C9          0.3275    0.4959    4.5390 C.2       1 <0>         0.5013
     11 O2          0.1939    1.6914    4.3402 O.co2     1 <0>        -0.6704
     12 O3          0.4737    0.0796    5.6756 O.co2     1 <0>        -0.6887
     13 O4         -0.0118   -2.6699   -2.4786 O.3       1 <0>        -0.3118
     14 C10         0.1360   -4.0860   -2.3572 C.3       1 <0>         0.0791
     15 C11         0.0751   -4.7166   -3.7246 C.2       1 <0>        -0.1324
     16 C12         0.9292   -5.6542   -4.0521 C.2       1 <0>        -0.1357
     17 C13         1.8673   -6.2148   -3.0144 C.3       1 <0>         0.0912
     18 C14         3.2505   -5.8381   -3.3488 C.1       1 <0>        -0.1339
     19 C15         4.3536   -5.5376   -3.6154 C.1       1 <0>        -0.1344
     20 C16         5.6992   -5.1712   -3.9406 C.ar      1 <0>         0.0100
     21 C17         5.9606   -4.4016   -5.0750 C.ar      1 <0>        -0.0653
     22 C18         7.2584   -4.0509   -5.3834 C.ar      1 <0>        -0.1507
     23 C19         8.3018   -4.4615   -4.5692 C.ar      1 <0>         0.1056
     24 C20         8.0477   -5.2258   -3.4415 C.ar      1 <0>        -0.1529
     25 C21         6.7531   -5.5775   -3.1211 C.ar      1 <0>        -0.0677
     26 F1          9.5712   -4.1157   -4.8760 F         1 <0>        -0.1371
     27 C22         1.7481   -7.7169   -2.9886 C.ar      1 <0>        -0.0875
     28 C23         2.0367   -8.4510   -4.1300 C.ar      1 <0>        -0.0788
     29 C24         1.9333   -9.8256   -4.1271 C.ar      1 <0>        -0.1035
     30 C25         1.5367  -10.4862   -2.9709 C.ar      1 <0>         0.0522
     31 C26         1.2464   -9.7372   -1.8183 C.ar      1 <0>        -0.1247
     32 C27         1.3615   -8.3480   -1.8389 C.ar      1 <0>        -0.0596
     33 C28         0.8663  -10.7206   -0.7971 C.2       1 <0>        -0.2082
     34 C29         0.9532  -11.9218   -1.3846 C.2       1 <0>         0.0328
     35 O5          1.3473  -11.7849   -2.6628 O.3       1 <0>        -0.1942
     36 C30         0.6527  -13.2357   -0.7105 C.3       1 <0>        -0.0811
     37 H1          0.7494    2.1289   -0.3627 H         1 <0>         0.0689
     38 H2         -0.8576    1.9447   -1.1057 H         1 <0>         0.0611
     39 H3         -0.6993    2.0192    0.6656 H         1 <0>         0.0803
     40 H4         -0.2497   -0.0674   -2.3232 H         1 <0>         0.1321
     41 H5          0.2973   -3.6591   -0.0742 H         1 <0>         0.1224
     42 H6          0.3548   -2.3471    2.0073 H         1 <0>         0.1306
     43 H7         -0.5059   -1.1763    3.5078 H         1 <0>         0.0572
     44 H8          1.2583   -1.0066    3.3430 H         1 <0>         0.0573
     45 H9          1.0967   -4.3127   -1.8950 H         1 <0>         0.0695
     46 H10        -0.6680   -4.4834   -1.7377 H         1 <0>         0.0716
     47 H11        -0.6728   -4.3954   -4.4345 H         1 <0>         0.1296
     48 H12         0.9612   -6.0255   -5.0658 H         1 <0>         0.1275
     49 H13         1.6079   -5.8128   -2.0351 H         1 <0>         0.1120
     50 H14         5.1481   -4.0814   -5.7105 H         1 <0>         0.1395
     51 H15         7.4618   -3.4557   -6.2613 H         1 <0>         0.1421
     52 H16         8.8645   -5.5435   -2.8104 H         1 <0>         0.1405
     53 H17         6.5557   -6.1695   -2.2396 H         1 <0>         0.1367
     54 H18         2.3451   -7.9402   -5.0302 H         1 <0>         0.1352
     55 H19         2.1596  -10.3875   -5.0212 H         1 <0>         0.1335
     56 H20         1.1422   -7.7725   -0.9517 H         1 <0>         0.1307
     57 H21         0.5751  -10.5171    0.2228 H         1 <0>         0.1591
     58 H22        -0.4014  -13.4792   -0.8429 H         1 <0>         0.0865
     59 H23         1.2655  -14.0203   -1.1544 H         1 <0>         0.0798
     60 H24         0.8769  -13.1578    0.3534 H         1 <0>         0.0933
@<TRIPOS>BOND
     1    1    2 1
     2    1   37 1
     3    1   38 1
     4    1   39 1
     5    2    7 ar
     6    2    3 ar
     7    3    4 ar
     8    3   40 1
     9    4    5 ar
    10    4   13 1
    11    5    6 ar
    12    5   41 1
    13    6    7 ar
    14    6   42 1
    15    7    8 1
    16    8    9 1
    17    9   10 1
    18    9   43 1
    19    9   44 1
    20   10   11 2
    21   10   12 1
    22   13   14 1
    23   14   15 1
    24   14   45 1
    25   14   46 1
    26   15   16 2
    27   15   47 1
    28   16   17 1
    29   16   48 1
    30   17   18 1
    31   17   27 1
    32   17   49 1
    33   18   19 3
    34   19   20 1
    35   20   25 ar
    36   20   21 ar
    37   21   22 ar
    38   21   50 1
    39   22   23 ar
    40   22   51 1
    41   23   24 ar
    42   23   26 1
    43   24   25 ar
    44   24   52 1
    45   25   53 1
    46   27   32 ar
    47   27   28 ar
    48   28   29 ar
    49   28   54 1
    50   29   30 ar
    51   29   55 1
    52   30   35 1
    53   30   31 ar
    54   31   32 ar
    55   31   33 1
    56   32   56 1
    57   33   34 2
    58   33   57 1
    59   34   35 1
    60   34   36 1
    61   36   58 1
    62   36   59 1
    63   36   60 1
@<TRIPOS>MOLECULE
CHEMBL437364__1
   60    63     0     0     0
SMALL
USER_CHARGES

@<TRIPOS>ATOM
      1 C1         -4.2486   -2.7413    1.7879 C.3       1 <0>        -0.1052
      2 C2         -2.8647   -2.8825    1.2083 C.ar      1 <0>        -0.0853
      3 C3         -2.6972   -3.3999   -0.0617 C.ar      1 <0>        -0.1124
      4 C4         -1.4238   -3.5294   -0.5952 C.ar      1 <0>         0.0760
      5 C5         -0.3181   -3.1394    0.1462 C.ar      1 <0>        -0.1719
      6 C6         -0.4856   -2.6221    1.4157 C.ar      1 <0>        -0.1758
      7 C7         -1.7598   -2.4876    1.9474 C.ar      1 <0>         0.1075
      8 O1         -1.9250   -1.9731    3.1952 O.3       1 <0>        -0.2781
      9 C8         -0.7431   -1.5872    3.8996 C.3       1 <0>        -0.0064
     10 C9         -1.1202   -1.0436    5.2537 C.2       1 <0>         0.5013
     11 O2         -2.2925   -0.9915    5.5848 O.co2     1 <0>        -0.6703
     12 O3         -0.2530   -0.6559    6.0180 O.co2     1 <0>        -0.6887
     13 O4         -1.2588   -4.0392   -1.8451 O.3       1 <0>        -0.3130
     14 C10         0.0808   -4.1441   -2.3314 C.3       1 <0>         0.0771
     15 C11         0.0664   -4.7256   -3.7216 C.2       1 <0>        -0.1317
     16 C12         0.9292   -5.6542   -4.0521 C.2       1 <0>        -0.1355
     17 C13         1.8673   -6.2148   -3.0144 C.3       1 <0>         0.0870
     18 C14         1.7509   -7.6820   -2.9892 C.1       1 <0>        -0.1282
     19 C15         1.6580   -8.8521   -2.9691 C.1       1 <0>        -0.1385
     20 C16         1.5446  -10.2794   -2.9445 C.ar      1 <0>         0.0122
     21 C17         0.6627  -10.9268   -3.8108 C.ar      1 <0>        -0.0670
     22 C18         0.5577  -12.3018   -3.7834 C.ar      1 <0>        -0.1509
     23 C19         1.3261  -13.0403   -2.8977 C.ar      1 <0>         0.1047
     24 C20         2.2035  -12.4024   -2.0353 C.ar      1 <0>        -0.1522
     25 C21         2.3200  -11.0282   -2.0582 C.ar      1 <0>        -0.0678
     26 F1          1.2192  -14.3868   -2.8746 F         1 <0>        -0.1373
     27 C22         3.2834   -5.8291   -3.3567 C.ar      1 <0>        -0.0892
     28 C23         3.8332   -6.2279   -4.5666 C.ar      1 <0>        -0.0783
     29 C24         5.1267   -5.8858   -4.8982 C.ar      1 <0>        -0.1033
     30 C25         5.8906   -5.1336   -4.0144 C.ar      1 <0>         0.0523
     31 C26         5.3280   -4.7326   -2.7912 C.ar      1 <0>        -0.1237
     32 C27         4.0164   -5.0837   -2.4754 C.ar      1 <0>        -0.0608
     33 C28         6.3791   -3.9691   -2.1078 C.2       1 <0>        -0.2079
     34 C29         7.4367   -3.9705   -2.9306 C.2       1 <0>         0.0331
     35 O5          7.1503   -4.6550   -4.0519 O.3       1 <0>        -0.1943
     36 C30         8.7558   -3.3018   -2.6412 C.3       1 <0>        -0.0812
     37 H1         -4.6529   -1.7628    1.5288 H         1 <0>         0.0690
     38 H2         -4.8939   -3.5202    1.3817 H         1 <0>         0.0611
     39 H3         -4.1999   -2.8387    2.8725 H         1 <0>         0.0803
     40 H4         -3.5580   -3.7039   -0.6388 H         1 <0>         0.1321
     41 H5          0.6736   -3.2405   -0.2692 H         1 <0>         0.1225
     42 H6          0.3753   -2.3190    1.9933 H         1 <0>         0.1306
     43 H7         -0.0948   -2.4545    4.0240 H         1 <0>         0.0571
     44 H8         -0.2172   -0.8186    3.3332 H         1 <0>         0.0573
     45 H9          0.5368   -3.1544   -2.3562 H         1 <0>         0.0751
     46 H10         0.6569   -4.7932   -1.6720 H         1 <0>         0.0704
     47 H11        -0.6553   -4.3767   -4.4454 H         1 <0>         0.1300
     48 H12         0.9683   -6.0180   -5.0682 H         1 <0>         0.1268
     49 H13         1.6079   -5.8128   -2.0351 H         1 <0>         0.1159
     50 H14         0.0631  -10.3522   -4.5012 H         1 <0>         0.1383
     51 H15        -0.1248  -12.8038   -4.4532 H         1 <0>         0.1415
     52 H16         2.7998  -12.9826   -1.3467 H         1 <0>         0.1408
     53 H17         3.0073  -10.5324   -1.3888 H         1 <0>         0.1375
     54 H18         3.2417   -6.8126   -5.2555 H         1 <0>         0.1344
     55 H19         5.5453   -6.2019   -5.8423 H         1 <0>         0.1332
     56 H20         3.5825   -4.7721   -1.5367 H         1 <0>         0.1302
     57 H21         6.3133   -3.5004   -1.1371 H         1 <0>         0.1597
     58 H22         9.4151   -4.0043   -2.1313 H         1 <0>         0.0863
     59 H23         9.2160   -2.9856   -3.5773 H         1 <0>         0.0798
     60 H24         8.5905   -2.4319   -2.0056 H         1 <0>         0.0939
@<TRIPOS>BOND
     1    1    2 1
     2    1   37 1
     3    1   38 1
     4    1   39 1
     5    2    7 ar
     6    2    3 ar
     7    3    4 ar
     8    3   40 1
     9    4    5 ar
    10    4   13 1
    11    5    6 ar
    12    5   41 1
    13    6    7 ar
    14    6   42 1
    15    7    8 1
    16    8    9 1
    17    9   10 1
    18    9   43 1
    19    9   44 1
    20   10   11 2
    21   10   12 1
    22   13   14 1
    23   14   15 1
    24   14   45 1
    25   14   46 1
    26   15   16 2
    27   15   47 1
    28   16   17 1
    29   16   48 1
    30   17   18 1
    31   17   27 1
    32   17   49 1
    33   18   19 3
    34   19   20 1
    35   20   25 ar
    36   20   21 ar
    37   21   22 ar
    38   21   50 1
    39   22   23 ar
    40   22   51 1
    41   23   24 ar
    42   23   26 1
    43   24   25 ar
    44   24   52 1
    45   25   53 1
    46   27   32 ar
    47   27   28 ar
    48   28   29 ar
    49   28   54 1
    50   29   30 ar
    51   29   55 1
    52   30   35 1
    53   30   31 ar
    54   31   32 ar
    55   31   33 1
    56   32   56 1
    57   33   34 2
    58   33   57 1
    59   34   35 1
    60   34   36 1
    61   36   58 1
    62   36   59 1
    63   36   60 1
@<TRIPOS>MOLECULE
CHEMBL220431
   51    54     0     0     0
SMALL
USER_CHARGES

@<TRIPOS>ATOM
      1 C1          0.1790    2.4412    0.3958 C.ar      1 <0>        -0.0682
      2 C2          1.4106    3.0559    0.5028 C.ar      1 <0>        -0.1290
      3 C3          2.5726    2.3083    0.3764 C.ar      1 <0>         0.1362
      4 C4          2.4976    0.9427    0.1429 C.ar      1 <0>        -0.1840
      5 C5          1.2664    0.3271    0.0362 C.ar      1 <0>        -0.0880
      6 C6          0.1034    1.0747    0.1621 C.ar      1 <0>         0.1039
      7 N1         -1.1479    0.4496    0.0532 N.pl3     1 <0>        -0.3230
      8 C7         -1.3807   -0.8589   -0.1653 C.2       1 <0>         0.2576
      9 N2         -2.6763   -1.0397   -0.2004 N.2       1 <0>        -0.5381
     10 C8         -3.3004    0.1220   -0.0097 C.2       1 <0>         0.2051
     11 N3         -2.4073    1.0627    0.1565 N.2       1 <0>        -0.3161
     12 O1          3.7850    2.9142    0.4810 O.3       1 <0>        -0.3065
     13 C9          4.9395    2.0838    0.3405 C.3       1 <0>         0.0616
     14 C10         6.2016    2.9360    0.4872 C.3       1 <0>        -0.1195
     15 C11         7.4377    2.0470    0.3367 C.3       1 <0>         0.0657
     16 O2          8.6165    2.8429    0.4737 O.3       1 <0>        -0.3152
     17 C12         9.8099    2.2018    0.3655 C.ar      1 <0>         0.1136
     18 C13         9.8465    0.8356    0.1266 C.ar      1 <0>        -0.2082
     19 C14        11.0608    0.1890    0.0175 C.ar      1 <0>        -0.0705
     20 C15        12.2441    0.8981    0.1460 C.ar      1 <0>        -0.1074
     21 C16        12.2102    2.2596    0.3842 C.ar      1 <0>        -0.0609
     22 C17        10.9939    2.9119    0.4879 C.ar      1 <0>        -0.1399
     23 C18        13.6220    2.7968    0.4837 C.3       1 <0>        -0.0829
     24 C19        14.5106    1.5567    0.7170 C.3       1 <0>        -0.1020
     25 C20        13.6811    0.4280    0.0690 C.3       1 <0>        -0.0268
     26 H1         13.9784    0.2891   -0.9704 H         1 <0>         0.0891
     27 C21        13.8559   -0.8754    0.8511 C.3       1 <0>        -0.1740
     28 C22        15.2539   -1.3998    0.6474 C.2       1 <0>         0.4909
     29 O3         16.0038   -0.8470   -0.1392 O.co2     1 <0>        -0.6953
     30 O4         15.6352   -2.3768    1.2692 O.co2     1 <0>        -0.7080
     31 H2         -0.7254    3.0224    0.4982 H         1 <0>         0.1457
     32 H3          1.4696    4.1188    0.6846 H         1 <0>         0.1442
     33 H4          3.4024    0.3613    0.0443 H         1 <0>         0.1427
     34 H5          1.2081   -0.7359   -0.1460 H         1 <0>         0.1364
     35 H6         -0.6295   -1.6249   -0.2897 H         1 <0>         0.2220
     36 H7         -4.3710    0.2631    0.0096 H         1 <0>         0.2231
     37 H8          4.9293    1.3138    1.1120 H         1 <0>         0.0701
     38 H9          4.9311    1.6132   -0.6426 H         1 <0>         0.0699
     39 H10         6.2118    3.7060   -0.2843 H         1 <0>         0.0871
     40 H11         6.2101    3.4066    1.4703 H         1 <0>         0.0872
     41 H12         7.4275    1.2770    1.1082 H         1 <0>         0.0646
     42 H13         7.4293    1.5764   -0.6464 H         1 <0>         0.0643
     43 H14         8.9263    0.2790    0.0266 H         1 <0>         0.1232
     44 H15        11.0888   -0.8745   -0.1685 H         1 <0>         0.1225
     45 H16        10.9672    3.9763    0.6690 H         1 <0>         0.1241
     46 H17        13.9035    3.2946   -0.4443 H         1 <0>         0.0795
     47 H18        13.7061    3.4859    1.3240 H         1 <0>         0.0709
     48 H19        15.4715    1.6686    0.2148 H         1 <0>         0.0856
     49 H20        14.6482    1.3736    1.7827 H         1 <0>         0.0644
     50 H21        13.6891   -0.6878    1.9118 H         1 <0>         0.0567
     51 H22        13.1359   -1.6122    0.4948 H         1 <0>         0.0557
@<TRIPOS>BOND
     1    1    6 ar
     2    1    2 ar
     3    1   31 1
     4    2    3 ar
     5    2   32 1
     6    3    4 ar
     7    3   12 1
     8    4    5 ar
     9    4   33 1
    10    5    6 ar
    11    5   34 1
    12    6    7 1
    13    7   11 1
    14    7    8 1
    15    8    9 2
    16    8   35 1
    17    9   10 1
    18   10   11 2
    19   10   36 1
    20   12   13 1
    21   13   14 1
    22   13   37 1
    23   13   38 1
    24   14   15 1
    25   14   39 1
    26   14   40 1
    27   15   16 1
    28   15   41 1
    29   15   42 1
    30   16   17 1
    31   17   22 ar
    32   17   18 ar
    33   18   19 ar
    34   18   43 1
    35   19   20 ar
    36   19   44 1
    37   20   25 1
    38   20   21 ar
    39   21   22 ar
    40   21   23 1
    41   22   45 1
    42   23   24 1
    43   23   46 1
    44   23   47 1
    45   24   25 1
    46   24   48 1
    47   24   49 1
    48   25   26 1
    49   25   27 1
    50   27   28 1
    51   27   50 1
    52   27   51 1
    53   28   29 2
    54   28   30 1
@<TRIPOS>MOLECULE
CHEMBL119496
   68    71     0     0     0
SMALL
USER_CHARGES

@<TRIPOS>ATOM
      1 C1         -0.0187    1.5258    0.0104 C.3       1 <0>        -0.1527
      2 C2          0.0021   -0.0041    0.0020 C.3       1 <0>        -0.1170
      3 C3          0.7421   -0.5109    1.2415 C.3       1 <0>        -0.0726
      4 C4          0.7625   -2.0177    1.2333 C.ar      1 <0>        -0.1242
      5 C5         -0.2013   -2.7230    1.9177 C.ar      1 <0>        -0.0192
      6 C6         -0.1776   -4.1232    1.9061 C.ar      1 <0>        -0.2064
      7 C7          0.8262   -4.7958    1.1984 C.ar      1 <0>        -0.0345
      8 C8          1.7779   -4.0866    0.5225 C.ar      1 <0>        -0.2198
      9 C9          1.7518   -2.6960    0.5293 C.ar      1 <0>         0.1665
     10 O1          2.6976   -1.9989   -0.1488 O.3       1 <0>        -0.3008
     11 C10         3.6843   -2.7577   -0.8506 C.3       1 <0>         0.0611
     12 C11         4.6577   -1.8063   -1.5493 C.3       1 <0>        -0.1205
     13 C12         5.7142   -2.6187   -2.3007 C.3       1 <0>         0.0636
     14 O2          6.6233   -1.7301   -2.9533 O.3       1 <0>        -0.3079
     15 C13         7.6303   -2.2947   -3.6703 C.ar      1 <0>         0.1356
     16 C14         7.7378   -3.6758   -3.7490 C.ar      1 <0>        -0.1913
     17 C15         8.7618   -4.2472   -4.4788 C.ar      1 <0>        -0.0707
     18 C16         9.6796   -3.4440   -5.1306 C.ar      1 <0>        -0.1319
     19 C17         9.5749   -2.0676   -5.0534 C.ar      1 <0>        -0.0406
     20 C18         8.5490   -1.4912   -4.3294 C.ar      1 <0>        -0.1184
     21 C19        10.5771   -1.1953   -5.7647 C.3       1 <0>        -0.0340
     22 C20        10.7111   -1.5868   -7.2296 C.2       1 <0>         0.5343
     23 O3          9.7839   -1.5138   -8.0073 O.2       1 <0>        -0.4481
     24 N1         11.9085   -2.0123   -7.5953 N.am      1 <0>        -0.6896
     25 C21        12.9534   -2.1029   -6.7517 C.2       1 <0>         0.5629
     26 O4         14.0833   -2.4796   -6.9953 O.2       1 <0>        -0.4133
     27 S1         12.2922   -1.5397   -5.1900 S.3       1 <0>        -0.1362
     28 C22        -1.2018   -4.8834    2.6341 C.2       1 <0>         0.4039
     29 O5         -2.0701   -4.2987    3.2467 O.2       1 <0>        -0.4525
     30 C23        -1.1739   -6.3901    2.6199 C.3       1 <0>        -0.1298
     31 C24        -1.8922   -6.9017    1.3696 C.3       1 <0>        -0.1072
     32 C25        -1.8639   -8.4314    1.3552 C.3       1 <0>        -0.1173
     33 C26        -2.5689   -8.9663    2.6033 C.3       1 <0>        -0.1231
     34 C27        -1.8505   -8.4547    3.8535 C.3       1 <0>        -0.1192
     35 C28        -1.8788   -6.9250    3.8680 C.3       1 <0>        -0.1077
     36 H1          1.0039    1.9031    0.0027 H         1 <0>         0.0551
     37 H2         -0.5459    1.8868   -0.8726 H         1 <0>         0.0548
     38 H3         -0.5289    1.8773    0.9072 H         1 <0>         0.0544
     39 H4         -1.0205   -0.3814    0.0098 H         1 <0>         0.0606
     40 H5          0.5123   -0.3556   -0.8948 H         1 <0>         0.0633
     41 H6          1.7647   -0.1336    1.2338 H         1 <0>         0.0779
     42 H7          0.2319   -0.1594    2.1383 H         1 <0>         0.0730
     43 H8         -0.9727   -2.1985    2.4620 H         1 <0>         0.1404
     44 H9          0.8481   -5.8756    1.1873 H         1 <0>         0.1347
     45 H10         2.5513   -4.6075   -0.0223 H         1 <0>         0.1341
     46 H11         4.2312   -3.3833   -0.1451 H         1 <0>         0.0695
     47 H12         3.1967   -3.3888   -1.5936 H         1 <0>         0.0695
     48 H13         4.1109   -1.1806   -2.2547 H         1 <0>         0.0893
     49 H14         5.1453   -1.1752   -0.8062 H         1 <0>         0.0892
     50 H15         6.2610   -3.2444   -1.5952 H         1 <0>         0.0689
     51 H16         5.2266   -3.2498   -3.0437 H         1 <0>         0.0687
     52 H17         7.0215   -4.3035   -3.2397 H         1 <0>         0.1337
     53 H18         8.8461   -5.3221   -4.5400 H         1 <0>         0.1339
     54 H19        10.4796   -3.8926   -5.7008 H         1 <0>         0.1210
     55 H20         8.4651   -0.4159   -4.2731 H         1 <0>         0.1407
     56 H21        10.3269   -0.1399   -5.6566 H         1 <0>         0.1697
     57 H22        12.0408   -2.2732   -8.5201 H         1 <0>         0.4204
     58 H23        -0.1397   -6.7343    2.6111 H         1 <0>         0.0955
     59 H24        -2.9264   -6.5576    1.3784 H         1 <0>         0.0689
     60 H25        -1.3900   -6.5206    0.4805 H         1 <0>         0.0681
     61 H26        -2.3757   -8.7959    0.4645 H         1 <0>         0.0667
     62 H27        -0.8297   -8.7756    1.3464 H         1 <0>         0.0641
     63 H28        -3.6031   -8.6222    2.6121 H         1 <0>         0.0634
     64 H29        -2.5487  -10.0561    2.5930 H         1 <0>         0.0636
     65 H30        -2.3527   -8.8358    4.7427 H         1 <0>         0.0657
     66 H31        -0.8163   -8.7989    3.8448 H         1 <0>         0.0625
     67 H32        -1.3670   -6.5606    4.7586 H         1 <0>         0.0643
     68 H33        -2.9130   -6.5809    3.8767 H         1 <0>         0.0732
@<TRIPOS>BOND
     1    1    2 1
     2    1   36 1
     3    1   37 1
     4    1   38 1
     5    2    3 1
     6    2   39 1
     7    2   40 1
     8    3    4 1
     9    3   41 1
    10    3   42 1
    11    4    9 ar
    12    4    5 ar
    13    5    6 ar
    14    5   43 1
    15    6    7 ar
    16    6   28 1
    17    7    8 ar
    18    7   44 1
    19    8    9 ar
    20    8   45 1
    21    9   10 1
    22   10   11 1
    23   11   12 1
    24   11   46 1
    25   11   47 1
    26   12   13 1
    27   12   48 1
    28   12   49 1
    29   13   14 1
    30   13   50 1
    31   13   51 1
    32   14   15 1
    33   15   20 ar
    34   15   16 ar
    35   16   17 ar
    36   16   52 1
    37   17   18 ar
    38   17   53 1
    39   18   19 ar
    40   18   54 1
    41   19   20 ar
    42   19   21 1
    43   20   55 1
    44   21   27 1
    45   21   22 1
    46   21   56 1
    47   22   23 2
    48   22   24 am
    49   24   25 am
    50   24   57 1
    51   25   26 2
    52   25   27 1
    53   28   29 2
    54   28   30 1
    55   30   35 1
    56   30   31 1
    57   30   58 1
    58   31   32 1
    59   31   59 1
    60   31   60 1
    61   32   33 1
    62   32   61 1
    63   32   62 1
    64   33   34 1
    65   33   63 1
    66   33   64 1
    67   34   35 1
    68   34   65 1
    69   34   66 1
    70   35   67 1
    71   35   68 1
@<TRIPOS>MOLECULE
CHEMBL119496__1
   68    71     0     0     0
SMALL
USER_CHARGES

@<TRIPOS>ATOM
      1 C1         -0.0187    1.5258    0.0104 C.3       1 <0>        -0.1527
      2 C2          0.0021   -0.0041    0.0020 C.3       1 <0>        -0.1169
      3 C3          0.7421   -0.5109    1.2415 C.3       1 <0>        -0.0726
      4 C4          0.7625   -2.0177    1.2333 C.ar      1 <0>        -0.1242
      5 C5         -0.2013   -2.7230    1.9177 C.ar      1 <0>        -0.0192
      6 C6         -0.1776   -4.1232    1.9061 C.ar      1 <0>        -0.2064
      7 C7          0.8262   -4.7958    1.1984 C.ar      1 <0>        -0.0345
      8 C8          1.7779   -4.0866    0.5225 C.ar      1 <0>        -0.2198
      9 C9          1.7518   -2.6960    0.5293 C.ar      1 <0>         0.1665
     10 O1          2.6976   -1.9989   -0.1488 O.3       1 <0>        -0.3008
     11 C10         3.6843   -2.7577   -0.8506 C.3       1 <0>         0.0611
     12 C11         4.6577   -1.8063   -1.5493 C.3       1 <0>        -0.1205
     13 C12         5.7142   -2.6187   -2.3007 C.3       1 <0>         0.0636
     14 O2          6.6233   -1.7301   -2.9533 O.3       1 <0>        -0.3079
     15 C13         7.6303   -2.2947   -3.6703 C.ar      1 <0>         0.1356
     16 C14         7.7378   -3.6758   -3.7490 C.ar      1 <0>        -0.1913
     17 C15         8.7618   -4.2472   -4.4788 C.ar      1 <0>        -0.0707
     18 C16         9.6796   -3.4440   -5.1306 C.ar      1 <0>        -0.1319
     19 C17         9.5749   -2.0676   -5.0534 C.ar      1 <0>        -0.0405
     20 C18         8.5490   -1.4912   -4.3294 C.ar      1 <0>        -0.1184
     21 C19        10.5771   -1.1953   -5.7647 C.3       1 <0>        -0.0340
     22 C20        12.0043   -1.5904   -5.4121 C.2       1 <0>         0.5343
     23 O3         12.4351   -1.5213   -4.2810 O.2       1 <0>        -0.4481
     24 N1         12.7415   -2.0147   -6.4246 N.am      1 <0>        -0.6896
     25 C21        12.2868   -2.1010   -7.6885 C.2       1 <0>         0.5628
     26 O4         12.8866   -2.4768   -8.6770 O.2       1 <0>        -0.4134
     27 S1         10.5959   -1.5349   -7.5743 S.3       1 <0>        -0.1361
     28 C22        -1.2018   -4.8834    2.6341 C.2       1 <0>         0.4039
     29 O5         -2.0701   -4.2987    3.2467 O.2       1 <0>        -0.4525
     30 C23        -1.1739   -6.3901    2.6199 C.3       1 <0>        -0.1299
     31 C24        -1.8922   -6.9017    1.3696 C.3       1 <0>        -0.1072
     32 C25        -1.8639   -8.4314    1.3552 C.3       1 <0>        -0.1173
     33 C26        -2.5689   -8.9663    2.6033 C.3       1 <0>        -0.1231
     34 C27        -1.8505   -8.4547    3.8535 C.3       1 <0>        -0.1192
     35 C28        -1.8788   -6.9250    3.8680 C.3       1 <0>        -0.1077
     36 H1          1.0039    1.9031    0.0027 H         1 <0>         0.0551
     37 H2         -0.5459    1.8868   -0.8726 H         1 <0>         0.0548
     38 H3         -0.5289    1.8773    0.9072 H         1 <0>         0.0544
     39 H4         -1.0205   -0.3814    0.0098 H         1 <0>         0.0606
     40 H5          0.5123   -0.3556   -0.8948 H         1 <0>         0.0633
     41 H6          1.7647   -0.1336    1.2338 H         1 <0>         0.0779
     42 H7          0.2319   -0.1594    2.1383 H         1 <0>         0.0730
     43 H8         -0.9727   -2.1985    2.4620 H         1 <0>         0.1404
     44 H9          0.8481   -5.8756    1.1873 H         1 <0>         0.1347
     45 H10         2.5513   -4.6075   -0.0223 H         1 <0>         0.1341
     46 H11         4.2312   -3.3833   -0.1451 H         1 <0>         0.0694
     47 H12         3.1967   -3.3888   -1.5936 H         1 <0>         0.0696
     48 H13         4.1109   -1.1806   -2.2547 H         1 <0>         0.0893
     49 H14         5.1453   -1.1752   -0.8062 H         1 <0>         0.0892
     50 H15         6.2610   -3.2444   -1.5952 H         1 <0>         0.0687
     51 H16         5.2266   -3.2498   -3.0437 H         1 <0>         0.0689
     52 H17         7.0215   -4.3035   -3.2397 H         1 <0>         0.1337
     53 H18         8.8461   -5.3221   -4.5400 H         1 <0>         0.1339
     54 H19        10.4796   -3.8926   -5.7008 H         1 <0>         0.1210
     55 H20         8.4651   -0.4159   -4.2731 H         1 <0>         0.1407
     56 H21        10.3950   -0.1401   -5.5609 H         1 <0>         0.1697
     57 H22        13.6583   -2.2771   -6.2471 H         1 <0>         0.4204
     58 H23        -0.1397   -6.7343    2.6111 H         1 <0>         0.0955
     59 H24        -2.9264   -6.5576    1.3784 H         1 <0>         0.0690
     60 H25        -1.3900   -6.5206    0.4805 H         1 <0>         0.0681
     61 H26        -2.3757   -8.7959    0.4645 H         1 <0>         0.0667
     62 H27        -0.8297   -8.7756    1.3464 H         1 <0>         0.0641
     63 H28        -3.6031   -8.6222    2.6121 H         1 <0>         0.0634
     64 H29        -2.5487  -10.0561    2.5930 H         1 <0>         0.0636
     65 H30        -2.3527   -8.8358    4.7427 H         1 <0>         0.0657
     66 H31        -0.8163   -8.7989    3.8448 H         1 <0>         0.0625
     67 H32        -1.3670   -6.5606    4.7586 H         1 <0>         0.0643
     68 H33        -2.9130   -6.5809    3.8767 H         1 <0>         0.0732
@<TRIPOS>BOND
     1    1    2 1
     2    1   36 1
     3    1   37 1
     4    1   38 1
     5    2    3 1
     6    2   39 1
     7    2   40 1
     8    3    4 1
     9    3   41 1
    10    3   42 1
    11    4    9 ar
    12    4    5 ar
    13    5    6 ar
    14    5   43 1
    15    6    7 ar
    16    6   28 1
    17    7    8 ar
    18    7   44 1
    19    8    9 ar
    20    8   45 1
    21    9   10 1
    22   10   11 1
    23   11   12 1
    24   11   46 1
    25   11   47 1
    26   12   13 1
    27   12   48 1
    28   12   49 1
    29   13   14 1
    30   13   50 1
    31   13   51 1
    32   14   15 1
    33   15   20 ar
    34   15   16 ar
    35   16   17 ar
    36   16   52 1
    37   17   18 ar
    38   17   53 1
    39   18   19 ar
    40   18   54 1
    41   19   20 ar
    42   19   21 1
    43   20   55 1
    44   21   27 1
    45   21   22 1
    46   21   56 1
    47   22   23 2
    48   22   24 am
    49   24   25 am
    50   24   57 1
    51   25   26 2
    52   25   27 1
    53   28   29 2
    54   28   30 1
    55   30   35 1
    56   30   31 1
    57   30   58 1
    58   31   32 1
    59   31   59 1
    60   31   60 1
    61   32   33 1
    62   32   61 1
    63   32   62 1
    64   33   34 1
    65   33   63 1
    66   33   64 1
    67   34   35 1
    68   34   65 1
    69   34   66 1
    70   35   67 1
    71   35   68 1
@<TRIPOS>MOLECULE
CHEMBL484606
   59    62     0     0     0
SMALL
USER_CHARGES

@<TRIPOS>ATOM
      1 C1         -0.0187    1.5258    0.0104 C.3       1 <0>        -0.1466
      2 C2          0.0021   -0.0041    0.0020 C.3       1 <0>        -0.1176
      3 C3          0.7421   -0.5109    1.2415 C.3       1 <0>         0.0724
      4 O1          0.7614   -1.9398    1.2337 O.3       1 <0>        -0.3582
      5 C4          1.4328   -2.5181    2.3548 C.3       1 <0>         0.0322
      6 H1          1.3339   -1.8589    3.2172 H         1 <0>         0.0482
      7 C5          0.8085   -3.8772    2.6776 C.3       1 <0>        -0.0610
      8 C6         -0.6175   -3.6816    3.1241 C.ar      1 <0>        -0.0577
      9 C7         -0.9158   -3.5896    4.4690 C.ar      1 <0>        -0.0624
     10 C8         -2.2328   -3.4091    4.8675 C.ar      1 <0>        -0.2170
     11 C9         -3.2515   -3.3200    3.9484 C.ar      1 <0>         0.1597
     12 C10        -2.9785   -3.4107    2.5590 C.ar      1 <0>        -0.1208
     13 C11        -1.6284   -3.5883    2.1906 C.ar      1 <0>        -0.0614
     14 S1         -1.6844   -3.6466    0.4180 S.3       1 <0>         0.0919
     15 C12        -3.4394   -3.4339    0.1897 C.2       1 <0>        -0.1885
     16 C13        -3.9090   -3.3412    1.4418 C.2       1 <0>        -0.1278
     17 O2         -4.5299   -3.1441    4.3741 O.3       1 <0>        -0.3119
     18 C14        -4.7381   -3.0610    5.7854 C.3       1 <0>         0.0660
     19 C15        -6.2284   -2.8645    6.0703 C.3       1 <0>        -0.0337
     20 C16        -6.4480   -2.7768    7.5586 C.2       1 <0>        -0.0068
     21 C17        -6.6920   -3.8096    8.3858 C.2       1 <0>        -0.0320
     22 O3         -6.8265   -3.3043    9.6280 O.3       1 <0>        -0.1933
     23 C18        -6.6639   -1.9723    9.5470 C.2       1 <0>         0.2302
     24 N1         -6.4293   -1.6558    8.2954 N.2       1 <0>        -0.4588
     25 C19        -6.7323   -1.0240   10.6790 C.ar      1 <0>        -0.0176
     26 C20        -6.5510    0.3425   10.4604 C.ar      1 <0>        -0.0704
     27 C21        -6.6166    1.2222   11.5211 C.ar      1 <0>        -0.1204
     28 C22        -6.8614    0.7525   12.7993 C.ar      1 <0>        -0.1008
     29 C23        -7.0421   -0.6009   13.0227 C.ar      1 <0>        -0.1212
     30 C24        -6.9843   -1.4907   11.9700 C.ar      1 <0>        -0.0905
     31 C25        -6.7959   -5.2615    7.9957 C.3       1 <0>        -0.0725
     32 C26         2.8923   -2.7008    2.0269 C.2       1 <0>         0.4786
     33 O4          3.6645   -3.0971    2.8831 O.co2     1 <0>        -0.7013
     34 O5          3.3008   -2.4525    0.9053 O.co2     1 <0>        -0.6771
     35 H2          1.0039    1.9031    0.0027 H         1 <0>         0.0544
     36 H3         -0.5459    1.8868   -0.8726 H         1 <0>         0.0542
     37 H4         -0.5289    1.8773    0.9072 H         1 <0>         0.0496
     38 H5         -1.0205   -0.3814    0.0098 H         1 <0>         0.0633
     39 H6          0.5123   -0.3556   -0.8948 H         1 <0>         0.0704
     40 H7          1.7647   -0.1336    1.2338 H         1 <0>         0.0445
     41 H8          0.2319   -0.1594    2.1383 H         1 <0>         0.0269
     42 H9          0.8275   -4.5063    1.7876 H         1 <0>         0.0743
     43 H10         1.3762   -4.3577    3.4744 H         1 <0>         0.0918
     44 H11        -0.1294   -3.6579    5.2061 H         1 <0>         0.1353
     45 H12        -2.4622   -3.3375    5.9204 H         1 <0>         0.1264
     46 H13        -3.9936   -3.3977   -0.7366 H         1 <0>         0.1826
     47 H14        -4.9652   -3.2026    1.6194 H         1 <0>         0.1303
     48 H15        -4.3961   -3.9817    6.2579 H         1 <0>         0.0629
     49 H16        -4.1772   -2.2167    6.1863 H         1 <0>         0.0668
     50 H17        -6.5704   -1.9437    5.5977 H         1 <0>         0.0946
     51 H18        -6.7894   -3.7087    5.6694 H         1 <0>         0.0926
     52 H19        -6.3595    0.7103    9.4633 H         1 <0>         0.1390
     53 H20        -6.4761    2.2798   11.3535 H         1 <0>         0.1329
     54 H21        -6.9114    1.4453   13.6263 H         1 <0>         0.1286
     55 H22        -7.2325   -0.9612   14.0229 H         1 <0>         0.1307
     56 H23        -7.1299   -2.5464   12.1451 H         1 <0>         0.1301
     57 H24        -5.8116   -5.7256    8.0570 H         1 <0>         0.0889
     58 H25        -7.4809   -5.7716    8.6730 H         1 <0>         0.0811
     59 H26        -7.1705   -5.3375    6.9749 H         1 <0>         0.0962
@<TRIPOS>BOND
     1    1    2 1
     2    1   35 1
     3    1   36 1
     4    1   37 1
     5    2    3 1
     6    2   38 1
     7    2   39 1
     8    3    4 1
     9    3   40 1
    10    3   41 1
    11    4    5 1
    12    5    6 1
    13    5    7 1
    14    5   32 1
    15    7    8 1
    16    7   42 1
    17    7   43 1
    18    8   13 ar
    19    8    9 ar
    20    9   10 ar
    21    9   44 1
    22   10   11 ar
    23   10   45 1
    24   11   12 ar
    25   11   17 1
    26   12   16 1
    27   12   13 ar
    28   13   14 1
    29   14   15 1
    30   15   16 2
    31   15   46 1
    32   16   47 1
    33   17   18 1
    34   18   19 1
    35   18   48 1
    36   18   49 1
    37   19   20 1
    38   19   50 1
    39   19   51 1
    40   20   24 1
    41   20   21 2
    42   21   22 1
    43   21   31 1
    44   22   23 1
    45   23   24 2
    46   23   25 1
    47   25   30 ar
    48   25   26 ar
    49   26   27 ar
    50   26   52 1
    51   27   28 ar
    52   27   53 1
    53   28   29 ar
    54   28   54 1
    55   29   30 ar
    56   29   55 1
    57   30   56 1
    58   31   57 1
    59   31   58 1
    60   31   59 1
    61   32   33 2
    62   32   34 1
@<TRIPOS>MOLECULE
CHEMBL484330
   53    56     0     0     0
SMALL
USER_CHARGES

@<TRIPOS>ATOM
      1 C1         -0.0184    1.5028    0.0103 C.3       1 <0>        -0.0726
      2 C2          0.0021   -0.0041    0.0020 C.2       1 <0>        -0.0308
      3 C3         -1.0705   -0.8164    0.0025 C.2       1 <0>        -0.0071
      4 N1         -0.6270   -2.0826   -0.0064 N.2       1 <0>        -0.4586
      5 C4          0.6851   -2.0676   -0.0123 C.2       1 <0>         0.2289
      6 O1          1.0981   -0.7883   -0.0131 O.3       1 <0>        -0.1930
      7 C5          1.5619   -3.2577   -0.0227 C.ar      1 <0>        -0.0171
      8 C6          1.0059   -4.5378   -0.0330 C.ar      1 <0>        -0.0706
      9 C7          1.8298   -5.6443   -0.0432 C.ar      1 <0>        -0.1206
     10 C8          3.2044   -5.4871   -0.0433 C.ar      1 <0>        -0.1012
     11 C9          3.7620   -4.2209   -0.0327 C.ar      1 <0>        -0.1212
     12 C10         2.9493   -3.1060   -0.0282 C.ar      1 <0>        -0.0906
     13 C11        -2.5133   -0.3814    0.0119 C.3       1 <0>        -0.0337
     14 C12        -3.0085   -0.2260   -1.4274 C.3       1 <0>         0.0678
     15 O2         -4.3766    0.1865   -1.4185 O.3       1 <0>        -0.3110
     16 C13        -4.9733    0.3716   -2.6260 C.ar      1 <0>         0.1577
     17 C14        -4.2636    0.1567   -3.7964 C.ar      1 <0>        -0.1863
     18 C15        -4.8902    0.3510   -5.0196 C.ar      1 <0>        -0.0914
     19 C16        -6.1878    0.7485   -5.0994 C.ar      1 <0>        -0.0516
     20 C17        -6.9496    0.9799   -3.9282 C.ar      1 <0>        -0.0352
     21 C18        -6.2951    0.7705   -2.6966 C.ar      1 <0>        -0.1403
     22 S1         -7.5429    1.1421   -1.4916 S.3       1 <0>         0.0175
     23 C19        -8.8809    1.5505   -2.5965 C.2       1 <0>        -0.1673
     24 C20        -8.3368    1.4055   -3.8137 C.2       1 <0>        -0.1071
     25 C21        -6.8235    0.9459   -6.4514 C.3       1 <0>        -0.0645
     26 C22        -6.7258    2.4196   -6.8507 C.3       1 <0>         0.0320
     27 H1         -5.6845    2.7390   -6.8093 H         1 <0>         0.0493
     28 C23        -7.2500    2.5961   -8.2526 C.2       1 <0>         0.4781
     29 O3         -8.2553    3.2573   -8.4487 O.co2     1 <0>        -0.6791
     30 O4         -6.6686    2.0776   -9.1905 O.co2     1 <0>        -0.6995
     31 O5         -7.5027    3.2100   -5.9487 O.3       1 <0>        -0.3662
     32 C24        -7.0039    4.5358   -5.7600 C.3       1 <0>         0.0450
     33 H2          1.0042    1.8801    0.0026 H         1 <0>         0.0808
     34 H3         -0.5455    1.8639   -0.8728 H         1 <0>         0.0929
     35 H4         -0.5286    1.8543    0.9071 H         1 <0>         0.0933
     36 H5         -0.0670   -4.6619   -0.0326 H         1 <0>         0.1391
     37 H6          1.4008   -6.6354   -0.0508 H         1 <0>         0.1327
     38 H7          3.8450   -6.3565   -0.0513 H         1 <0>         0.1284
     39 H8          4.8357   -4.1050   -0.0321 H         1 <0>         0.1306
     40 H9          3.3858   -2.1181   -0.0249 H         1 <0>         0.1301
     41 H10        -3.1156   -1.1316    0.5243 H         1 <0>         0.0950
     42 H11        -2.6018    0.5726    0.5316 H         1 <0>         0.0932
     43 H12        -2.4061    0.5242   -1.9398 H         1 <0>         0.0625
     44 H13        -2.9200   -1.1800   -1.9471 H         1 <0>         0.0671
     45 H14        -3.2316   -0.1591   -3.7572 H         1 <0>         0.1322
     46 H15        -4.3335    0.1827   -5.9296 H         1 <0>         0.1297
     47 H16        -9.8868    1.8531   -2.3454 H         1 <0>         0.1861
     48 H17        -8.9263    1.5880   -4.7000 H         1 <0>         0.1485
     49 H18        -6.3048    0.3343   -7.1896 H         1 <0>         0.0899
     50 H19        -7.8717    0.6503   -6.4067 H         1 <0>         0.0757
     51 H20        -7.6484    5.0706   -5.0623 H         1 <0>         0.0715
     52 H21        -5.9920    4.4894   -5.3574 H         1 <0>         0.0220
     53 H22        -6.9908    5.0586   -6.7163 H         1 <0>         0.0388
@<TRIPOS>BOND
     1    1    2 1
     2    1   33 1
     3    1   34 1
     4    1   35 1
     5    2    6 1
     6    2    3 2
     7    3    4 1
     8    3   13 1
     9    4    5 2
    10    5    6 1
    11    5    7 1
    12    7   12 ar
    13    7    8 ar
    14    8    9 ar
    15    8   36 1
    16    9   10 ar
    17    9   37 1
    18   10   11 ar
    19   10   38 1
    20   11   12 ar
    21   11   39 1
    22   12   40 1
    23   13   14 1
    24   13   41 1
    25   13   42 1
    26   14   15 1
    27   14   43 1
    28   14   44 1
    29   15   16 1
    30   16   21 ar
    31   16   17 ar
    32   17   18 ar
    33   17   45 1
    34   18   19 ar
    35   18   46 1
    36   19   20 ar
    37   19   25 1
    38   20   24 1
    39   20   21 ar
    40   21   22 1
    41   22   23 1
    42   23   24 2
    43   23   47 1
    44   24   48 1
    45   25   26 1
    46   25   49 1
    47   25   50 1
    48   26   27 1
    49   26   28 1
    50   26   31 1
    51   28   29 2
    52   28   30 1
    53   31   32 1
    54   32   51 1
    55   32   52 1
    56   32   53 1
@<TRIPOS>MOLECULE
CHEMBL377898
   59    62     0     0     0
SMALL
USER_CHARGES

@<TRIPOS>ATOM
      1 C1         -0.0187    1.5258    0.0104 C.3       1 <0>        -0.1471
      2 C2          0.0021   -0.0041    0.0020 C.3       1 <0>        -0.1174
      3 C3          0.7182   -0.4975   -1.2568 C.3       1 <0>         0.0717
      4 O1          0.7376   -1.9263   -1.2646 O.3       1 <0>        -0.3661
      5 C4          1.3873   -2.4925   -2.4045 C.3       1 <0>         0.0346
      6 C5          0.7569   -3.8481   -2.7299 C.3       1 <0>        -0.0599
      7 C6         -0.6773   -3.6480   -3.1470 C.ar      1 <0>        -0.0861
      8 C7         -1.6818   -3.6638   -2.1888 C.ar      1 <0>        -0.0712
      9 C8         -2.9991   -3.4833   -2.5487 C.ar      1 <0>        -0.1534
     10 C9         -3.3289   -3.2825   -3.8853 C.ar      1 <0>         0.0914
     11 C10        -2.3074   -3.2668   -4.8523 C.ar      1 <0>        -0.1063
     12 C11        -0.9782   -3.4468   -4.4644 C.ar      1 <0>        -0.0733
     13 C12        -2.9708   -3.0380   -6.1382 C.2       1 <0>        -0.2009
     14 C13        -4.2856   -2.9339   -5.8884 C.2       1 <0>         0.0494
     15 N1         -4.5184   -3.0773   -4.5477 N.pl3     1 <0>        -0.4839
     16 C14        -5.8370   -3.0206   -3.9117 C.3       1 <0>         0.1998
     17 C15        -6.0926   -1.6231   -3.4091 C.2       1 <0>        -0.0408
     18 C16        -5.7727   -1.1480   -2.1916 C.2       1 <0>         0.0050
     19 O2         -6.1706    0.1389   -2.1470 O.3       1 <0>        -0.1884
     20 C17        -6.7276    0.4357   -3.3339 C.2       1 <0>         0.2132
     21 N2         -6.6743   -0.6297   -4.0981 N.2       1 <0>        -0.4417
     22 C18        -7.2992    1.7443   -3.7160 C.ar      1 <0>         0.0241
     23 C19        -7.8563    1.9226   -4.9832 C.ar      1 <0>        -0.0743
     24 C20        -8.3885    3.1463   -5.3334 C.ar      1 <0>        -0.0686
     25 C21        -8.3708    4.1954   -4.4316 C.ar      1 <0>        -0.1709
     26 C22        -7.8201    4.0253   -3.1738 C.ar      1 <0>        -0.0678
     27 C23        -7.2894    2.8052   -2.8091 C.ar      1 <0>        -0.0925
     28 C24        -8.9536    5.5295   -4.8211 C.3       1 <0>         0.5089
     29 F1        -10.3095    5.5640   -4.4786 F         1 <0>        -0.1748
     30 F2         -8.2757    6.5497   -4.1453 F         1 <0>        -0.1748
     31 F3         -8.8164    5.7132   -6.2012 F         1 <0>        -0.1747
     32 C25        -5.0957   -1.9129   -1.0835 C.3       1 <0>        -0.0878
     33 C26         2.8528   -2.6786   -2.1065 C.2       1 <0>         0.4771
     34 O3          3.2827   -2.4423   -0.9903 O.co2     1 <0>        -0.6806
     35 O4          3.6085   -3.0656   -2.9816 O.co2     1 <0>        -0.7004
     36 H1          1.0039    1.9031    0.0027 H         1 <0>         0.0557
     37 H2         -0.5459    1.8868   -0.8726 H         1 <0>         0.0498
     38 H3         -0.5289    1.8773    0.9072 H         1 <0>         0.0543
     39 H4          0.5293   -0.3651    0.8851 H         1 <0>         0.0703
     40 H5         -1.0205   -0.3814    0.0098 H         1 <0>         0.0601
     41 H6          0.1910   -0.1364   -2.1398 H         1 <0>         0.0285
     42 H7          1.7408   -0.1202   -1.2645 H         1 <0>         0.0452
     43 H8          1.2721   -1.8241   -3.2577 H         1 <0>         0.0477
     44 H9          1.3092   -4.3200   -3.5425 H         1 <0>         0.0859
     45 H10         0.7928   -4.4868   -1.8473 H         1 <0>         0.0729
     46 H11        -1.4278   -3.8196   -1.1507 H         1 <0>         0.1271
     47 H12        -3.7734   -3.4980   -1.7959 H         1 <0>         0.1202
     48 H13        -0.1910   -3.4310   -5.2038 H         1 <0>         0.1206
     49 H14        -2.4926   -2.9663   -7.1039 H         1 <0>         0.1431
     50 H15        -5.0469   -2.7627   -6.6350 H         1 <0>         0.1624
     51 H16        -6.6029   -3.2911   -4.6385 H         1 <0>         0.1063
     52 H17        -5.8672   -3.7188   -3.0752 H         1 <0>         0.1020
     53 H18        -7.8704    1.1046   -5.6882 H         1 <0>         0.1509
     54 H19        -8.8196    3.2858   -6.3138 H         1 <0>         0.1463
     55 H20        -7.8091    4.8483   -2.4746 H         1 <0>         0.1454
     56 H21        -6.8638    2.6723   -1.8255 H         1 <0>         0.1444
     57 H22        -4.0151   -1.8017   -1.1728 H         1 <0>         0.1058
     58 H23        -5.4228   -1.5223   -0.1199 H         1 <0>         0.0863
     59 H24        -5.3596   -2.9679   -1.1565 H         1 <0>         0.0974
@<TRIPOS>BOND
     1    1    2 1
     2    1   36 1
     3    1   37 1
     4    1   38 1
     5    2    3 1
     6    2   39 1
     7    2   40 1
     8    3    4 1
     9    3   41 1
    10    3   42 1
    11    4    5 1
    12    5    6 1
    13    5   33 1
    14    5   43 1
    15    6    7 1
    16    6   44 1
    17    6   45 1
    18    7   12 ar
    19    7    8 ar
    20    8    9 ar
    21    8   46 1
    22    9   10 ar
    23    9   47 1
    24   10   15 1
    25   10   11 ar
    26   11   12 ar
    27   11   13 1
    28   12   48 1
    29   13   14 2
    30   13   49 1
    31   14   15 1
    32   14   50 1
    33   15   16 1
    34   16   17 1
    35   16   51 1
    36   16   52 1
    37   17   21 1
    38   17   18 2
    39   18   19 1
    40   18   32 1
    41   19   20 1
    42   20   21 2
    43   20   22 1
    44   22   27 ar
    45   22   23 ar
    46   23   24 ar
    47   23   53 1
    48   24   25 ar
    49   24   54 1
    50   25   26 ar
    51   25   28 1
    52   26   27 ar
    53   26   55 1
    54   27   56 1
    55   28   29 1
    56   28   30 1
    57   28   31 1
    58   32   57 1
    59   32   58 1
    60   32   59 1
    61   33   34 2
    62   33   35 1
@<TRIPOS>MOLECULE
CHEMBL377898__1
   59    62     0     0     0
SMALL
USER_CHARGES

@<TRIPOS>ATOM
      1 C1         -0.0187    1.5258    0.0104 C.3       1 <0>        -0.1462
      2 C2          0.0021   -0.0041    0.0020 C.3       1 <0>        -0.1189
      3 C3          0.7182   -0.4975   -1.2568 C.3       1 <0>         0.0733
      4 O1          0.7376   -1.9263   -1.2646 O.3       1 <0>        -0.3653
      5 C4          1.3873   -2.4925   -2.4045 C.3       1 <0>         0.0346
      6 C5          2.0128   -3.8350   -2.0205 C.3       1 <0>        -0.0597
      7 C6          3.1072   -3.6084   -1.0095 C.ar      1 <0>        -0.0901
      8 C7          4.4071   -3.3816   -1.4409 C.ar      1 <0>        -0.0905
      9 C8          5.4222   -3.1726   -0.5335 C.ar      1 <0>        -0.1531
     10 C9          5.1445   -3.1881    0.8296 C.ar      1 <0>         0.0907
     11 C10         3.8256   -3.4179    1.2616 C.ar      1 <0>        -0.1055
     12 C11         2.8111   -3.6223    0.3242 C.ar      1 <0>        -0.0510
     13 C12         3.8654   -3.3728    2.7253 C.2       1 <0>        -0.1987
     14 C13         5.1385   -3.1311    3.0759 C.2       1 <0>         0.0488
     15 N1          5.9171   -3.0178    1.9565 N.pl3     1 <0>        -0.4840
     16 C14         7.3582   -2.7540    1.9568 C.3       1 <0>         0.1997
     17 C15         7.5981   -1.2748    1.7974 C.2       1 <0>        -0.0397
     18 C16         7.7412   -0.6162    0.6329 C.2       1 <0>         0.0032
     19 O2          7.9376    0.6837    0.9298 O.3       1 <0>        -0.1888
     20 C17         7.9126    0.8053    2.2683 C.2       1 <0>         0.2138
     21 N2          7.7013   -0.3795    2.7913 N.2       1 <0>        -0.4416
     22 C18         8.0879    2.0636    3.0242 C.ar      1 <0>         0.0239
     23 C19         8.0466    2.0548    4.4192 C.ar      1 <0>        -0.0740
     24 C20         8.2115    3.2325    5.1186 C.ar      1 <0>        -0.0686
     25 C21         8.4173    4.4205    4.4400 C.ar      1 <0>        -0.1707
     26 C22         8.4593    4.4362    3.0572 C.ar      1 <0>        -0.0678
     27 C23         8.3012    3.2646    2.3460 C.ar      1 <0>        -0.0926
     28 C24         8.5961    5.7033    5.2105 C.3       1 <0>         0.5089
     29 F1          9.9540    5.8960    5.4867 F         1 <0>        -0.1748
     30 F2          8.1183    6.7752    4.4490 F         1 <0>        -0.1747
     31 F3          7.8820    5.6294    6.4113 F         1 <0>        -0.1746
     32 C25         7.6916   -1.2200   -0.7470 C.3       1 <0>        -0.0874
     33 C26         0.3786   -2.7045   -3.5039 C.2       1 <0>         0.4771
     34 O3          0.7441   -3.0955   -4.5994 O.co2     1 <0>        -0.7014
     35 O4         -0.8028   -2.4850   -3.2979 O.co2     1 <0>        -0.6798
     36 H1          1.0039    1.9031    0.0027 H         1 <0>         0.0494
     37 H2         -0.5459    1.8868   -0.8726 H         1 <0>         0.0551
     38 H3         -0.5289    1.8773    0.9072 H         1 <0>         0.0546
     39 H4          0.5293   -0.3651    0.8851 H         1 <0>         0.0619
     40 H5         -1.0205   -0.3814    0.0098 H         1 <0>         0.0702
     41 H6          0.1910   -0.1364   -2.1398 H         1 <0>         0.0447
     42 H7          1.7408   -0.1202   -1.2645 H         1 <0>         0.0276
     43 H8          2.1668   -1.8147   -2.7524 H         1 <0>         0.0468
     44 H9          1.2486   -4.4820   -1.5899 H         1 <0>         0.0725
     45 H10         2.4312   -4.3083   -2.9088 H         1 <0>         0.0858
     46 H11         4.6247   -3.3692   -2.4987 H         1 <0>         0.1245
     47 H12         6.4303   -2.9977   -0.8791 H         1 <0>         0.1202
     48 H13         1.7967   -3.7946    0.6524 H         1 <0>         0.1231
     49 H14         3.0292   -3.5079    3.3952 H         1 <0>         0.1433
     50 H15         5.4953   -3.0400    4.0912 H         1 <0>         0.1624
     51 H16         7.7893   -3.0926    2.8989 H         1 <0>         0.1063
     52 H17         7.8257   -3.2891    1.1302 H         1 <0>         0.1018
     53 H18         7.8857    1.1281    4.9501 H         1 <0>         0.1510
     54 H19         8.1794    3.2271    6.1981 H         1 <0>         0.1464
     55 H20         8.6200    5.3669    2.5335 H         1 <0>         0.1453
     56 H21         8.3387    3.2775    1.2667 H         1 <0>         0.1442
     57 H22         6.6652   -1.2049   -1.1135 H         1 <0>         0.1044
     58 H23         8.3260   -0.6424   -1.4193 H         1 <0>         0.0862
     59 H24         8.0478   -2.2493   -0.7062 H         1 <0>         0.0977
@<TRIPOS>BOND
     1    1    2 1
     2    1   36 1
     3    1   37 1
     4    1   38 1
     5    2    3 1
     6    2   39 1
     7    2   40 1
     8    3    4 1
     9    3   41 1
    10    3   42 1
    11    4    5 1
    12    5    6 1
    13    5   33 1
    14    5   43 1
    15    6    7 1
    16    6   44 1
    17    6   45 1
    18    7   12 ar
    19    7    8 ar
    20    8    9 ar
    21    8   46 1
    22    9   10 ar
    23    9   47 1
    24   10   15 1
    25   10   11 ar
    26   11   12 ar
    27   11   13 1
    28   12   48 1
    29   13   14 2
    30   13   49 1
    31   14   15 1
    32   14   50 1
    33   15   16 1
    34   16   17 1
    35   16   51 1
    36   16   52 1
    37   17   21 1
    38   17   18 2
    39   18   19 1
    40   18   32 1
    41   19   20 1
    42   20   21 2
    43   20   22 1
    44   22   27 ar
    45   22   23 ar
    46   23   24 ar
    47   23   53 1
    48   24   25 ar
    49   24   54 1
    50   25   26 ar
    51   25   28 1
    52   26   27 ar
    53   26   55 1
    54   27   56 1
    55   28   29 1
    56   28   30 1
    57   28   31 1
    58   32   57 1
    59   32   58 1
    60   32   59 1
    61   33   34 2
    62   33   35 1
@<TRIPOS>MOLECULE
CHEMBL516492
   49    51     0     0     0
SMALL
USER_CHARGES

@<TRIPOS>ATOM
      1 C1          5.6490   -6.6008    1.9964 C.3       1 <0>        -0.1049
      2 C2          4.4183   -5.9479    1.4219 C.ar      1 <0>        -0.1070
      3 C3          3.9269   -6.3578    0.1980 C.ar      1 <0>        -0.0605
      4 C4          2.7925   -5.7559   -0.3313 C.ar      1 <0>        -0.1348
      5 C5          2.1534   -4.7419    0.3714 C.ar      1 <0>        -0.0932
      6 C6          2.6464   -4.3337    1.5948 C.ar      1 <0>        -0.1964
      7 C7          3.7762   -4.9395    2.1250 C.ar      1 <0>         0.1404
      8 O1          4.2575   -4.5408    3.3330 O.3       1 <0>        -0.2751
      9 C8          3.5467   -3.4972    4.0021 C.3       1 <0>        -0.0083
     10 C9          4.2212   -3.1916    5.3146 C.2       1 <0>         0.5016
     11 O2          5.2182   -3.8101    5.6463 O.co2     1 <0>        -0.6698
     12 O3          3.7700   -2.3258    6.0449 O.co2     1 <0>        -0.6871
     13 S1          2.1648   -6.2774   -1.8929 S.3       1 <0>        -0.1275
     14 C10         0.7106   -5.2252   -2.1549 C.3       1 <0>        -0.0664
     15 C11         0.0605   -5.5780   -3.4943 C.3       1 <0>        -0.1191
     16 C12        -1.4596   -5.7500   -3.5181 C.3       1 <0>        -0.1532
     17 C13        -0.5493   -6.9739   -3.6375 C.3       1 <0>        -0.1507
     18 C14         0.7221   -4.9658   -4.7305 C.3       1 <0>         0.0950
     19 O4          0.5845   -3.5440   -4.6896 O.3       1 <0>        -0.3012
     20 C15         1.1217   -2.8422   -5.7220 C.ar      1 <0>         0.1685
     21 C16         1.7630   -3.5087   -6.7561 C.ar      1 <0>        -0.2124
     22 C17         2.3078   -2.7931   -7.8046 C.ar      1 <0>        -0.0272
     23 C18         2.2148   -1.4137   -7.8238 C.ar      1 <0>        -0.2274
     24 C19         1.5766   -0.7470   -6.7942 C.ar      1 <0>        -0.0294
     25 C20         1.0248   -1.4585   -5.7465 C.ar      1 <0>        -0.1533
     26 C21         2.8105   -0.6354   -8.9686 C.3       1 <0>         0.5124
     27 F1          1.8521   -0.4807   -9.9759 F         1 <0>        -0.1787
     28 F2          3.2175    0.6238   -8.5147 F         1 <0>        -0.1775
     29 F3          3.9149   -1.3269   -9.4778 F         1 <0>        -0.1784
     30 H1          5.3563   -7.4589    2.6014 H         1 <0>         0.0681
     31 H2          6.2968   -6.9325    1.1849 H         1 <0>         0.0605
     32 H3          6.1842   -5.8833    2.6184 H         1 <0>         0.0797
     33 H4          4.4247   -7.1459   -0.3475 H         1 <0>         0.1288
     34 H5          1.2715   -4.2729   -0.0394 H         1 <0>         0.1185
     35 H6          2.1498   -3.5455    2.1411 H         1 <0>         0.1315
     36 H7          3.5425   -2.6030    3.3789 H         1 <0>         0.0592
     37 H8          2.5210   -3.8165    4.1865 H         1 <0>         0.0592
     38 H9         -0.0055   -5.3879   -1.3494 H         1 <0>         0.0900
     39 H10         1.0160   -4.1789   -2.1638 H         1 <0>         0.0957
     40 H11        -1.9965   -5.6117   -2.5796 H         1 <0>         0.1023
     41 H12        -1.9887   -5.4268   -4.4146 H         1 <0>         0.1015
     42 H13        -0.4795   -7.4559   -4.6127 H         1 <0>         0.1015
     43 H14        -0.4874   -7.6409   -2.7777 H         1 <0>         0.1107
     44 H15         1.7800   -5.2282   -4.7440 H         1 <0>         0.0792
     45 H16         0.2405   -5.3517   -5.6290 H         1 <0>         0.0706
     46 H17         1.8365   -4.5861   -6.7412 H         1 <0>         0.1398
     47 H18         2.8071   -3.3114   -8.6098 H         1 <0>         0.1382
     48 H19         1.5056    0.3305   -6.8113 H         1 <0>         0.1426
     49 H20         0.5225   -0.9377   -4.9447 H         1 <0>         0.1440
@<TRIPOS>BOND
     1    1    2 1
     2    1   30 1
     3    1   31 1
     4    1   32 1
     5    2    7 ar
     6    2    3 ar
     7    3    4 ar
     8    3   33 1
     9    4    5 ar
    10    4   13 1
    11    5    6 ar
    12    5   34 1
    13    6    7 ar
    14    6   35 1
    15    7    8 1
    16    8    9 1
    17    9   10 1
    18    9   36 1
    19    9   37 1
    20   10   11 2
    21   10   12 1
    22   13   14 1
    23   14   15 1
    24   14   38 1
    25   14   39 1
    26   15   17 1
    27   15   16 1
    28   15   18 1
    29   16   17 1
    30   16   40 1
    31   16   41 1
    32   17   42 1
    33   17   43 1
    34   18   19 1
    35   18   44 1
    36   18   45 1
    37   19   20 1
    38   20   25 ar
    39   20   21 ar
    40   21   22 ar
    41   21   46 1
    42   22   23 ar
    43   22   47 1
    44   23   24 ar
    45   23   26 1
    46   24   25 ar
    47   24   48 1
    48   25   49 1
    49   26   27 1
    50   26   28 1
    51   26   29 1
