@<TRIPOS>MOLECULE
2ZNP-K55
 59 60 0 0 0
SMALL
SF_CHARGES


@<TRIPOS>ATOM
1    O        20.2310   -1.9230   34.1690  O.co2      1 SUBUNIT     -0.8717
2    O        18.2640   -2.9750   34.1070  O.co2      1 SUBUNIT     -0.8717
3    C        18.9770   -2.1190   34.6030  C.2        1 SUBUNIT      0.7625
4    C        18.6370   -1.1950   35.7360  C.3        1 SUBUNIT     -0.0272
5    C        19.2800   -1.7720   37.0420  C.3        1 SUBUNIT     -0.0530
6    C        20.3250   -0.8950   37.7380  C.3        1 SUBUNIT     -0.0907
7    C        19.1680    0.1870   35.3730  C.3        1 SUBUNIT     -0.0233
8    C        18.2430    1.3550   35.5420  C.2        1 SUBUNIT     -0.0284
9    C        16.8990    1.2210   35.9960  C.2        1 SUBUNIT     -0.0999
10   C        16.0660    2.3660   36.1560  C.2        1 SUBUNIT     -0.0535
11   C        16.5940    3.6090   35.8700  C.2        1 SUBUNIT      0.1554
12   C        17.9120    3.7550   35.4190  C.2        1 SUBUNIT     -0.1119
13   C        18.7280    2.6390   35.2530  C.2        1 SUBUNIT     -0.1019
14   O        15.7480    4.6100   36.0550  O.3        1 SUBUNIT     -0.3873
15   C        16.1950    5.9290   35.7840  C.3        1 SUBUNIT      0.1981
16   C        15.0090    6.8010   36.0730  C.3        1 SUBUNIT     -0.0750
17   C        14.6310    7.5910   34.8770  C.3        1 SUBUNIT     -0.0586
18   C        13.2460    7.1740   34.4700  C.3        1 SUBUNIT     -0.0997
19   C        14.6480    2.1740   36.6250  C.3        1 SUBUNIT      0.1797
20   N        14.3330    2.5410   37.9810  N.am       1 SUBUNIT     -0.5830
21   C        13.0480    2.3600   38.5080  C.2        1 SUBUNIT      0.6607
22   O        12.1010    1.8910   37.9170  O.2        1 SUBUNIT     -0.5534
23   C        12.8770    2.7570   39.8660  C.2        1 SUBUNIT     -0.0595
24   C        13.5360    3.8640   40.3490  C.2        1 SUBUNIT      0.1278
25   C        13.3560    4.2450   41.6990  C.2        1 SUBUNIT     -0.1277
26   C        12.4930    3.4850   42.5550  C.2        1 SUBUNIT     -0.0855
27   C        11.8360    2.3610   42.0280  C.2        1 SUBUNIT     -0.1156
28   C        12.0310    2.0040   40.6950  C.2        1 SUBUNIT     -0.1180
29   C        12.2700    3.8740   43.9920  C.3        1 SUBUNIT      0.7779
30   F        14.3520    4.5930   39.5570  F          1 SUBUNIT     -0.2033
31   F        10.9880    4.1220   44.2530  F          1 SUBUNIT     -0.2814
32   F        12.9490    5.0080   44.3630  F          1 SUBUNIT     -0.2814
33   F        12.5930    2.9270   44.8590  F          1 SUBUNIT     -0.2814
34   H        17.5558   -1.1100   35.8869  H          1 SUBUNIT      0.0365
35   H        18.4757   -1.9547   37.7623  H          1 SUBUNIT      0.0414
36   H        19.7663   -2.7199   36.7888  H          1 SUBUNIT      0.0414
37   H        21.1717   -0.6916   37.0740  H          1 SUBUNIT      0.0442
38   H        20.7126   -1.3852   38.6372  H          1 SUBUNIT      0.0442
39   H        19.8940    0.0659   38.0378  H          1 SUBUNIT      0.0442
40   H        20.0471    0.3787   35.9971  H          1 SUBUNIT      0.0393
41   H        19.4661    0.1614   34.3197  H          1 SUBUNIT      0.0393
42   H        16.5086    0.2438   36.2206  H          1 SUBUNIT      0.1026
43   H        18.2992    4.7344   35.1986  H          1 SUBUNIT      0.1032
44   H        19.7366    2.7664   34.9005  H          1 SUBUNIT      0.1039
45   H        17.0394    6.1798   36.4344  H          1 SUBUNIT      0.0272
46   H        16.5029    6.0128   34.7365  H          1 SUBUNIT      0.0272
47   H        14.1617    6.1728   36.3670  H          1 SUBUNIT      0.0479
48   H        15.2557    7.4875   36.8896  H          1 SUBUNIT      0.0479
49   H        14.6453    8.6587   35.1197  H          1 SUBUNIT      0.0495
50   H        15.3370    7.3915   34.0641  H          1 SUBUNIT      0.0495
51   H        13.2123    6.1062   34.2298  H          1 SUBUNIT      0.0534
52   H        12.9130    7.7284   33.5864  H          1 SUBUNIT      0.0534
53   H        12.5275    7.3607   35.2749  H          1 SUBUNIT      0.0534
54   H        13.9945    2.7690   35.9786  H          1 SUBUNIT      0.0332
55   H        14.3979    1.1131   36.5205  H          1 SUBUNIT      0.0332
56   H        15.0439    2.9381   38.5751  H          1 SUBUNIT      0.3283
57   H        13.8719    5.1097   42.0784  H          1 SUBUNIT      0.1123
58   H        11.1824    1.7739   42.6492  H          1 SUBUNIT      0.1124
59   H        11.5253    1.1402   40.3001  H          1 SUBUNIT      0.1124
@<TRIPOS>BOND
     1    1    3 2
     2    2    3 1
     3    3    4 1
     4    4    5 1
     5    4    7 1
     6    5    6 1
     7    7    8 1
     8    8    9 2
     9    8   13 1
    10    9   10 1
    11   10   11 2
    12   10   19 1
    13   11   12 1
    14   11   14 1
    15   12   13 2
    16   14   15 1
    17   15   16 1
    18   16   17 1
    19   17   18 1
    20   19   20 1
    21   20   21 1
    22   21   22 2
    23   21   23 1
    24   23   24 2
    25   23   28 1
    26   24   25 1
    27   24   30 1
    28   25   26 2
    29   26   27 1
    30   26   29 1
    31   27   28 2
    32   29   31 1
    33   29   32 1
    34   29   33 1
    35    4   34 1
    36    5   35 1
    37    5   36 1
    38    6   37 1
    39    6   38 1
    40    6   39 1
    41    7   40 1
    42    7   41 1
    43    9   42 1
    44   12   43 1
    45   13   44 1
    46   15   45 1
    47   15   46 1
    48   16   47 1
    49   16   48 1
    50   17   49 1
    51   17   50 1
    52   18   51 1
    53   18   52 1
    54   18   53 1
    55   19   54 1
    56   19   55 1
    57   20   56 1
    58   25   57 1
    59   27   58 1
    60   28   59 1
